Info: SIMULATION PARAMETERS:
Info: TIMESTEP               2
Info: NUMBER OF STEPS        0
Info: STEPS PER CYCLE        10
Info: PERIODIC CELL BASIS 1  36.005 0 0
Info: PERIODIC CELL BASIS 2  0 34.26 0
Info: PERIODIC CELL BASIS 3  0 0 36.199
Info: PERIODIC CELL CENTER   0 0 0
Info: WRAPPING WATERS AROUND PERIODIC BOUNDARIES ON OUTPUT.
Info: WRAPPING ALL CLUSTERS AROUND PERIODIC BOUNDARIES ON OUTPUT.
Info: FIRST LDB TIMESTEP     50
Info: LAST LDB TIMESTEP     -1
Info: HOM BACKGROUND SCALING 1
Info: PME BACKGROUND SCALING 1
Info: MIN ATOMS PER PATCH    40
Info: EMPTY PATCH LOAD       40 ATOMS
Info: INITIAL TEMPERATURE    300
Info: CENTER OF MASS MOVING INITIALLY? NO
Info: DIELECTRIC             1
Info: EXCLUDE                SCALED ONE-FOUR
Info: 1-4 ELECTROSTATICS SCALED BY 0.833333
Info: MODIFIED 1-4 VDW PARAMETERS WILL BE USED
Info: DCD FILENAME           mobley_5494918_equil.dcd
Info: DCD FREQUENCY          100000
Info: DCD FIRST STEP         100000
Info: DCD FILE WILL CONTAIN UNIT CELL DATA
Info: XST FILENAME           mobley_5494918_equil.xst
Info: XST FREQUENCY          100000
Info: NO VELOCITY DCD OUTPUT
Info: NO FORCE DCD OUTPUT
Info: OUTPUT FILENAME        mobley_5494918_equil
Info: BINARY OUTPUT FILES WILL BE USED
Info: RESTART FILENAME       mobley_5494918_equil.restart
Info: RESTART FREQUENCY      100000
Info: BINARY RESTART FILES WILL BE USED
Info: CUTOFF                 9
Info: PAIRLIST DISTANCE      11
Info: PAIRLIST SHRINK RATE   0.01
Info: PAIRLIST GROW RATE     0.01
Info: PAIRLIST TRIGGER       0.3
Info: PAIRLISTS PER CYCLE    2
Info: PAIRLISTS ENABLED
Info: MARGIN                 8
Info: HYDROGEN GROUP CUTOFF  2.5
Info: PATCH DIMENSION        21.5
Info: ENERGY OUTPUT STEPS    100000
Info: ENERGY EVALUATION STEPS    100000
Info: OUTPUT ENERGY PRECISION 4
Info: CROSSTERM ENERGY INCLUDED IN DIHEDRAL
Info: TIMING OUTPUT STEPS    1000000
Info: PRESSURE OUTPUT STEPS  100000
Info: LANGEVIN DYNAMICS ACTIVE
Info: LANGEVIN TEMPERATURE   30
Info: LANGEVIN USING BBK INTEGRATOR
Info: LANGEVIN DAMPING COEFFICIENT IS 1 INVERSE PS
Info: LANGEVIN DYNAMICS APPLIED TO HYDROGENS
Info: LANGEVIN PISTON PRESSURE CONTROL ACTIVE
Info:        TARGET PRESSURE IS 1.01325 BAR
Info:     OSCILLATION PERIOD IS 50 FS
Info:             DECAY TIME IS 25 FS
Info:     PISTON TEMPERATURE IS 300 K
Info:       PRESSURE CONTROL IS GROUP-BASED
Info:    INITIAL STRAIN RATE IS 0 0 0
Info:       CELL FLUCTUATION IS ISOTROPIC
Info: PARTICLE MESH EWALD (PME) ACTIVE
Info: PME TOLERANCE               1e-06
Info: PME EWALD COEFFICIENT       0.348832
Info: PME INTERPOLATION ORDER     4
Info: PME GRID DIMENSIONS         40 36 40
Info: PME MAXIMUM GRID SPACING    1
Info: FULL ELECTROSTATIC EVALUATION FREQUENCY      2
Info: USING VERLET I (r-RESPA) MTS SCHEME.
Info: C1 SPLITTING OF LONG RANGE ELECTROSTATICS
Info: PLACING ATOMS IN PATCHES BY HYDROGEN GROUPS
Info: RIGID BONDS TO HYDROGEN : ALL
Info:         ERROR TOLERANCE : 1e-08
Info:          MAX ITERATIONS : 100
Info: RIGID WATER USING SETTLE ALGORITHM
Info: RANDOM NUMBER SEED     1743159747
Info: USE HYDROGEN BONDS?    NO
Info: Using AMBER format force field!
Info: AMBER PARM FILE        mobley_5494918.prmtop
Info: COORDINATE PDB         mobley_5494918.pdb
Info: Exclusions will be read from PARM file!
Info: SCNB (VDW SCALING)     2
Info: USING ARITHMETIC MEAN TO COMBINE L-J SIGMA PARAMETERS
Info: BINARY COORDINATES     mobley_5494918_min.coor
Info: SUMMARY OF PARAMETERS:
Info: 6 BONDS
Info: 6 ANGLES
Info:   6 HARMONIC
Info:   0 COSINE-BASED
Info: 3 DIHEDRAL
Info: 0 IMPROPER
Info: 0 CROSSTERM
Info: 0 VDW
Info: 15 VDW_PAIRS
Info: 0 NBTHOLE_PAIRS
Info: STRUCTURE SUMMARY:
Info: 2982 ATOMS
Info: 2981 BONDS
Info: 12 ANGLES
Info: 12 DIHEDRALS
Info: 0 IMPROPERS
Info: 0 CROSSTERMS
Info: 3003 EXCLUSIONS
Info: 2973 RIGID BONDS
Info: 5973 DEGREES OF FREEDOM
Info: 1000 HYDROGEN GROUPS
Info: 3 ATOMS IN LARGEST HYDROGEN GROUP
Info: 1000 MIGRATION GROUPS
Info: 3 ATOMS IN LARGEST MIGRATION GROUP
Info: TOTAL MASS = 18003.9 amu
Info: TOTAL CHARGE = -4.84288e-08 e
Info: MASS DENSITY = 0.669543 g/cm^3
Info: ATOM DENSITY = 0.0667822 atoms/A^3
Info: ADDED 0 IMPLICIT EXCLUSIONS
Info: NONBONDED TABLE R-SQUARED SPACING: 0.0625
Info: NONBONDED TABLE SIZE: 705 POINTS
Info: REMOVING COM VELOCITY 0.100835 0.0300817 0.0604984
TCL: Running for 100000 steps
ETITLE: TS BOND ANGLE DIHED IMPRP ELECT VDW BOUNDARY MISC KINETIC TOTAL TEMP POTENTIAL TOTAL3 TEMPAVG PRESSURE GPRESSURE VOLUME PRESSAVG GPRESSAVG
ENERGY: 0 0.0374 0.2347 0.0013 0.0000 -13813.2175 2438.4891 0.0000 0.0000 1789.7392 -9584.7158 301.5696 -11374.4549 -9584.3808 301.5696 523.5264 555.5414 44652.5995 523.5264 555.5414
ENERGY: 100000 0.6169 0.3518 0.0359 0.0000 -14472.5036 2526.1234 0.0000 0.0000 183.3122 -11762.0633 30.8880 -11945.3755 -11761.4552 30.9695 75.0912 138.6137 28701.6597 4.0578 4.0787
TCL: Running 100000 steps at 60 kelvin.
TCL: Setting parameter langevinTemp to 60
TCL: Running for 100000 steps
ETITLE: TS BOND ANGLE DIHED IMPRP ELECT VDW BOUNDARY MISC KINETIC TOTAL TEMP POTENTIAL TOTAL3 TEMPAVG PRESSURE GPRESSURE VOLUME PRESSAVG GPRESSAVG
ENERGY: 100000 0.6169 0.3518 0.0359 0.0000 -14472.5036 2526.1234 0.0000 0.0000 183.2251 -11762.1504 30.8733 -11945.3755 -11761.7856 30.8733 75.7857 138.7976 28701.6597 75.7857 138.7976
ENERGY: 200000 0.2917 1.1131 0.3215 0.0000 -14312.1802 2451.6222 0.0000 0.0000 362.2918 -11496.5398 61.0459 -11858.8317 -11495.9636 59.9101 -97.7872 -36.8574 28698.6024 3.4996 3.5380
TCL: Running 100000 steps at 90 kelvin.
TCL: Setting parameter langevinTemp to 90
TCL: Running for 100000 steps
ETITLE: TS BOND ANGLE DIHED IMPRP ELECT VDW BOUNDARY MISC KINETIC TOTAL TEMP POTENTIAL TOTAL3 TEMPAVG PRESSURE GPRESSURE VOLUME PRESSAVG GPRESSAVG
ENERGY: 200000 0.2917 1.1131 0.3215 0.0000 -14312.1802 2451.6222 0.0000 0.0000 362.1125 -11496.7192 61.0157 -11858.8317 -11495.9030 61.0157 -84.4753 -37.5746 28698.6024 -84.4753 -37.5746
ENERGY: 300000 1.1838 1.0093 0.2290 0.0000 -14242.4222 2446.5835 0.0000 0.0000 532.6682 -11260.7483 89.7542 -11793.4166 -11259.3740 89.9342 216.3897 273.7427 28658.6082 4.9135 4.9560
TCL: Running 100000 steps at 120 kelvin.
TCL: Setting parameter langevinTemp to 120
TCL: Running for 100000 steps
ETITLE: TS BOND ANGLE DIHED IMPRP ELECT VDW BOUNDARY MISC KINETIC TOTAL TEMP POTENTIAL TOTAL3 TEMPAVG PRESSURE GPRESSURE VOLUME PRESSAVG GPRESSAVG
ENERGY: 300000 1.1838 1.0093 0.2290 0.0000 -14242.4222 2446.5835 0.0000 0.0000 532.4011 -11261.0154 89.7092 -11793.4166 -11260.0943 89.7092 218.1183 274.2607 28658.6082 218.1183 274.2607
ENERGY: 400000 0.8392 1.8444 0.2074 0.0000 -13898.5177 2281.2581 0.0000 0.0000 725.9794 -10888.3891 122.3270 -11614.3685 -10886.6451 120.1945 -718.6589 -650.5184 29082.5956 5.8109 5.6931
TCL: Running 100000 steps at 150 kelvin.
TCL: Setting parameter langevinTemp to 150
TCL: Running for 100000 steps
ETITLE: TS BOND ANGLE DIHED IMPRP ELECT VDW BOUNDARY MISC KINETIC TOTAL TEMP POTENTIAL TOTAL3 TEMPAVG PRESSURE GPRESSURE VOLUME PRESSAVG GPRESSAVG
ENERGY: 400000 0.8392 1.8444 0.2074 0.0000 -13898.5177 2281.2581 0.0000 0.0000 725.6163 -10888.7523 122.2658 -11614.3685 -10887.5608 122.2658 -701.5130 -649.7696 29082.5956 -701.5130 -649.7696
ENERGY: 500000 1.8271 0.8393 0.4146 0.0000 -13661.5669 2221.0687 0.0000 0.0000 894.9278 -10542.4894 150.7946 -11437.4172 -10540.9868 149.7438 -679.0683 -606.8103 29216.8521 4.7078 4.8357
TCL: Running 100000 steps at 180 kelvin.
TCL: Setting parameter langevinTemp to 180
TCL: Running for 100000 steps
ETITLE: TS BOND ANGLE DIHED IMPRP ELECT VDW BOUNDARY MISC KINETIC TOTAL TEMP POTENTIAL TOTAL3 TEMPAVG PRESSURE GPRESSURE VOLUME PRESSAVG GPRESSAVG
ENERGY: 500000 1.8271 0.8393 0.4146 0.0000 -13661.5669 2221.0687 0.0000 0.0000 894.4946 -10542.9226 150.7216 -11437.4172 -10541.3801 150.7216 -666.7480 -606.2093 29216.8521 -666.7480 -606.2093
ENERGY: 600000 1.1398 1.0217 0.4555 0.0000 -13193.4706 2125.7330 0.0000 0.0000 1042.4114 -10022.7091 175.6455 -11065.1206 -10019.7680 180.5400 -188.4292 -74.7281 29476.7178 3.9234 3.8659
TCL: Running 100000 steps at 210 kelvin.
TCL: Setting parameter langevinTemp to 210
TCL: Running for 100000 steps
ETITLE: TS BOND ANGLE DIHED IMPRP ELECT VDW BOUNDARY MISC KINETIC TOTAL TEMP POTENTIAL TOTAL3 TEMPAVG PRESSURE GPRESSURE VOLUME PRESSAVG GPRESSAVG
ENERGY: 600000 1.1398 1.0217 0.4555 0.0000 -13193.4706 2125.7330 0.0000 0.0000 1041.8805 -10023.2401 175.5560 -11065.1206 -10021.5695 175.5560 -144.9710 -72.9080 29476.7178 -144.9710 -72.9080
ENERGY: 700000 3.6932 2.2023 0.4068 0.0000 -12571.0745 1894.4383 0.0000 0.0000 1231.7724 -9438.5617 207.5527 -10670.3341 -9435.6161 210.0144 -421.6837 -315.7562 29158.7768 2.0369 1.9079
TCL: Running 100000 steps at 240 kelvin.
TCL: Setting parameter langevinTemp to 240
TCL: Running for 100000 steps
ETITLE: TS BOND ANGLE DIHED IMPRP ELECT VDW BOUNDARY MISC KINETIC TOTAL TEMP POTENTIAL TOTAL3 TEMPAVG PRESSURE GPRESSURE VOLUME PRESSAVG GPRESSAVG
ENERGY: 700000 3.6932 2.2023 0.4068 0.0000 -12571.0745 1894.4383 0.0000 0.0000 1231.1617 -9439.1724 207.4498 -10670.3341 -9437.1046 207.4498 -397.9859 -315.2062 29158.7768 -397.9859 -315.2062
ENERGY: 800000 2.3002 2.3392 0.2255 0.0000 -11906.8347 1628.0626 0.0000 0.0000 1443.0307 -8830.8765 243.1495 -10273.9072 -8827.5030 240.5623 -1291.7282 -1140.3394 29688.4489 5.1330 5.1607
TCL: Running 100000 steps at 270 kelvin.
TCL: Setting parameter langevinTemp to 270
TCL: Running for 100000 steps
ETITLE: TS BOND ANGLE DIHED IMPRP ELECT VDW BOUNDARY MISC KINETIC TOTAL TEMP POTENTIAL TOTAL3 TEMPAVG PRESSURE GPRESSURE VOLUME PRESSAVG GPRESSAVG
ENERGY: 800000 2.3002 2.3392 0.2255 0.0000 -11906.8347 1628.0626 0.0000 0.0000 1442.3217 -8831.5855 243.0301 -10273.9072 -8828.2686 243.0301 -1210.7127 -1139.2190 29688.4489 -1210.7127 -1139.2190
ENERGY: 900000 1.8110 2.6730 0.4226 0.0000 -11321.3161 1589.5546 0.0000 0.0000 1615.0362 -8111.8186 272.1323 -9726.8548 -8108.0492 269.6145 75.4315 161.3995 30203.1097 1.9241 1.7728
TCL: Running 1000000 steps at 300 kelvin.
TCL: Setting parameter langevinTemp to 300
TCL: Running for 1000000 steps
ETITLE: TS BOND ANGLE DIHED IMPRP ELECT VDW BOUNDARY MISC KINETIC TOTAL TEMP POTENTIAL TOTAL3 TEMPAVG PRESSURE GPRESSURE VOLUME PRESSAVG GPRESSAVG
ENERGY: 900000 1.8110 2.6730 0.4226 0.0000 -11321.3161 1589.5546 0.0000 0.0000 1614.2160 -8112.6388 271.9941 -9726.8548 -8109.8535 271.9941 81.4817 161.0753 30203.1097 81.4817 161.0753
ENERGY: 1100000 3.4709 4.6573 0.5624 0.0000 -10944.1091 1577.4337 0.0000 0.0000 1802.2001 -7555.7847 303.6693 -9357.9847 -7552.1325 300.6905 931.8340 1077.4987 30603.2757 1.2230 1.1748
ENERGY: 1300000 0.7384 2.9092 2.1561 0.0000 -10733.7449 1365.1650 0.0000 0.0000 1748.8771 -7613.8991 294.6844 -9362.7762 -7608.7160 300.3594 -646.4015 -563.8053 30742.4089 4.6028 4.3684
ENERGY: 1500000 3.2328 1.6029 1.4762 0.0000 -10815.5576 1453.6842 0.0000 0.0000 1754.4825 -7601.0790 295.6289 -9355.5615 -7599.3790 300.0093 24.5227 123.5666 30544.8711 3.8485 4.0168
ENERGY: 1700000 0.9302 1.1286 0.3618 0.0000 -10728.7212 1402.9605 0.0000 0.0000 1770.7018 -7552.6382 298.3619 -9323.3400 -7550.1358 300.3420 -283.9959 -214.4695 30927.3988 4.2792 4.2394
ENERGY: 1900000 1.8982 1.0663 0.5551 0.0000 -10964.6254 1609.8228 0.0000 0.0000 1775.9094 -7575.3736 299.2393 -9351.2829 -7572.7432 300.8636 1285.1143 1361.2130 30392.7812 2.7840 2.6257
TCL: Exiting due to exit command.
