Info: SIMULATION PARAMETERS:
Info: TIMESTEP               2
Info: NUMBER OF STEPS        0
Info: STEPS PER CYCLE        10
Info: PERIODIC CELL BASIS 1  34.986 0 0
Info: PERIODIC CELL BASIS 2  0 34.1 0
Info: PERIODIC CELL BASIS 3  0 0 37.195
Info: PERIODIC CELL CENTER   0 0 0
Info: WRAPPING WATERS AROUND PERIODIC BOUNDARIES ON OUTPUT.
Info: WRAPPING ALL CLUSTERS AROUND PERIODIC BOUNDARIES ON OUTPUT.
Info: FIRST LDB TIMESTEP     50
Info: LAST LDB TIMESTEP     -1
Info: HOM BACKGROUND SCALING 1
Info: PME BACKGROUND SCALING 1
Info: MIN ATOMS PER PATCH    40
Info: EMPTY PATCH LOAD       40 ATOMS
Info: INITIAL TEMPERATURE    300
Info: CENTER OF MASS MOVING INITIALLY? NO
Info: DIELECTRIC             1
Info: EXCLUDE                SCALED ONE-FOUR
Info: 1-4 ELECTROSTATICS SCALED BY 0.833333
Info: MODIFIED 1-4 VDW PARAMETERS WILL BE USED
Info: DCD FILENAME           mobley_1160109_equil.dcd
Info: DCD FREQUENCY          100000
Info: DCD FIRST STEP         100000
Info: DCD FILE WILL CONTAIN UNIT CELL DATA
Info: XST FILENAME           mobley_1160109_equil.xst
Info: XST FREQUENCY          100000
Info: NO VELOCITY DCD OUTPUT
Info: NO FORCE DCD OUTPUT
Info: OUTPUT FILENAME        mobley_1160109_equil
Info: BINARY OUTPUT FILES WILL BE USED
Info: RESTART FILENAME       mobley_1160109_equil.restart
Info: RESTART FREQUENCY      100000
Info: BINARY RESTART FILES WILL BE USED
Info: CUTOFF                 9
Info: PAIRLIST DISTANCE      11
Info: PAIRLIST SHRINK RATE   0.01
Info: PAIRLIST GROW RATE     0.01
Info: PAIRLIST TRIGGER       0.3
Info: PAIRLISTS PER CYCLE    2
Info: PAIRLISTS ENABLED
Info: MARGIN                 8
Info: HYDROGEN GROUP CUTOFF  2.5
Info: PATCH DIMENSION        21.5
Info: ENERGY OUTPUT STEPS    100000
Info: ENERGY EVALUATION STEPS    100000
Info: OUTPUT ENERGY PRECISION 4
Info: CROSSTERM ENERGY INCLUDED IN DIHEDRAL
Info: TIMING OUTPUT STEPS    1000000
Info: PRESSURE OUTPUT STEPS  100000
Info: LANGEVIN DYNAMICS ACTIVE
Info: LANGEVIN TEMPERATURE   30
Info: LANGEVIN USING BBK INTEGRATOR
Info: LANGEVIN DAMPING COEFFICIENT IS 1 INVERSE PS
Info: LANGEVIN DYNAMICS APPLIED TO HYDROGENS
Info: LANGEVIN PISTON PRESSURE CONTROL ACTIVE
Info:        TARGET PRESSURE IS 1.01325 BAR
Info:     OSCILLATION PERIOD IS 50 FS
Info:             DECAY TIME IS 25 FS
Info:     PISTON TEMPERATURE IS 300 K
Info:       PRESSURE CONTROL IS GROUP-BASED
Info:    INITIAL STRAIN RATE IS 0 0 0
Info:       CELL FLUCTUATION IS ISOTROPIC
Info: PARTICLE MESH EWALD (PME) ACTIVE
Info: PME TOLERANCE               1e-06
Info: PME EWALD COEFFICIENT       0.348832
Info: PME INTERPOLATION ORDER     4
Info: PME GRID DIMENSIONS         36 36 40
Info: PME MAXIMUM GRID SPACING    1
Info: FULL ELECTROSTATIC EVALUATION FREQUENCY      2
Info: USING VERLET I (r-RESPA) MTS SCHEME.
Info: C1 SPLITTING OF LONG RANGE ELECTROSTATICS
Info: PLACING ATOMS IN PATCHES BY HYDROGEN GROUPS
Info: RIGID BONDS TO HYDROGEN : ALL
Info:         ERROR TOLERANCE : 1e-08
Info:          MAX ITERATIONS : 100
Info: RIGID WATER USING SETTLE ALGORITHM
Info: RANDOM NUMBER SEED     1743237613
Info: USE HYDROGEN BONDS?    NO
Info: Using AMBER format force field!
Info: AMBER PARM FILE        mobley_1160109.prmtop
Info: COORDINATE PDB         mobley_1160109.pdb
Info: Exclusions will be read from PARM file!
Info: SCNB (VDW SCALING)     2
Info: USING ARITHMETIC MEAN TO COMBINE L-J SIGMA PARAMETERS
Info: BINARY COORDINATES     mobley_1160109_min.coor
Info: SUMMARY OF PARAMETERS:
Info: 9 BONDS
Info: 13 ANGLES
Info:   13 HARMONIC
Info:   0 COSINE-BASED
Info: 15 DIHEDRAL
Info: 0 IMPROPER
Info: 0 CROSSTERM
Info: 0 VDW
Info: 28 VDW_PAIRS
Info: 0 NBTHOLE_PAIRS
Info: STRUCTURE SUMMARY:
Info: 2952 ATOMS
Info: 2952 BONDS
Info: 51 ANGLES
Info: 96 DIHEDRALS
Info: 0 IMPROPERS
Info: 0 CROSSTERMS
Info: 3073 EXCLUSIONS
Info: 2941 RIGID BONDS
Info: 5915 DEGREES OF FREEDOM
Info: 986 HYDROGEN GROUPS
Info: 4 ATOMS IN LARGEST HYDROGEN GROUP
Info: 986 MIGRATION GROUPS
Info: 4 ATOMS IN LARGEST MIGRATION GROUP
Info: TOTAL MASS = 17717.8 amu
Info: TOTAL CHARGE = -0.000199955 e
Info: MASS DENSITY = 0.663035 g/cm^3
Info: ATOM DENSITY = 0.0665247 atoms/A^3
Info: ADDED 0 IMPLICIT EXCLUSIONS
Info: NONBONDED TABLE R-SQUARED SPACING: 0.0625
Info: NONBONDED TABLE SIZE: 705 POINTS
Info: REMOVING COM VELOCITY -0.0285987 -0.103626 -0.0858598
TCL: Running for 100000 steps
ETITLE: TS BOND ANGLE DIHED IMPRP ELECT VDW BOUNDARY MISC KINETIC TOTAL TEMP POTENTIAL TOTAL3 TEMPAVG PRESSURE GPRESSURE VOLUME PRESSAVG GPRESSAVG
ENERGY: 0 0.3436 1.0073 8.0458 0.0000 -13574.8024 2386.5218 0.0000 0.0000 1756.7153 -9422.1686 298.9076 -11178.8839 -9421.8530 298.9076 530.9289 571.3963 44374.4756 530.9289 571.3963
ENERGY: 100000 0.7191 3.2351 8.0021 0.0000 -14098.5638 2379.1786 0.0000 0.0000 176.5206 -11530.9083 30.0352 -11707.4289 -11530.3771 30.9330 -660.5191 -605.3480 28698.0981 4.8670 4.8152
TCL: Running 100000 steps at 60 kelvin.
TCL: Setting parameter langevinTemp to 60
TCL: Running for 100000 steps
ETITLE: TS BOND ANGLE DIHED IMPRP ELECT VDW BOUNDARY MISC KINETIC TOTAL TEMP POTENTIAL TOTAL3 TEMPAVG PRESSURE GPRESSURE VOLUME PRESSAVG GPRESSAVG
ENERGY: 100000 0.7191 3.2351 8.0021 0.0000 -14098.5638 2379.1786 0.0000 0.0000 176.4357 -11530.9932 30.0208 -11707.4289 -11530.5524 30.0208 -657.1845 -605.2264 28698.0981 -657.1845 -605.2264
ENERGY: 200000 0.5835 2.9798 8.4171 0.0000 -13936.3547 2319.8545 0.0000 0.0000 353.8932 -11250.6266 60.2154 -11604.5198 -11249.5522 59.9628 -686.9417 -606.1694 28669.1745 4.0505 3.9844
TCL: Running 100000 steps at 90 kelvin.
TCL: Setting parameter langevinTemp to 90
TCL: Running for 100000 steps
ETITLE: TS BOND ANGLE DIHED IMPRP ELECT VDW BOUNDARY MISC KINETIC TOTAL TEMP POTENTIAL TOTAL3 TEMPAVG PRESSURE GPRESSURE VOLUME PRESSAVG GPRESSAVG
ENERGY: 200000 0.5835 2.9798 8.4171 0.0000 -13936.3547 2319.8545 0.0000 0.0000 353.7211 -11250.7986 60.1862 -11604.5198 -11249.9526 60.1862 -674.0402 -606.1967 28669.1745 -674.0402 -606.1967
ENERGY: 300000 1.4723 4.9951 8.3942 0.0000 -13939.2480 2377.4804 0.0000 0.0000 536.0483 -11010.8577 91.2094 -11546.9060 -11008.9502 89.9794 23.2067 66.9052 28658.4779 4.3721 4.3035
TCL: Running 100000 steps at 120 kelvin.
TCL: Setting parameter langevinTemp to 120
TCL: Running for 100000 steps
ETITLE: TS BOND ANGLE DIHED IMPRP ELECT VDW BOUNDARY MISC KINETIC TOTAL TEMP POTENTIAL TOTAL3 TEMPAVG PRESSURE GPRESSURE VOLUME PRESSAVG GPRESSAVG
ENERGY: 300000 1.4723 4.9951 8.3942 0.0000 -13939.2480 2377.4804 0.0000 0.0000 535.7807 -11011.1252 91.1639 -11546.9060 -11010.0835 91.1639 18.1595 67.9064 28658.4779 18.1595 67.9064
ENERGY: 400000 1.2164 7.7964 8.4271 0.0000 -13774.0308 2330.3695 0.0000 0.0000 703.5598 -10722.6616 119.7117 -11426.2213 -10721.3509 120.1113 -35.1892 20.9268 28608.0373 5.6490 5.5048
TCL: Running 100000 steps at 150 kelvin.
TCL: Setting parameter langevinTemp to 150
TCL: Running for 100000 steps
ETITLE: TS BOND ANGLE DIHED IMPRP ELECT VDW BOUNDARY MISC KINETIC TOTAL TEMP POTENTIAL TOTAL3 TEMPAVG PRESSURE GPRESSURE VOLUME PRESSAVG GPRESSAVG
ENERGY: 400000 1.2164 7.7964 8.4271 0.0000 -13774.0308 2330.3695 0.0000 0.0000 703.2122 -10723.0092 119.6526 -11426.2213 -10721.3692 119.6526 -39.1733 20.2894 28608.0373 -39.1733 20.2894
ENERGY: 500000 2.5071 4.6625 9.9650 0.0000 -13417.8429 2171.5081 0.0000 0.0000 886.7747 -10342.4254 150.8860 -11229.2001 -10341.6160 150.0997 -849.7198 -779.2031 29076.5462 3.1469 3.1149
TCL: Running 100000 steps at 180 kelvin.
TCL: Setting parameter langevinTemp to 180
TCL: Running for 100000 steps
ETITLE: TS BOND ANGLE DIHED IMPRP ELECT VDW BOUNDARY MISC KINETIC TOTAL TEMP POTENTIAL TOTAL3 TEMPAVG PRESSURE GPRESSURE VOLUME PRESSAVG GPRESSAVG
ENERGY: 500000 2.5071 4.6625 9.9650 0.0000 -13417.8429 2171.5081 0.0000 0.0000 886.3365 -10342.8636 150.8114 -11229.2001 -10340.4960 150.8114 -833.7598 -781.1352 29076.5462 -833.7598 -781.1352
ENERGY: 600000 3.3498 7.3160 9.5936 0.0000 -12963.2242 2023.2698 0.0000 0.0000 1045.0798 -9874.6152 177.8218 -10919.6950 -9872.7385 179.8209 -630.2064 -575.5124 28897.2930 3.6800 3.5740
TCL: Running 100000 steps at 210 kelvin.
TCL: Setting parameter langevinTemp to 210
TCL: Running for 100000 steps
ETITLE: TS BOND ANGLE DIHED IMPRP ELECT VDW BOUNDARY MISC KINETIC TOTAL TEMP POTENTIAL TOTAL3 TEMPAVG PRESSURE GPRESSURE VOLUME PRESSAVG GPRESSAVG
ENERGY: 600000 3.3498 7.3160 9.5936 0.0000 -12963.2242 2023.2698 0.0000 0.0000 1044.5283 -9875.1667 177.7280 -10919.6950 -9873.0778 177.7280 -644.6072 -575.6538 28897.2930 -644.6072 -575.6538
ENERGY: 700000 2.2774 8.3642 8.9726 0.0000 -12472.4493 1959.4301 0.0000 0.0000 1226.8026 -9266.6025 208.7422 -10493.4051 -9264.1639 210.0142 330.6806 441.6819 28797.2402 3.1067 3.1374
TCL: Running 100000 steps at 240 kelvin.
TCL: Setting parameter langevinTemp to 240
TCL: Running for 100000 steps
ETITLE: TS BOND ANGLE DIHED IMPRP ELECT VDW BOUNDARY MISC KINETIC TOTAL TEMP POTENTIAL TOTAL3 TEMPAVG PRESSURE GPRESSURE VOLUME PRESSAVG GPRESSAVG
ENERGY: 700000 2.2774 8.3642 8.9726 0.0000 -12472.4493 1959.4301 0.0000 0.0000 1226.1671 -9267.2380 208.6341 -10493.4051 -9264.9702 208.6341 362.4169 441.2549 28797.2402 362.4169 441.2549
ENERGY: 800000 2.3768 8.1098 9.5255 0.0000 -11692.0536 1707.8724 0.0000 0.0000 1426.6318 -8537.5372 242.7435 -9964.1690 -8534.1980 240.2009 410.1199 468.7057 28873.9281 2.8414 2.9065
TCL: Running 100000 steps at 270 kelvin.
TCL: Setting parameter langevinTemp to 270
TCL: Running for 100000 steps
ETITLE: TS BOND ANGLE DIHED IMPRP ELECT VDW BOUNDARY MISC KINETIC TOTAL TEMP POTENTIAL TOTAL3 TEMPAVG PRESSURE GPRESSURE VOLUME PRESSAVG GPRESSAVG
ENERGY: 800000 2.3768 8.1098 9.5255 0.0000 -11692.0536 1707.8724 0.0000 0.0000 1425.9061 -8538.2629 242.6200 -9964.1690 -8536.1738 242.6200 394.6284 467.6290 28873.9281 394.6284 467.6290
ENERGY: 900000 5.3751 14.2254 9.8111 0.0000 -11278.6748 1662.0764 0.0000 0.0000 1601.5487 -7985.6381 272.5058 -9587.1867 -7984.3173 269.7219 961.4603 1017.3064 29308.8310 3.4867 3.4010
TCL: Running 1000000 steps at 300 kelvin.
TCL: Setting parameter langevinTemp to 300
TCL: Running for 1000000 steps
ETITLE: TS BOND ANGLE DIHED IMPRP ELECT VDW BOUNDARY MISC KINETIC TOTAL TEMP POTENTIAL TOTAL3 TEMPAVG PRESSURE GPRESSURE VOLUME PRESSAVG GPRESSAVG
ENERGY: 900000 5.3751 14.2254 9.8111 0.0000 -11278.6748 1662.0764 0.0000 0.0000 1600.7544 -7986.4324 272.3707 -9587.1867 -7984.2809 272.3707 941.4149 1017.3906 29308.8310 941.4149 1017.3906
ENERGY: 1100000 5.6411 11.6939 10.5550 0.0000 -10654.8469 1485.5922 0.0000 0.0000 1741.5681 -7399.7965 296.3303 -9141.3646 -7397.5719 300.5926 677.0867 767.5529 30447.7685 3.1616 3.3833
ENERGY: 1300000 4.5696 13.9691 11.1100 0.0000 -10750.0135 1519.7926 0.0000 0.0000 1737.0482 -7463.5240 295.5612 -9200.5722 -7459.4336 299.8849 629.3500 774.8653 30299.5840 3.8197 3.9061
ENERGY: 1500000 4.4427 11.5927 9.9465 0.0000 -10662.4332 1425.6522 0.0000 0.0000 1769.6432 -7441.1559 301.1073 -9210.7991 -7436.2938 300.5115 -262.7233 -132.4824 30707.1349 2.8726 3.1131
ENERGY: 1700000 1.4397 12.2528 9.6159 0.0000 -10687.0697 1496.8706 0.0000 0.0000 1760.9023 -7405.9885 299.6201 -9166.8907 -7402.2269 300.1516 799.9294 941.5398 30173.0539 4.4115 4.0589
ENERGY: 1900000 1.2287 12.2438 10.0768 0.0000 -10603.2897 1377.0982 0.0000 0.0000 1784.8644 -7417.7778 303.6973 -9202.6422 -7414.5682 299.6853 -318.7549 -224.4138 30304.9344 2.6173 2.6153
TCL: Exiting due to exit command.
