Info: SIMULATION PARAMETERS:
Info: TIMESTEP               2
Info: NUMBER OF STEPS        0
Info: STEPS PER CYCLE        10
Info: PERIODIC CELL BASIS 1  36.592 0 0
Info: PERIODIC CELL BASIS 2  0 34.457 0
Info: PERIODIC CELL BASIS 3  0 0 34.954
Info: PERIODIC CELL CENTER   0 0 0
Info: WRAPPING WATERS AROUND PERIODIC BOUNDARIES ON OUTPUT.
Info: WRAPPING ALL CLUSTERS AROUND PERIODIC BOUNDARIES ON OUTPUT.
Info: FIRST LDB TIMESTEP     50
Info: LAST LDB TIMESTEP     -1
Info: HOM BACKGROUND SCALING 1
Info: PME BACKGROUND SCALING 1
Info: MIN ATOMS PER PATCH    40
Info: EMPTY PATCH LOAD       40 ATOMS
Info: INITIAL TEMPERATURE    300
Info: CENTER OF MASS MOVING INITIALLY? NO
Info: DIELECTRIC             1
Info: EXCLUDE                SCALED ONE-FOUR
Info: 1-4 ELECTROSTATICS SCALED BY 0.833333
Info: MODIFIED 1-4 VDW PARAMETERS WILL BE USED
Info: DCD FILENAME           mobley_6794076_equil.dcd
Info: DCD FREQUENCY          100000
Info: DCD FIRST STEP         100000
Info: DCD FILE WILL CONTAIN UNIT CELL DATA
Info: XST FILENAME           mobley_6794076_equil.xst
Info: XST FREQUENCY          100000
Info: NO VELOCITY DCD OUTPUT
Info: NO FORCE DCD OUTPUT
Info: OUTPUT FILENAME        mobley_6794076_equil
Info: BINARY OUTPUT FILES WILL BE USED
Info: RESTART FILENAME       mobley_6794076_equil.restart
Info: RESTART FREQUENCY      100000
Info: BINARY RESTART FILES WILL BE USED
Info: CUTOFF                 9
Info: PAIRLIST DISTANCE      11
Info: PAIRLIST SHRINK RATE   0.01
Info: PAIRLIST GROW RATE     0.01
Info: PAIRLIST TRIGGER       0.3
Info: PAIRLISTS PER CYCLE    2
Info: PAIRLISTS ENABLED
Info: MARGIN                 8
Info: HYDROGEN GROUP CUTOFF  2.5
Info: PATCH DIMENSION        21.5
Info: ENERGY OUTPUT STEPS    100000
Info: ENERGY EVALUATION STEPS    100000
Info: OUTPUT ENERGY PRECISION 4
Info: CROSSTERM ENERGY INCLUDED IN DIHEDRAL
Info: TIMING OUTPUT STEPS    1000000
Info: PRESSURE OUTPUT STEPS  100000
Info: LANGEVIN DYNAMICS ACTIVE
Info: LANGEVIN TEMPERATURE   30
Info: LANGEVIN USING BBK INTEGRATOR
Info: LANGEVIN DAMPING COEFFICIENT IS 1 INVERSE PS
Info: LANGEVIN DYNAMICS APPLIED TO HYDROGENS
Info: LANGEVIN PISTON PRESSURE CONTROL ACTIVE
Info:        TARGET PRESSURE IS 1.01325 BAR
Info:     OSCILLATION PERIOD IS 50 FS
Info:             DECAY TIME IS 25 FS
Info:     PISTON TEMPERATURE IS 300 K
Info:       PRESSURE CONTROL IS GROUP-BASED
Info:    INITIAL STRAIN RATE IS 0 0 0
Info:       CELL FLUCTUATION IS ISOTROPIC
Info: PARTICLE MESH EWALD (PME) ACTIVE
Info: PME TOLERANCE               1e-06
Info: PME EWALD COEFFICIENT       0.348832
Info: PME INTERPOLATION ORDER     4
Info: PME GRID DIMENSIONS         40 36 36
Info: PME MAXIMUM GRID SPACING    1
Info: FULL ELECTROSTATIC EVALUATION FREQUENCY      2
Info: USING VERLET I (r-RESPA) MTS SCHEME.
Info: C1 SPLITTING OF LONG RANGE ELECTROSTATICS
Info: PLACING ATOMS IN PATCHES BY HYDROGEN GROUPS
Info: RIGID BONDS TO HYDROGEN : ALL
Info:         ERROR TOLERANCE : 1e-08
Info:          MAX ITERATIONS : 100
Info: RIGID WATER USING SETTLE ALGORITHM
Info: RANDOM NUMBER SEED     1743230210
Info: USE HYDROGEN BONDS?    NO
Info: Using AMBER format force field!
Info: AMBER PARM FILE        mobley_6794076.prmtop
Info: COORDINATE PDB         mobley_6794076.pdb
Info: Exclusions will be read from PARM file!
Info: SCNB (VDW SCALING)     2
Info: USING ARITHMETIC MEAN TO COMBINE L-J SIGMA PARAMETERS
Info: BINARY COORDINATES     mobley_6794076_min.coor
Info: SUMMARY OF PARAMETERS:
Info: 10 BONDS
Info: 12 ANGLES
Info:   12 HARMONIC
Info:   0 COSINE-BASED
Info: 9 DIHEDRAL
Info: 0 IMPROPER
Info: 0 CROSSTERM
Info: 0 VDW
Info: 45 VDW_PAIRS
Info: 0 NBTHOLE_PAIRS
Info: STRUCTURE SUMMARY:
Info: 2956 ATOMS
Info: 2956 BONDS
Info: 25 ANGLES
Info: 42 DIHEDRALS
Info: 0 IMPROPERS
Info: 0 CROSSTERMS
Info: 3008 EXCLUSIONS
Info: 2947 RIGID BONDS
Info: 5921 DEGREES OF FREEDOM
Info: 989 HYDROGEN GROUPS
Info: 4 ATOMS IN LARGEST HYDROGEN GROUP
Info: 989 MIGRATION GROUPS
Info: 4 ATOMS IN LARGEST MIGRATION GROUP
Info: TOTAL MASS = 17776.8 amu
Info: TOTAL CHARGE = 9.9957e-05 e
Info: MASS DENSITY = 0.669812 g/cm^3
Info: ATOM DENSITY = 0.0670724 atoms/A^3
Info: ADDED 0 IMPLICIT EXCLUSIONS
Info: NONBONDED TABLE R-SQUARED SPACING: 0.0625
Info: NONBONDED TABLE SIZE: 705 POINTS
Info: REMOVING COM VELOCITY 0.06606 0.309046 0.0234817
TCL: Running for 100000 steps
ETITLE: TS BOND ANGLE DIHED IMPRP ELECT VDW BOUNDARY MISC KINETIC TOTAL TEMP POTENTIAL TOTAL3 TEMPAVG PRESSURE GPRESSURE VOLUME PRESSAVG GPRESSAVG
ENERGY: 0 0.4650 0.9506 2.4170 0.0000 -13646.0206 2399.8551 0.0000 0.0000 1739.7308 -9502.6021 295.7177 -11242.3329 -9502.2631 295.7177 474.9871 505.2606 44071.7699 474.9871 505.2606
ENERGY: 100000 1.1564 1.2672 2.7051 0.0000 -14143.4983 2399.7355 0.0000 0.0000 175.2768 -11563.3573 29.7934 -11738.6341 -11562.8066 30.8988 -528.1674 -463.8351 29264.7346 4.6904 4.6467
TCL: Running 100000 steps at 60 kelvin.
TCL: Setting parameter langevinTemp to 60
TCL: Running for 100000 steps
ETITLE: TS BOND ANGLE DIHED IMPRP ELECT VDW BOUNDARY MISC KINETIC TOTAL TEMP POTENTIAL TOTAL3 TEMPAVG PRESSURE GPRESSURE VOLUME PRESSAVG GPRESSAVG
ENERGY: 100000 1.1564 1.2672 2.7051 0.0000 -14143.4983 2399.7355 0.0000 0.0000 175.1863 -11563.4478 29.7780 -11738.6341 -11562.9546 29.7780 -527.2117 -463.8228 29264.7346 -527.2117 -463.8228
ENERGY: 200000 1.2743 2.4771 3.1319 0.0000 -14109.8307 2411.5917 0.0000 0.0000 353.3007 -11338.0550 60.0537 -11691.3557 -11337.2048 59.9739 -91.7647 -32.4625 28835.9411 3.7100 3.6896
TCL: Running 100000 steps at 90 kelvin.
TCL: Setting parameter langevinTemp to 90
TCL: Running for 100000 steps
ETITLE: TS BOND ANGLE DIHED IMPRP ELECT VDW BOUNDARY MISC KINETIC TOTAL TEMP POTENTIAL TOTAL3 TEMPAVG PRESSURE GPRESSURE VOLUME PRESSAVG GPRESSAVG
ENERGY: 200000 1.2743 2.4771 3.1319 0.0000 -14109.8307 2411.5917 0.0000 0.0000 353.1297 -11338.2260 60.0246 -11691.3557 -11337.5495 60.0246 -97.0027 -32.7156 28835.9411 -97.0027 -32.7156
ENERGY: 300000 0.8003 1.2112 3.6605 0.0000 -13999.4680 2405.1560 0.0000 0.0000 527.7019 -11060.9381 89.6983 -11588.6400 -11060.0804 90.1411 206.2687 292.6613 28726.7845 4.0928 3.9894
TCL: Running 100000 steps at 120 kelvin.
TCL: Setting parameter langevinTemp to 120
TCL: Running for 100000 steps
ETITLE: TS BOND ANGLE DIHED IMPRP ELECT VDW BOUNDARY MISC KINETIC TOTAL TEMP POTENTIAL TOTAL3 TEMPAVG PRESSURE GPRESSURE VOLUME PRESSAVG GPRESSAVG
ENERGY: 300000 0.8003 1.2112 3.6605 0.0000 -13999.4680 2405.1560 0.0000 0.0000 527.4384 -11061.2016 89.6535 -11588.6400 -11060.1125 89.6535 237.2887 292.6352 28726.7845 237.2887 292.6352
ENERGY: 400000 0.7505 2.4903 3.5004 0.0000 -13657.3478 2189.8117 0.0000 0.0000 705.6615 -10755.1334 119.9476 -11460.7949 -10752.1740 120.0891 -980.9251 -917.8114 28685.9117 4.1969 4.1459
TCL: Running 100000 steps at 150 kelvin.
TCL: Setting parameter langevinTemp to 150
TCL: Running for 100000 steps
ETITLE: TS BOND ANGLE DIHED IMPRP ELECT VDW BOUNDARY MISC KINETIC TOTAL TEMP POTENTIAL TOTAL3 TEMPAVG PRESSURE GPRESSURE VOLUME PRESSAVG GPRESSAVG
ENERGY: 400000 0.7505 2.4903 3.5004 0.0000 -13657.3478 2189.8117 0.0000 0.0000 705.3101 -10755.4848 119.8879 -11460.7949 -10753.7174 119.8879 -978.4206 -916.8796 28685.9117 -978.4206 -916.8796
ENERGY: 500000 0.9706 4.2494 4.1686 0.0000 -13590.7952 2275.2360 0.0000 0.0000 856.6317 -10449.5389 145.6094 -11306.1706 -10448.1799 149.8579 -74.1966 -1.5791 29144.6306 3.9703 3.9472
TCL: Running 100000 steps at 180 kelvin.
TCL: Setting parameter langevinTemp to 180
TCL: Running for 100000 steps
ETITLE: TS BOND ANGLE DIHED IMPRP ELECT VDW BOUNDARY MISC KINETIC TOTAL TEMP POTENTIAL TOTAL3 TEMPAVG PRESSURE GPRESSURE VOLUME PRESSAVG GPRESSAVG
ENERGY: 500000 0.9706 4.2494 4.1686 0.0000 -13590.7952 2275.2360 0.0000 0.0000 856.1752 -10449.9955 145.5318 -11306.1706 -10448.0318 145.5318 -62.0306 -1.1755 29144.6306 -62.0306 -1.1755
ENERGY: 600000 2.2296 3.6287 5.5041 0.0000 -13262.0967 2153.2135 0.0000 0.0000 1066.2189 -10031.3018 181.2349 -11097.5208 -10028.5200 180.3942 -166.7966 -83.1589 29030.5573 3.8580 4.1000
TCL: Running 100000 steps at 210 kelvin.
TCL: Setting parameter langevinTemp to 210
TCL: Running for 100000 steps
ETITLE: TS BOND ANGLE DIHED IMPRP ELECT VDW BOUNDARY MISC KINETIC TOTAL TEMP POTENTIAL TOTAL3 TEMPAVG PRESSURE GPRESSURE VOLUME PRESSAVG GPRESSAVG
ENERGY: 600000 2.2296 3.6287 5.5041 0.0000 -13262.0967 2153.2135 0.0000 0.0000 1065.6761 -10031.8446 181.1426 -11097.5208 -10029.7833 181.1426 -151.6337 -82.0896 29030.5573 -151.6337 -82.0896
ENERGY: 700000 1.4972 5.2720 3.4931 0.0000 -12436.0542 1868.3270 0.0000 0.0000 1231.1126 -9326.3523 209.2633 -10557.4649 -9322.7882 210.0628 -149.7723 -105.3206 28737.3922 3.5172 3.4361
TCL: Running 100000 steps at 240 kelvin.
TCL: Setting parameter langevinTemp to 240
TCL: Running for 100000 steps
ETITLE: TS BOND ANGLE DIHED IMPRP ELECT VDW BOUNDARY MISC KINETIC TOTAL TEMP POTENTIAL TOTAL3 TEMPAVG PRESSURE GPRESSURE VOLUME PRESSAVG GPRESSAVG
ENERGY: 700000 1.4972 5.2720 3.4931 0.0000 -12436.0542 1868.3270 0.0000 0.0000 1230.4816 -9326.9834 209.1560 -10557.4649 -9324.7325 209.1560 -179.4986 -103.5827 28737.3922 -179.4986 -103.5827
ENERGY: 800000 6.4420 4.4720 4.4219 0.0000 -11886.7763 1811.7409 0.0000 0.0000 1391.0631 -8668.6365 236.4515 -10059.6996 -8669.0311 239.9233 599.7299 648.9584 29151.7591 3.3795 3.3658
TCL: Running 100000 steps at 270 kelvin.
TCL: Setting parameter langevinTemp to 270
TCL: Running for 100000 steps
ETITLE: TS BOND ANGLE DIHED IMPRP ELECT VDW BOUNDARY MISC KINETIC TOTAL TEMP POTENTIAL TOTAL3 TEMPAVG PRESSURE GPRESSURE VOLUME PRESSAVG GPRESSAVG
ENERGY: 800000 6.4420 4.4720 4.4219 0.0000 -11886.7763 1811.7409 0.0000 0.0000 1390.3571 -8669.3424 236.3315 -10059.6996 -8667.1961 236.3315 578.4458 645.3492 29151.7591 578.4458 645.3492
ENERGY: 900000 1.1967 9.0076 5.9234 0.0000 -11324.4997 1586.3671 0.0000 0.0000 1592.7153 -8129.2896 270.7282 -9722.0049 -8124.6687 269.2326 -56.7301 76.8413 29851.2739 4.0173 4.0245
TCL: Running 1000000 steps at 300 kelvin.
TCL: Setting parameter langevinTemp to 300
TCL: Running for 1000000 steps
ETITLE: TS BOND ANGLE DIHED IMPRP ELECT VDW BOUNDARY MISC KINETIC TOTAL TEMP POTENTIAL TOTAL3 TEMPAVG PRESSURE GPRESSURE VOLUME PRESSAVG GPRESSAVG
ENERGY: 900000 1.1967 9.0076 5.9234 0.0000 -11324.4997 1586.3671 0.0000 0.0000 1591.8974 -8130.1075 270.5892 -9722.0049 -8127.4179 270.5892 -16.1718 76.9537 29851.2739 -16.1718 76.9537
ENERGY: 1100000 2.1975 5.7306 5.0014 0.0000 -10742.6067 1494.5740 0.0000 0.0000 1821.8863 -7413.2169 309.6824 -9235.1032 -7408.6768 299.6900 562.2045 683.1575 30380.8324 3.0578 2.9418
ENERGY: 1300000 4.6155 8.8292 5.1121 0.0000 -10769.0149 1447.4001 0.0000 0.0000 1771.5474 -7531.5107 301.1259 -9303.0581 -7525.1111 300.6782 -41.2949 28.8067 30430.4545 2.9364 3.0502
ENERGY: 1500000 4.3846 4.1435 5.0514 0.0000 -10666.4242 1446.9226 0.0000 0.0000 1750.4368 -7455.4853 297.5375 -9205.9221 -7453.1480 299.9321 257.6084 371.5630 30082.6701 4.1401 3.9460
ENERGY: 1700000 1.9032 3.9857 5.8862 0.0000 -10671.1665 1376.6913 0.0000 0.0000 1772.8652 -7509.8348 301.3499 -9282.7000 -7505.6311 300.4414 -527.1419 -509.8151 30572.9013 4.1925 4.0724
ENERGY: 1900000 1.3375 6.1998 8.0048 0.0000 -10499.5241 1351.9537 0.0000 0.0000 1788.3242 -7343.7040 303.9776 -9132.0282 -7341.7062 300.4023 -362.6109 -298.9487 30607.9820 2.4995 2.6528
TCL: Exiting due to exit command.
