Info: SIMULATION PARAMETERS:
Info: TIMESTEP               2
Info: NUMBER OF STEPS        0
Info: STEPS PER CYCLE        10
Info: PERIODIC CELL BASIS 1  36.281 0 0
Info: PERIODIC CELL BASIS 2  0 34.457 0
Info: PERIODIC CELL BASIS 3  0 0 35.723
Info: PERIODIC CELL CENTER   0 0 0
Info: WRAPPING WATERS AROUND PERIODIC BOUNDARIES ON OUTPUT.
Info: WRAPPING ALL CLUSTERS AROUND PERIODIC BOUNDARIES ON OUTPUT.
Info: FIRST LDB TIMESTEP     50
Info: LAST LDB TIMESTEP     -1
Info: HOM BACKGROUND SCALING 1
Info: PME BACKGROUND SCALING 1
Info: MIN ATOMS PER PATCH    40
Info: EMPTY PATCH LOAD       40 ATOMS
Info: INITIAL TEMPERATURE    300
Info: CENTER OF MASS MOVING INITIALLY? NO
Info: DIELECTRIC             1
Info: EXCLUDE                SCALED ONE-FOUR
Info: 1-4 ELECTROSTATICS SCALED BY 0.833333
Info: MODIFIED 1-4 VDW PARAMETERS WILL BE USED
Info: DCD FILENAME           mobley_7015518_equil.dcd
Info: DCD FREQUENCY          100000
Info: DCD FIRST STEP         100000
Info: DCD FILE WILL CONTAIN UNIT CELL DATA
Info: XST FILENAME           mobley_7015518_equil.xst
Info: XST FREQUENCY          100000
Info: NO VELOCITY DCD OUTPUT
Info: NO FORCE DCD OUTPUT
Info: OUTPUT FILENAME        mobley_7015518_equil
Info: BINARY OUTPUT FILES WILL BE USED
Info: RESTART FILENAME       mobley_7015518_equil.restart
Info: RESTART FREQUENCY      100000
Info: BINARY RESTART FILES WILL BE USED
Info: CUTOFF                 9
Info: PAIRLIST DISTANCE      11
Info: PAIRLIST SHRINK RATE   0.01
Info: PAIRLIST GROW RATE     0.01
Info: PAIRLIST TRIGGER       0.3
Info: PAIRLISTS PER CYCLE    2
Info: PAIRLISTS ENABLED
Info: MARGIN                 8
Info: HYDROGEN GROUP CUTOFF  2.5
Info: PATCH DIMENSION        21.5
Info: ENERGY OUTPUT STEPS    100000
Info: ENERGY EVALUATION STEPS    100000
Info: OUTPUT ENERGY PRECISION 4
Info: CROSSTERM ENERGY INCLUDED IN DIHEDRAL
Info: TIMING OUTPUT STEPS    1000000
Info: PRESSURE OUTPUT STEPS  100000
Info: LANGEVIN DYNAMICS ACTIVE
Info: LANGEVIN TEMPERATURE   30
Info: LANGEVIN USING BBK INTEGRATOR
Info: LANGEVIN DAMPING COEFFICIENT IS 1 INVERSE PS
Info: LANGEVIN DYNAMICS APPLIED TO HYDROGENS
Info: LANGEVIN PISTON PRESSURE CONTROL ACTIVE
Info:        TARGET PRESSURE IS 1.01325 BAR
Info:     OSCILLATION PERIOD IS 50 FS
Info:             DECAY TIME IS 25 FS
Info:     PISTON TEMPERATURE IS 300 K
Info:       PRESSURE CONTROL IS GROUP-BASED
Info:    INITIAL STRAIN RATE IS 0 0 0
Info:       CELL FLUCTUATION IS ISOTROPIC
Info: PARTICLE MESH EWALD (PME) ACTIVE
Info: PME TOLERANCE               1e-06
Info: PME EWALD COEFFICIENT       0.348832
Info: PME INTERPOLATION ORDER     4
Info: PME GRID DIMENSIONS         40 36 36
Info: PME MAXIMUM GRID SPACING    1
Info: FULL ELECTROSTATIC EVALUATION FREQUENCY      2
Info: USING VERLET I (r-RESPA) MTS SCHEME.
Info: C1 SPLITTING OF LONG RANGE ELECTROSTATICS
Info: PLACING ATOMS IN PATCHES BY HYDROGEN GROUPS
Info: RIGID BONDS TO HYDROGEN : ALL
Info:         ERROR TOLERANCE : 1e-08
Info:          MAX ITERATIONS : 100
Info: RIGID WATER USING SETTLE ALGORITHM
Info: RANDOM NUMBER SEED     1743159873
Info: USE HYDROGEN BONDS?    NO
Info: Using AMBER format force field!
Info: AMBER PARM FILE        mobley_7015518.prmtop
Info: COORDINATE PDB         mobley_7015518.pdb
Info: Exclusions will be read from PARM file!
Info: SCNB (VDW SCALING)     2
Info: USING ARITHMETIC MEAN TO COMBINE L-J SIGMA PARAMETERS
Info: BINARY COORDINATES     mobley_7015518_min.coor
Info: SUMMARY OF PARAMETERS:
Info: 4 BONDS
Info: 3 ANGLES
Info:   3 HARMONIC
Info:   0 COSINE-BASED
Info: 1 DIHEDRAL
Info: 0 IMPROPER
Info: 0 CROSSTERM
Info: 0 VDW
Info: 15 VDW_PAIRS
Info: 0 NBTHOLE_PAIRS
Info: STRUCTURE SUMMARY:
Info: 3000 ATOMS
Info: 2999 BONDS
Info: 13 ANGLES
Info: 6 DIHEDRALS
Info: 0 IMPROPERS
Info: 0 CROSSTERMS
Info: 3018 EXCLUSIONS
Info: 2997 RIGID BONDS
Info: 6003 DEGREES OF FREEDOM
Info: 1000 HYDROGEN GROUPS
Info: 4 ATOMS IN LARGEST HYDROGEN GROUP
Info: 1000 MIGRATION GROUPS
Info: 4 ATOMS IN LARGEST MIGRATION GROUP
Info: TOTAL MASS = 18008 amu
Info: TOTAL CHARGE = 9.99942e-05 e
Info: MASS DENSITY = 0.669608 g/cm^3
Info: ATOM DENSITY = 0.0671764 atoms/A^3
Info: ADDED 0 IMPLICIT EXCLUSIONS
Info: NONBONDED TABLE R-SQUARED SPACING: 0.0625
Info: NONBONDED TABLE SIZE: 705 POINTS
Info: REMOVING COM VELOCITY -0.0505599 -0.204042 0.0223105
TCL: Running for 100000 steps
ETITLE: TS BOND ANGLE DIHED IMPRP ELECT VDW BOUNDARY MISC KINETIC TOTAL TEMP POTENTIAL TOTAL3 TEMPAVG PRESSURE GPRESSURE VOLUME PRESSAVG GPRESSAVG
ENERGY: 0 0.0458 0.0555 0.0182 0.0000 -13925.7501 2460.7560 0.0000 0.0000 1805.5889 -9659.2856 302.7199 -11464.8745 -9658.9132 302.7199 466.4506 490.1873 44658.5518 466.4506 490.1873
ENERGY: 100000 0.4264 0.5987 0.0348 0.0000 -14359.0993 2380.4643 0.0000 0.0000 177.4553 -11800.1198 29.7516 -11977.5751 -11799.4939 30.9167 -1125.2415 -1041.5024 28695.4010 3.4072 3.4458
TCL: Running 100000 steps at 60 kelvin.
TCL: Setting parameter langevinTemp to 60
TCL: Running for 100000 steps
ETITLE: TS BOND ANGLE DIHED IMPRP ELECT VDW BOUNDARY MISC KINETIC TOTAL TEMP POTENTIAL TOTAL3 TEMPAVG PRESSURE GPRESSURE VOLUME PRESSAVG GPRESSAVG
ENERGY: 100000 0.4264 0.5987 0.0348 0.0000 -14359.0993 2380.4643 0.0000 0.0000 177.3671 -11800.2079 29.7369 -11977.5751 -11799.8446 29.7369 -1104.3181 -1041.4137 28695.4010 -1104.3181 -1041.4137
ENERGY: 200000 0.0915 0.6980 0.1929 0.0000 -14427.3121 2518.3434 0.0000 0.0000 366.6995 -11541.2868 61.4798 -11907.9863 -11540.7327 60.0972 438.4572 519.2992 28502.4053 2.8182 2.9669
TCL: Running 100000 steps at 90 kelvin.
TCL: Setting parameter langevinTemp to 90
TCL: Running for 100000 steps
ETITLE: TS BOND ANGLE DIHED IMPRP ELECT VDW BOUNDARY MISC KINETIC TOTAL TEMP POTENTIAL TOTAL3 TEMPAVG PRESSURE GPRESSURE VOLUME PRESSAVG GPRESSAVG
ENERGY: 200000 0.0915 0.6980 0.1929 0.0000 -14427.3121 2518.3434 0.0000 0.0000 366.5201 -11541.4662 61.4497 -11907.9863 -11540.7932 61.4497 458.5004 519.0505 28502.4053 458.5004 519.0505
ENERGY: 300000 0.7446 1.1923 0.1072 0.0000 -14329.6031 2529.4393 0.0000 0.0000 537.3187 -11260.8011 90.0853 -11798.1197 -11258.6373 90.0352 871.1736 955.5053 28635.8496 5.0936 5.1880
TCL: Running 100000 steps at 120 kelvin.
TCL: Setting parameter langevinTemp to 120
TCL: Running for 100000 steps
ETITLE: TS BOND ANGLE DIHED IMPRP ELECT VDW BOUNDARY MISC KINETIC TOTAL TEMP POTENTIAL TOTAL3 TEMPAVG PRESSURE GPRESSURE VOLUME PRESSAVG GPRESSAVG
ENERGY: 300000 0.7446 1.1923 0.1072 0.0000 -14329.6031 2529.4393 0.0000 0.0000 537.0527 -11261.0670 90.0407 -11798.1197 -11260.0445 90.0407 917.6596 956.3987 28635.8496 917.6596 956.3987
ENERGY: 400000 0.0107 0.6637 0.0999 0.0000 -14034.0544 2371.5103 0.0000 0.0000 704.8039 -10956.9659 118.1654 -11661.7698 -10955.3053 119.8977 -95.0290 -36.7389 29212.3489 3.4469 3.4839
TCL: Running 100000 steps at 150 kelvin.
TCL: Setting parameter langevinTemp to 150
TCL: Running for 100000 steps
ETITLE: TS BOND ANGLE DIHED IMPRP ELECT VDW BOUNDARY MISC KINETIC TOTAL TEMP POTENTIAL TOTAL3 TEMPAVG PRESSURE GPRESSURE VOLUME PRESSAVG GPRESSAVG
ENERGY: 400000 0.0107 0.6637 0.0999 0.0000 -14034.0544 2371.5103 0.0000 0.0000 704.4566 -10957.3132 118.1072 -11661.7698 -10955.7662 118.1072 -101.1126 -37.1290 29212.3489 -101.1126 -37.1290
ENERGY: 500000 0.2309 1.4714 0.5442 0.0000 -13895.0947 2370.6396 0.0000 0.0000 886.1567 -10636.0519 148.5705 -11522.2086 -10634.6492 150.0925 501.9333 564.8577 29274.4668 5.0041 5.1085
TCL: Running 100000 steps at 180 kelvin.
TCL: Setting parameter langevinTemp to 180
TCL: Running for 100000 steps
ETITLE: TS BOND ANGLE DIHED IMPRP ELECT VDW BOUNDARY MISC KINETIC TOTAL TEMP POTENTIAL TOTAL3 TEMPAVG PRESSURE GPRESSURE VOLUME PRESSAVG GPRESSAVG
ENERGY: 500000 0.2309 1.4714 0.5442 0.0000 -13895.0947 2370.6396 0.0000 0.0000 885.7028 -10636.5058 148.4944 -11522.2086 -10634.4193 148.4944 514.7958 563.4423 29274.4668 514.7958 563.4423
ENERGY: 600000 0.0825 2.7106 0.2015 0.0000 -13374.8393 2190.9089 0.0000 0.0000 1084.5053 -10096.4306 181.8250 -11180.9358 -10094.2560 179.8472 348.4489 387.9770 29233.6108 3.3476 3.1645
TCL: Running 100000 steps at 210 kelvin.
TCL: Setting parameter langevinTemp to 210
TCL: Running for 100000 steps
ETITLE: TS BOND ANGLE DIHED IMPRP ELECT VDW BOUNDARY MISC KINETIC TOTAL TEMP POTENTIAL TOTAL3 TEMPAVG PRESSURE GPRESSURE VOLUME PRESSAVG GPRESSAVG
ENERGY: 600000 0.0825 2.7106 0.2015 0.0000 -13374.8393 2190.9089 0.0000 0.0000 1083.9772 -10096.9587 181.7365 -11180.9359 -10095.1109 181.7365 332.5334 388.2798 29233.6108 332.5334 388.2798
ENERGY: 700000 0.1132 3.5750 0.0389 0.0000 -12712.7953 1947.6254 0.0000 0.0000 1245.8800 -9515.5627 208.8807 -10761.4427 -9512.3300 210.0479 -270.4615 -204.8530 29525.1663 3.5201 3.6516
TCL: Running 100000 steps at 240 kelvin.
TCL: Setting parameter langevinTemp to 240
TCL: Running for 100000 steps
ETITLE: TS BOND ANGLE DIHED IMPRP ELECT VDW BOUNDARY MISC KINETIC TOTAL TEMP POTENTIAL TOTAL3 TEMPAVG PRESSURE GPRESSURE VOLUME PRESSAVG GPRESSAVG
ENERGY: 700000 0.1132 3.5750 0.0389 0.0000 -12712.7953 1947.6254 0.0000 0.0000 1245.2514 -9516.1913 208.7753 -10761.4427 -9514.3467 208.7753 -269.6114 -204.5361 29525.1663 -269.6114 -204.5361
ENERGY: 800000 0.9518 3.2837 0.8424 0.0000 -12076.9722 1781.0597 0.0000 0.0000 1407.6232 -8883.2115 235.9981 -10290.8347 -8879.8017 239.8641 397.4901 482.1146 28971.4130 3.1967 2.8501
TCL: Running 100000 steps at 270 kelvin.
TCL: Setting parameter langevinTemp to 270
TCL: Running for 100000 steps
ETITLE: TS BOND ANGLE DIHED IMPRP ELECT VDW BOUNDARY MISC KINETIC TOTAL TEMP POTENTIAL TOTAL3 TEMPAVG PRESSURE GPRESSURE VOLUME PRESSAVG GPRESSAVG
ENERGY: 800000 0.9518 3.2837 0.8424 0.0000 -12076.9722 1781.0597 0.0000 0.0000 1406.9052 -8883.9296 235.8777 -10290.8347 -8881.1199 235.8777 402.7484 481.9272 28971.4130 402.7484 481.9272
ENERGY: 900000 0.5804 8.2315 0.3714 0.0000 -11449.3219 1556.4741 0.0000 0.0000 1632.0453 -8251.6192 273.6240 -9883.6645 -8248.1204 270.0033 -422.7145 -280.8651 30042.6750 3.6016 3.5886
TCL: Running 1000000 steps at 300 kelvin.
TCL: Setting parameter langevinTemp to 300
TCL: Running for 1000000 steps
ETITLE: TS BOND ANGLE DIHED IMPRP ELECT VDW BOUNDARY MISC KINETIC TOTAL TEMP POTENTIAL TOTAL3 TEMPAVG PRESSURE GPRESSURE VOLUME PRESSAVG GPRESSAVG
ENERGY: 900000 0.5804 8.2315 0.3714 0.0000 -11449.3219 1556.4741 0.0000 0.0000 1631.2381 -8252.4264 273.4887 -9883.6645 -8250.1371 273.4887 -356.1028 -281.6562 30042.6750 -356.1028 -281.6562
ENERGY: 1100000 0.3881 4.5369 0.7168 0.0000 -10758.6505 1407.8613 0.0000 0.0000 1737.3931 -7607.7543 291.2864 -9345.1474 -7604.7284 299.9900 -383.3170 -363.9837 31238.4838 2.2410 2.1940
ENERGY: 1300000 0.1232 4.4665 0.1581 0.0000 -10860.2787 1400.2906 0.0000 0.0000 1845.9891 -7609.2512 309.4932 -9455.2403 -7605.4585 300.5800 -589.0572 -479.8589 30868.7008 2.6529 2.6993
ENERGY: 1500000 1.2993 4.8606 0.1298 0.0000 -10907.4468 1442.6990 0.0000 0.0000 1829.5224 -7628.9357 306.7325 -9458.4581 -7623.5164 300.4308 -89.9203 -102.8325 30442.6377 3.6772 3.6754
ENERGY: 1700000 1.0566 3.0251 0.5383 0.0000 -10833.1043 1419.5749 0.0000 0.0000 1835.7773 -7573.1321 307.7812 -9408.9094 -7570.3753 300.5853 -431.3695 -348.6993 31331.8752 2.0941 2.0701
ENERGY: 1900000 1.4456 5.2004 0.1315 0.0000 -10791.7437 1316.9633 0.0000 0.0000 1787.9110 -7680.0920 299.7560 -9468.0029 -7675.8593 299.5109 -1321.6581 -1274.4503 31336.1754 2.4809 2.6633
TCL: Exiting due to exit command.
