Info: SIMULATION PARAMETERS:
Info: TIMESTEP               2
Info: NUMBER OF STEPS        0
Info: STEPS PER CYCLE        10
Info: PERIODIC CELL BASIS 1  34.207 0 0
Info: PERIODIC CELL BASIS 2  0 35.411 0
Info: PERIODIC CELL BASIS 3  0 0 36.488
Info: PERIODIC CELL CENTER   0 0 0
Info: WRAPPING WATERS AROUND PERIODIC BOUNDARIES ON OUTPUT.
Info: WRAPPING ALL CLUSTERS AROUND PERIODIC BOUNDARIES ON OUTPUT.
Info: FIRST LDB TIMESTEP     50
Info: LAST LDB TIMESTEP     -1
Info: HOM BACKGROUND SCALING 1
Info: PME BACKGROUND SCALING 1
Info: MIN ATOMS PER PATCH    40
Info: EMPTY PATCH LOAD       40 ATOMS
Info: INITIAL TEMPERATURE    300
Info: CENTER OF MASS MOVING INITIALLY? NO
Info: DIELECTRIC             1
Info: EXCLUDE                SCALED ONE-FOUR
Info: 1-4 ELECTROSTATICS SCALED BY 0.833333
Info: MODIFIED 1-4 VDW PARAMETERS WILL BE USED
Info: DCD FILENAME           mobley_3709920_equil.dcd
Info: DCD FREQUENCY          100000
Info: DCD FIRST STEP         100000
Info: DCD FILE WILL CONTAIN UNIT CELL DATA
Info: XST FILENAME           mobley_3709920_equil.xst
Info: XST FREQUENCY          100000
Info: NO VELOCITY DCD OUTPUT
Info: NO FORCE DCD OUTPUT
Info: OUTPUT FILENAME        mobley_3709920_equil
Info: BINARY OUTPUT FILES WILL BE USED
Info: RESTART FILENAME       mobley_3709920_equil.restart
Info: RESTART FREQUENCY      100000
Info: BINARY RESTART FILES WILL BE USED
Info: CUTOFF                 9
Info: PAIRLIST DISTANCE      11
Info: PAIRLIST SHRINK RATE   0.01
Info: PAIRLIST GROW RATE     0.01
Info: PAIRLIST TRIGGER       0.3
Info: PAIRLISTS PER CYCLE    2
Info: PAIRLISTS ENABLED
Info: MARGIN                 8
Info: HYDROGEN GROUP CUTOFF  2.5
Info: PATCH DIMENSION        21.5
Info: ENERGY OUTPUT STEPS    100000
Info: ENERGY EVALUATION STEPS    100000
Info: OUTPUT ENERGY PRECISION 4
Info: CROSSTERM ENERGY INCLUDED IN DIHEDRAL
Info: TIMING OUTPUT STEPS    1000000
Info: PRESSURE OUTPUT STEPS  100000
Info: LANGEVIN DYNAMICS ACTIVE
Info: LANGEVIN TEMPERATURE   30
Info: LANGEVIN USING BBK INTEGRATOR
Info: LANGEVIN DAMPING COEFFICIENT IS 1 INVERSE PS
Info: LANGEVIN DYNAMICS APPLIED TO HYDROGENS
Info: LANGEVIN PISTON PRESSURE CONTROL ACTIVE
Info:        TARGET PRESSURE IS 1.01325 BAR
Info:     OSCILLATION PERIOD IS 50 FS
Info:             DECAY TIME IS 25 FS
Info:     PISTON TEMPERATURE IS 300 K
Info:       PRESSURE CONTROL IS GROUP-BASED
Info:    INITIAL STRAIN RATE IS 0 0 0
Info:       CELL FLUCTUATION IS ISOTROPIC
Info: PARTICLE MESH EWALD (PME) ACTIVE
Info: PME TOLERANCE               1e-06
Info: PME EWALD COEFFICIENT       0.348832
Info: PME INTERPOLATION ORDER     4
Info: PME GRID DIMENSIONS         36 36 40
Info: PME MAXIMUM GRID SPACING    1
Info: FULL ELECTROSTATIC EVALUATION FREQUENCY      2
Info: USING VERLET I (r-RESPA) MTS SCHEME.
Info: C1 SPLITTING OF LONG RANGE ELECTROSTATICS
Info: PLACING ATOMS IN PATCHES BY HYDROGEN GROUPS
Info: RIGID BONDS TO HYDROGEN : ALL
Info:         ERROR TOLERANCE : 1e-08
Info:          MAX ITERATIONS : 100
Info: RIGID WATER USING SETTLE ALGORITHM
Info: RANDOM NUMBER SEED     1743261642
Info: USE HYDROGEN BONDS?    NO
Info: Using AMBER format force field!
Info: AMBER PARM FILE        mobley_3709920.prmtop
Info: COORDINATE PDB         mobley_3709920.pdb
Info: Exclusions will be read from PARM file!
Info: SCNB (VDW SCALING)     2
Info: USING ARITHMETIC MEAN TO COMBINE L-J SIGMA PARAMETERS
Info: BINARY COORDINATES     mobley_3709920_min.coor
Info: SUMMARY OF PARAMETERS:
Info: 7 BONDS
Info: 9 ANGLES
Info:   9 HARMONIC
Info:   0 COSINE-BASED
Info: 11 DIHEDRAL
Info: 0 IMPROPER
Info: 0 CROSSTERM
Info: 0 VDW
Info: 21 VDW_PAIRS
Info: 0 NBTHOLE_PAIRS
Info: STRUCTURE SUMMARY:
Info: 2994 ATOMS
Info: 2993 BONDS
Info: 48 ANGLES
Info: 78 DIHEDRALS
Info: 0 IMPROPERS
Info: 0 CROSSTERMS
Info: 3105 EXCLUSIONS
Info: 2985 RIGID BONDS
Info: 5997 DEGREES OF FREEDOM
Info: 998 HYDROGEN GROUPS
Info: 4 ATOMS IN LARGEST HYDROGEN GROUP
Info: 998 MIGRATION GROUPS
Info: 4 ATOMS IN LARGEST MIGRATION GROUP
Info: TOTAL MASS = 17944.1 amu
Info: TOTAL CHARGE = -0.000100017 e
Info: MASS DENSITY = 0.674181 g/cm^3
Info: ATOM DENSITY = 0.0677405 atoms/A^3
Info: ADDED 0 IMPLICIT EXCLUSIONS
Info: NONBONDED TABLE R-SQUARED SPACING: 0.0625
Info: NONBONDED TABLE SIZE: 705 POINTS
Info: REMOVING COM VELOCITY 0.0669094 -0.0186473 0.0922099
TCL: Running for 100000 steps
ETITLE: TS BOND ANGLE DIHED IMPRP ELECT VDW BOUNDARY MISC KINETIC TOTAL TEMP POTENTIAL TOTAL3 TEMPAVG PRESSURE GPRESSURE VOLUME PRESSAVG GPRESSAVG
ENERGY: 0 0.1071 0.3305 4.6042 0.0000 -13782.2816 2412.7994 0.0000 0.0000 1701.2194 -9663.2211 285.5069 -11364.4405 -9662.8736 285.5069 454.3267 490.5408 44198.0632 454.3267 490.5408
ENERGY: 100000 0.3367 1.3786 4.5962 0.0000 -14358.8127 2518.6041 0.0000 0.0000 184.4272 -11649.4699 30.9515 -11833.8971 -11649.1005 30.9569 276.0063 332.3561 29378.2795 4.2359 4.1745
TCL: Running 100000 steps at 60 kelvin.
TCL: Setting parameter langevinTemp to 60
TCL: Running for 100000 steps
ETITLE: TS BOND ANGLE DIHED IMPRP ELECT VDW BOUNDARY MISC KINETIC TOTAL TEMP POTENTIAL TOTAL3 TEMPAVG PRESSURE GPRESSURE VOLUME PRESSAVG GPRESSAVG
ENERGY: 100000 0.3367 1.3786 4.5962 0.0000 -14358.8127 2518.6041 0.0000 0.0000 184.3370 -11649.5601 30.9363 -11833.8971 -11649.1928 30.9363 277.5592 332.1125 29378.2795 277.5592 332.1125
ENERGY: 200000 0.6675 3.0427 5.3078 0.0000 -14289.2598 2493.8164 0.0000 0.0000 360.7957 -11425.6297 60.5505 -11786.4254 -11424.5839 60.0455 311.4909 359.8549 29165.7124 3.6214 3.6665
TCL: Running 100000 steps at 90 kelvin.
TCL: Setting parameter langevinTemp to 90
TCL: Running for 100000 steps
ETITLE: TS BOND ANGLE DIHED IMPRP ELECT VDW BOUNDARY MISC KINETIC TOTAL TEMP POTENTIAL TOTAL3 TEMPAVG PRESSURE GPRESSURE VOLUME PRESSAVG GPRESSAVG
ENERGY: 200000 0.6675 3.0427 5.3078 0.0000 -14289.2598 2493.8164 0.0000 0.0000 360.6188 -11425.8066 60.5208 -11786.4254 -11424.9211 60.5208 311.6903 360.0478 29165.7124 311.6903 360.0478
ENERGY: 300000 0.8144 3.8347 5.1807 0.0000 -14008.0255 2320.0924 0.0000 0.0000 538.9279 -11139.1754 90.4455 -11678.1033 -11137.7856 89.9568 -675.3514 -627.9170 29371.5551 4.7413 4.7427
TCL: Running 100000 steps at 120 kelvin.
TCL: Setting parameter langevinTemp to 120
TCL: Running for 100000 steps
ETITLE: TS BOND ANGLE DIHED IMPRP ELECT VDW BOUNDARY MISC KINETIC TOTAL TEMP POTENTIAL TOTAL3 TEMPAVG PRESSURE GPRESSURE VOLUME PRESSAVG GPRESSAVG
ENERGY: 300000 0.8144 3.8347 5.1807 0.0000 -14008.0255 2320.0924 0.0000 0.0000 538.6703 -11139.4330 90.4023 -11678.1033 -11138.0792 90.4023 -659.0339 -627.7032 29371.5551 -659.0339 -627.7032
ENERGY: 400000 0.7512 4.8953 5.9210 0.0000 -13848.9004 2349.1296 0.0000 0.0000 720.3917 -10767.8115 120.8996 -11488.2032 -10766.4212 120.1843 412.2719 418.2847 29220.7488 4.5042 4.4259
TCL: Running 100000 steps at 150 kelvin.
TCL: Setting parameter langevinTemp to 150
TCL: Running for 100000 steps
ETITLE: TS BOND ANGLE DIHED IMPRP ELECT VDW BOUNDARY MISC KINETIC TOTAL TEMP POTENTIAL TOTAL3 TEMPAVG PRESSURE GPRESSURE VOLUME PRESSAVG GPRESSAVG
ENERGY: 400000 0.7512 4.8953 5.9210 0.0000 -13848.9004 2349.1296 0.0000 0.0000 720.0267 -10768.1764 120.8384 -11488.2032 -10766.7758 120.8384 378.6778 417.8312 29220.7488 378.6778 417.8312
ENERGY: 500000 3.4061 7.0393 5.7416 0.0000 -13571.2321 2187.2633 0.0000 0.0000 909.5458 -10458.2359 152.6444 -11367.7817 -10455.1544 149.9352 -642.3452 -597.8438 29377.6955 3.9811 4.0173
TCL: Running 100000 steps at 180 kelvin.
TCL: Setting parameter langevinTemp to 180
TCL: Running for 100000 steps
ETITLE: TS BOND ANGLE DIHED IMPRP ELECT VDW BOUNDARY MISC KINETIC TOTAL TEMP POTENTIAL TOTAL3 TEMPAVG PRESSURE GPRESSURE VOLUME PRESSAVG GPRESSAVG
ENERGY: 500000 3.4061 7.0393 5.7416 0.0000 -13571.2321 2187.2633 0.0000 0.0000 909.1052 -10458.6765 152.5705 -11367.7817 -10457.0260 152.5705 -655.6020 -597.0844 29377.6955 -655.6020 -597.0844
ENERGY: 600000 2.4524 5.0613 6.8049 0.0000 -13287.0626 2188.5965 0.0000 0.0000 1092.4971 -9991.6504 183.3482 -11084.1475 -9988.6676 179.9735 461.4835 525.7821 29013.5587 4.3470 4.3636
TCL: Running 100000 steps at 210 kelvin.
TCL: Setting parameter langevinTemp to 210
TCL: Running for 100000 steps
ETITLE: TS BOND ANGLE DIHED IMPRP ELECT VDW BOUNDARY MISC KINETIC TOTAL TEMP POTENTIAL TOTAL3 TEMPAVG PRESSURE GPRESSURE VOLUME PRESSAVG GPRESSAVG
ENERGY: 600000 2.4524 5.0613 6.8049 0.0000 -13287.0626 2188.5965 0.0000 0.0000 1091.9654 -9992.1821 183.2590 -11084.1475 -9990.0267 183.2590 457.6691 525.9583 29013.5587 457.6691 525.9583
ENERGY: 700000 2.1739 9.7242 7.8594 0.0000 -12548.3156 1947.7906 0.0000 0.0000 1265.3064 -9315.4611 212.3499 -10580.7675 -9313.8395 209.8231 363.1494 436.0661 29209.2789 4.7854 4.8222
TCL: Running 100000 steps at 240 kelvin.
TCL: Setting parameter langevinTemp to 240
TCL: Running for 100000 steps
ETITLE: TS BOND ANGLE DIHED IMPRP ELECT VDW BOUNDARY MISC KINETIC TOTAL TEMP POTENTIAL TOTAL3 TEMPAVG PRESSURE GPRESSURE VOLUME PRESSAVG GPRESSAVG
ENERGY: 700000 2.1739 9.7242 7.8594 0.0000 -12548.3156 1947.7906 0.0000 0.0000 1264.6782 -9316.0893 212.2445 -10580.7675 -9314.1912 212.2445 358.0257 435.4584 29209.2789 358.0257 435.4584
ENERGY: 800000 1.6877 7.8656 8.4450 0.0000 -12053.6322 1859.3095 0.0000 0.0000 1459.1408 -8717.1836 244.8801 -10176.3244 -8713.3386 240.2096 1023.0713 1094.0661 29350.0909 3.9065 3.8832
TCL: Running 100000 steps at 270 kelvin.
TCL: Setting parameter langevinTemp to 270
TCL: Running for 100000 steps
ETITLE: TS BOND ANGLE DIHED IMPRP ELECT VDW BOUNDARY MISC KINETIC TOTAL TEMP POTENTIAL TOTAL3 TEMPAVG PRESSURE GPRESSURE VOLUME PRESSAVG GPRESSAVG
ENERGY: 800000 1.6877 7.8656 8.4450 0.0000 -12053.6322 1859.3095 0.0000 0.0000 1458.4417 -8717.8827 244.7628 -10176.3244 -8715.0836 244.7628 1034.7403 1096.1438 29350.0909 1034.7403 1096.1438
ENERGY: 900000 2.0197 8.3710 6.1562 0.0000 -11212.0241 1475.1685 0.0000 0.0000 1560.6665 -8159.6421 261.9187 -9720.3086 -8154.6047 269.8619 -595.5333 -491.1202 29771.0238 3.6916 3.8184
TCL: Running 1000000 steps at 300 kelvin.
TCL: Setting parameter langevinTemp to 300
TCL: Running for 1000000 steps
ETITLE: TS BOND ANGLE DIHED IMPRP ELECT VDW BOUNDARY MISC KINETIC TOTAL TEMP POTENTIAL TOTAL3 TEMPAVG PRESSURE GPRESSURE VOLUME PRESSAVG GPRESSAVG
ENERGY: 900000 2.0197 8.3710 6.1562 0.0000 -11212.0241 1475.1685 0.0000 0.0000 1559.8571 -8160.4515 261.7828 -9720.3086 -8157.7922 261.7828 -581.6974 -489.2123 29771.0238 -581.6974 -489.2123
ENERGY: 1100000 2.4963 11.0903 6.0130 0.0000 -10795.1767 1383.6489 0.0000 0.0000 1780.6717 -7611.2565 298.8410 -9391.9281 -7606.2244 300.1733 -763.4198 -692.0484 31009.7269 2.5240 2.3770
ENERGY: 1300000 2.6973 13.4379 5.5181 0.0000 -10869.2133 1441.7866 0.0000 0.0000 1799.5556 -7606.2178 302.0102 -9405.7734 -7602.3956 300.0328 -46.7208 -1.4156 30644.7944 3.8722 3.8496
ENERGY: 1500000 3.1403 9.8757 6.0862 0.0000 -10860.2134 1555.3952 0.0000 0.0000 1756.9035 -7528.8125 294.8521 -9285.7160 -7525.1122 299.5802 724.1691 844.9166 31208.7252 2.5154 2.4912
ENERGY: 1700000 4.9014 11.5209 6.3395 0.0000 -10720.1471 1413.1221 0.0000 0.0000 1787.8930 -7496.3703 300.0529 -9284.2633 -7492.7565 300.6504 -218.4865 -130.0593 31044.3609 3.3609 3.4515
ENERGY: 1900000 1.5226 10.9065 9.0305 0.0000 -10768.7837 1464.3739 0.0000 0.0000 1777.4621 -7505.4882 298.3023 -9282.9502 -7500.7801 300.5197 566.6732 582.2865 30524.0416 4.8590 4.6009
TCL: Exiting due to exit command.
