Info: SIMULATION PARAMETERS:
Info: TIMESTEP               2
Info: NUMBER OF STEPS        0
Info: STEPS PER CYCLE        10
Info: PERIODIC CELL BASIS 1  35.89 0 0
Info: PERIODIC CELL BASIS 2  0 32.158 0
Info: PERIODIC CELL BASIS 3  0 0 38.379
Info: PERIODIC CELL CENTER   0 0 0
Info: WRAPPING WATERS AROUND PERIODIC BOUNDARIES ON OUTPUT.
Info: WRAPPING ALL CLUSTERS AROUND PERIODIC BOUNDARIES ON OUTPUT.
Info: FIRST LDB TIMESTEP     50
Info: LAST LDB TIMESTEP     -1
Info: HOM BACKGROUND SCALING 1
Info: PME BACKGROUND SCALING 1
Info: MIN ATOMS PER PATCH    40
Info: EMPTY PATCH LOAD       40 ATOMS
Info: INITIAL TEMPERATURE    300
Info: CENTER OF MASS MOVING INITIALLY? NO
Info: DIELECTRIC             1
Info: EXCLUDE                SCALED ONE-FOUR
Info: 1-4 ELECTROSTATICS SCALED BY 0.833333
Info: MODIFIED 1-4 VDW PARAMETERS WILL BE USED
Info: DCD FILENAME           mobley_2341732_equil.dcd
Info: DCD FREQUENCY          100000
Info: DCD FIRST STEP         100000
Info: DCD FILE WILL CONTAIN UNIT CELL DATA
Info: XST FILENAME           mobley_2341732_equil.xst
Info: XST FREQUENCY          100000
Info: NO VELOCITY DCD OUTPUT
Info: NO FORCE DCD OUTPUT
Info: OUTPUT FILENAME        mobley_2341732_equil
Info: BINARY OUTPUT FILES WILL BE USED
Info: RESTART FILENAME       mobley_2341732_equil.restart
Info: RESTART FREQUENCY      100000
Info: BINARY RESTART FILES WILL BE USED
Info: CUTOFF                 9
Info: PAIRLIST DISTANCE      11
Info: PAIRLIST SHRINK RATE   0.01
Info: PAIRLIST GROW RATE     0.01
Info: PAIRLIST TRIGGER       0.3
Info: PAIRLISTS PER CYCLE    2
Info: PAIRLISTS ENABLED
Info: MARGIN                 8
Info: HYDROGEN GROUP CUTOFF  2.5
Info: PATCH DIMENSION        21.5
Info: ENERGY OUTPUT STEPS    100000
Info: ENERGY EVALUATION STEPS    100000
Info: OUTPUT ENERGY PRECISION 4
Info: CROSSTERM ENERGY INCLUDED IN DIHEDRAL
Info: TIMING OUTPUT STEPS    1000000
Info: PRESSURE OUTPUT STEPS  100000
Info: LANGEVIN DYNAMICS ACTIVE
Info: LANGEVIN TEMPERATURE   30
Info: LANGEVIN USING BBK INTEGRATOR
Info: LANGEVIN DAMPING COEFFICIENT IS 1 INVERSE PS
Info: LANGEVIN DYNAMICS APPLIED TO HYDROGENS
Info: LANGEVIN PISTON PRESSURE CONTROL ACTIVE
Info:        TARGET PRESSURE IS 1.01325 BAR
Info:     OSCILLATION PERIOD IS 50 FS
Info:             DECAY TIME IS 25 FS
Info:     PISTON TEMPERATURE IS 300 K
Info:       PRESSURE CONTROL IS GROUP-BASED
Info:    INITIAL STRAIN RATE IS 0 0 0
Info:       CELL FLUCTUATION IS ISOTROPIC
Info: PARTICLE MESH EWALD (PME) ACTIVE
Info: PME TOLERANCE               1e-06
Info: PME EWALD COEFFICIENT       0.348832
Info: PME INTERPOLATION ORDER     4
Info: PME GRID DIMENSIONS         36 36 40
Info: PME MAXIMUM GRID SPACING    1
Info: FULL ELECTROSTATIC EVALUATION FREQUENCY      2
Info: USING VERLET I (r-RESPA) MTS SCHEME.
Info: C1 SPLITTING OF LONG RANGE ELECTROSTATICS
Info: PLACING ATOMS IN PATCHES BY HYDROGEN GROUPS
Info: RIGID BONDS TO HYDROGEN : ALL
Info:         ERROR TOLERANCE : 1e-08
Info:          MAX ITERATIONS : 100
Info: RIGID WATER USING SETTLE ALGORITHM
Info: RANDOM NUMBER SEED     1743250265
Info: USE HYDROGEN BONDS?    NO
Info: Using AMBER format force field!
Info: AMBER PARM FILE        mobley_2341732.prmtop
Info: COORDINATE PDB         mobley_2341732.pdb
Info: Exclusions will be read from PARM file!
Info: SCNB (VDW SCALING)     2
Info: USING ARITHMETIC MEAN TO COMBINE L-J SIGMA PARAMETERS
Info: BINARY COORDINATES     mobley_2341732_min.coor
Info: SUMMARY OF PARAMETERS:
Info: 9 BONDS
Info: 11 ANGLES
Info:   11 HARMONIC
Info:   0 COSINE-BASED
Info: 16 DIHEDRAL
Info: 0 IMPROPER
Info: 0 CROSSTERM
Info: 0 VDW
Info: 36 VDW_PAIRS
Info: 0 NBTHOLE_PAIRS
Info: STRUCTURE SUMMARY:
Info: 2960 ATOMS
Info: 2959 BONDS
Info: 34 ANGLES
Info: 48 DIHEDRALS
Info: 0 IMPROPERS
Info: 0 CROSSTERMS
Info: 3031 EXCLUSIONS
Info: 2952 RIGID BONDS
Info: 5928 DEGREES OF FREEDOM
Info: 988 HYDROGEN GROUPS
Info: 4 ATOMS IN LARGEST HYDROGEN GROUP
Info: 988 MIGRATION GROUPS
Info: 4 ATOMS IN LARGEST MIGRATION GROUP
Info: TOTAL MASS = 17771.8 amu
Info: TOTAL CHARGE = -9.99682e-05 e
Info: MASS DENSITY = 0.666247 g/cm^3
Info: ATOM DENSITY = 0.0668245 atoms/A^3
Info: ADDED 0 IMPLICIT EXCLUSIONS
Info: NONBONDED TABLE R-SQUARED SPACING: 0.0625
Info: NONBONDED TABLE SIZE: 705 POINTS
Info: REMOVING COM VELOCITY 0.122674 0.0586058 0.0571521
TCL: Running for 100000 steps
ETITLE: TS BOND ANGLE DIHED IMPRP ELECT VDW BOUNDARY MISC KINETIC TOTAL TEMP POTENTIAL TOTAL3 TEMPAVG PRESSURE GPRESSURE VOLUME PRESSAVG GPRESSAVG
ENERGY: 0 0.1489 0.3497 1.1824 0.0000 -13718.3310 2414.9837 0.0000 0.0000 1734.2945 -9567.3718 294.4456 -11301.6663 -9567.0541 294.4456 427.6589 465.9711 44295.1466 427.6589 465.9711
ENERGY: 100000 0.1530 1.3846 1.4437 0.0000 -14411.5601 2606.3617 0.0000 0.0000 179.9157 -11622.3014 30.5458 -11802.2171 -11621.7126 30.9045 1078.7906 1115.1369 28513.4660 2.6024 2.6164
TCL: Running 100000 steps at 60 kelvin.
TCL: Setting parameter langevinTemp to 60
TCL: Running for 100000 steps
ETITLE: TS BOND ANGLE DIHED IMPRP ELECT VDW BOUNDARY MISC KINETIC TOTAL TEMP POTENTIAL TOTAL3 TEMPAVG PRESSURE GPRESSURE VOLUME PRESSAVG GPRESSAVG
ENERGY: 100000 0.1530 1.3846 1.4437 0.0000 -14411.5601 2606.3617 0.0000 0.0000 179.8282 -11622.3889 30.5309 -11802.2171 -11622.0471 30.5309 1073.6601 1115.0702 28513.4660 1073.6601 1115.0702
ENERGY: 200000 0.5490 2.9952 2.2124 0.0000 -14140.1971 2393.1823 0.0000 0.0000 352.8993 -11388.3589 59.9146 -11741.2582 -11387.0364 59.9428 -569.8791 -528.6969 28783.4085 4.2283 4.2022
TCL: Running 100000 steps at 90 kelvin.
TCL: Setting parameter langevinTemp to 90
TCL: Running for 100000 steps
ETITLE: TS BOND ANGLE DIHED IMPRP ELECT VDW BOUNDARY MISC KINETIC TOTAL TEMP POTENTIAL TOTAL3 TEMPAVG PRESSURE GPRESSURE VOLUME PRESSAVG GPRESSAVG
ENERGY: 200000 0.5490 2.9952 2.2124 0.0000 -14140.1971 2393.1823 0.0000 0.0000 352.7235 -11388.5347 59.8848 -11741.2582 -11387.6909 59.8848 -574.8965 -528.8023 28783.4085 -574.8965 -528.8023
ENERGY: 300000 1.0097 2.1235 2.9859 0.0000 -14026.0633 2419.5229 0.0000 0.0000 521.3088 -11079.1125 88.5069 -11600.4214 -11077.9801 89.9011 146.2564 206.0897 28806.3474 3.8994 3.9480
TCL: Running 100000 steps at 120 kelvin.
TCL: Setting parameter langevinTemp to 120
TCL: Running for 100000 steps
ETITLE: TS BOND ANGLE DIHED IMPRP ELECT VDW BOUNDARY MISC KINETIC TOTAL TEMP POTENTIAL TOTAL3 TEMPAVG PRESSURE GPRESSURE VOLUME PRESSAVG GPRESSAVG
ENERGY: 300000 1.0097 2.1235 2.9859 0.0000 -14026.0633 2419.5229 0.0000 0.0000 521.0345 -11079.3869 88.4603 -11600.4214 -11078.5717 88.4603 158.6606 206.0794 28806.3474 158.6606 206.0794
ENERGY: 400000 0.9249 3.9540 2.5224 0.0000 -13806.7858 2335.7888 0.0000 0.0000 707.7761 -10755.8195 120.1650 -11463.5957 -10753.8754 120.0295 -30.2647 30.9275 28985.2085 3.9842 3.8995
TCL: Running 100000 steps at 150 kelvin.
TCL: Setting parameter langevinTemp to 150
TCL: Running for 100000 steps
ETITLE: TS BOND ANGLE DIHED IMPRP ELECT VDW BOUNDARY MISC KINETIC TOTAL TEMP POTENTIAL TOTAL3 TEMPAVG PRESSURE GPRESSURE VOLUME PRESSAVG GPRESSAVG
ENERGY: 400000 0.9249 3.9540 2.5224 0.0000 -13806.7858 2335.7888 0.0000 0.0000 707.4170 -10756.1786 120.1041 -11463.5957 -10754.8775 120.1041 -10.9597 30.6674 28985.2085 -10.9597 30.6674
ENERGY: 500000 1.2142 5.7535 3.0438 0.0000 -13738.1672 2411.8140 0.0000 0.0000 892.6359 -10423.7058 151.5502 -11316.3416 -10422.4751 150.0841 1216.2752 1274.4470 28843.5987 5.3896 5.4619
TCL: Running 100000 steps at 180 kelvin.
TCL: Setting parameter langevinTemp to 180
TCL: Running for 100000 steps
ETITLE: TS BOND ANGLE DIHED IMPRP ELECT VDW BOUNDARY MISC KINETIC TOTAL TEMP POTENTIAL TOTAL3 TEMPAVG PRESSURE GPRESSURE VOLUME PRESSAVG GPRESSAVG
ENERGY: 500000 1.2142 5.7535 3.0438 0.0000 -13738.1672 2411.8140 0.0000 0.0000 892.2008 -10424.1408 151.4763 -11316.3416 -10422.4501 151.4763 1227.0230 1274.7814 28843.5987 1227.0230 1274.7814
ENERGY: 600000 0.8186 5.6468 1.3878 0.0000 -13200.7493 2142.7068 0.0000 0.0000 1076.0049 -9974.1844 182.6823 -11050.1893 -9970.6814 180.2897 -29.1265 40.8378 29256.3619 3.0153 3.0143
TCL: Running 100000 steps at 210 kelvin.
TCL: Setting parameter langevinTemp to 210
TCL: Running for 100000 steps
ETITLE: TS BOND ANGLE DIHED IMPRP ELECT VDW BOUNDARY MISC KINETIC TOTAL TEMP POTENTIAL TOTAL3 TEMPAVG PRESSURE GPRESSURE VOLUME PRESSAVG GPRESSAVG
ENERGY: 600000 0.8186 5.6468 1.3878 0.0000 -13200.7493 2142.7068 0.0000 0.0000 1075.4765 -9974.7128 182.5926 -11050.1893 -9972.3440 182.5926 -17.4038 41.6691 29256.3619 -17.4038 41.6691
ENERGY: 700000 1.2092 4.6477 2.3888 0.0000 -12438.8844 1904.1365 0.0000 0.0000 1233.0517 -9293.4504 209.3454 -10526.5022 -9290.4469 209.8377 81.2426 186.7277 28634.8386 3.4487 3.2962
TCL: Running 100000 steps at 240 kelvin.
TCL: Setting parameter langevinTemp to 240
TCL: Running for 100000 steps
ETITLE: TS BOND ANGLE DIHED IMPRP ELECT VDW BOUNDARY MISC KINETIC TOTAL TEMP POTENTIAL TOTAL3 TEMPAVG PRESSURE GPRESSURE VOLUME PRESSAVG GPRESSAVG
ENERGY: 700000 1.2092 4.6477 2.3888 0.0000 -12438.8844 1904.1365 0.0000 0.0000 1232.4463 -9294.0558 209.2426 -10526.5022 -9291.9450 209.2426 110.9986 186.7580 28634.8386 110.9986 186.7580
ENERGY: 800000 1.6228 8.7990 2.4743 0.0000 -11906.4604 1733.3500 0.0000 0.0000 1401.1234 -8759.0909 237.8804 -10160.2143 -8756.2318 239.7685 22.0070 103.3378 28814.2992 4.4870 4.4961
TCL: Running 100000 steps at 270 kelvin.
TCL: Setting parameter langevinTemp to 270
TCL: Running for 100000 steps
ETITLE: TS BOND ANGLE DIHED IMPRP ELECT VDW BOUNDARY MISC KINETIC TOTAL TEMP POTENTIAL TOTAL3 TEMPAVG PRESSURE GPRESSURE VOLUME PRESSAVG GPRESSAVG
ENERGY: 800000 1.6228 8.7990 2.4743 0.0000 -11906.4604 1733.3500 0.0000 0.0000 1400.4184 -8759.7960 237.7607 -10160.2143 -8757.6451 237.7607 37.8039 103.6637 28814.2992 37.8039 103.6637
ENERGY: 900000 3.8528 6.6248 4.7529 0.0000 -11253.6997 1559.1420 0.0000 0.0000 1589.7368 -8089.5904 269.9028 -9679.3272 -8086.8014 270.3465 -166.9619 -68.1471 29655.1169 3.6283 3.6015
TCL: Running 1000000 steps at 300 kelvin.
TCL: Setting parameter langevinTemp to 300
TCL: Running for 1000000 steps
ETITLE: TS BOND ANGLE DIHED IMPRP ELECT VDW BOUNDARY MISC KINETIC TOTAL TEMP POTENTIAL TOTAL3 TEMPAVG PRESSURE GPRESSURE VOLUME PRESSAVG GPRESSAVG
ENERGY: 900000 3.8528 6.6248 4.7529 0.0000 -11253.6997 1559.1420 0.0000 0.0000 1588.9431 -8090.3841 269.7681 -9679.3272 -8087.8628 269.7681 -156.4327 -68.8081 29655.1169 -156.4327 -68.8081
ENERGY: 1100000 2.3902 5.7365 3.6936 0.0000 -10673.9609 1433.9582 0.0000 0.0000 1723.2343 -7504.9480 292.5678 -9228.1824 -7499.0769 299.9059 -106.7779 -54.2613 30764.7536 3.9707 3.7858
ENERGY: 1300000 2.7482 7.3049 3.0553 0.0000 -10726.2831 1388.3899 0.0000 0.0000 1752.8572 -7571.9275 297.5971 -9324.7847 -7569.2945 299.8125 -373.2606 -319.9736 30562.7145 2.6627 2.7886
ENERGY: 1500000 3.8783 9.0419 2.5233 0.0000 -10753.4930 1470.6110 0.0000 0.0000 1734.5954 -7532.8431 294.4967 -9267.4385 -7530.2280 299.8102 -49.5632 99.9631 30656.4629 2.9851 2.8288
ENERGY: 1700000 4.6698 9.3437 4.6243 0.0000 -10776.6436 1437.6292 0.0000 0.0000 1744.9134 -7575.4633 296.2484 -9320.3766 -7572.1857 299.9071 -409.0680 -314.7391 30425.6659 4.4063 4.1594
ENERGY: 1900000 2.6672 5.4156 2.9599 0.0000 -10717.5762 1465.7942 0.0000 0.0000 1760.5019 -7480.2374 298.8950 -9240.7393 -7478.0024 300.5690 253.4382 315.2808 30271.7883 2.3785 2.3871
TCL: Exiting due to exit command.
