Info: SIMULATION PARAMETERS:
Info: TIMESTEP               2
Info: NUMBER OF STEPS        0
Info: STEPS PER CYCLE        10
Info: PERIODIC CELL BASIS 1  35.01 0 0
Info: PERIODIC CELL BASIS 2  0 34.26 0
Info: PERIODIC CELL BASIS 3  0 0 35.723
Info: PERIODIC CELL CENTER   0 0 0
Info: WRAPPING WATERS AROUND PERIODIC BOUNDARIES ON OUTPUT.
Info: WRAPPING ALL CLUSTERS AROUND PERIODIC BOUNDARIES ON OUTPUT.
Info: FIRST LDB TIMESTEP     50
Info: LAST LDB TIMESTEP     -1
Info: HOM BACKGROUND SCALING 1
Info: PME BACKGROUND SCALING 1
Info: MIN ATOMS PER PATCH    40
Info: EMPTY PATCH LOAD       40 ATOMS
Info: INITIAL TEMPERATURE    300
Info: CENTER OF MASS MOVING INITIALLY? NO
Info: DIELECTRIC             1
Info: EXCLUDE                SCALED ONE-FOUR
Info: 1-4 ELECTROSTATICS SCALED BY 0.833333
Info: MODIFIED 1-4 VDW PARAMETERS WILL BE USED
Info: DCD FILENAME           mobley_4699732_equil.dcd
Info: DCD FREQUENCY          100000
Info: DCD FIRST STEP         100000
Info: DCD FILE WILL CONTAIN UNIT CELL DATA
Info: XST FILENAME           mobley_4699732_equil.xst
Info: XST FREQUENCY          100000
Info: NO VELOCITY DCD OUTPUT
Info: NO FORCE DCD OUTPUT
Info: OUTPUT FILENAME        mobley_4699732_equil
Info: BINARY OUTPUT FILES WILL BE USED
Info: RESTART FILENAME       mobley_4699732_equil.restart
Info: RESTART FREQUENCY      100000
Info: BINARY RESTART FILES WILL BE USED
Info: CUTOFF                 9
Info: PAIRLIST DISTANCE      11
Info: PAIRLIST SHRINK RATE   0.01
Info: PAIRLIST GROW RATE     0.01
Info: PAIRLIST TRIGGER       0.3
Info: PAIRLISTS PER CYCLE    2
Info: PAIRLISTS ENABLED
Info: MARGIN                 8
Info: HYDROGEN GROUP CUTOFF  2.5
Info: PATCH DIMENSION        21.5
Info: ENERGY OUTPUT STEPS    100000
Info: ENERGY EVALUATION STEPS    100000
Info: OUTPUT ENERGY PRECISION 4
Info: CROSSTERM ENERGY INCLUDED IN DIHEDRAL
Info: TIMING OUTPUT STEPS    1000000
Info: PRESSURE OUTPUT STEPS  100000
Info: LANGEVIN DYNAMICS ACTIVE
Info: LANGEVIN TEMPERATURE   30
Info: LANGEVIN USING BBK INTEGRATOR
Info: LANGEVIN DAMPING COEFFICIENT IS 1 INVERSE PS
Info: LANGEVIN DYNAMICS APPLIED TO HYDROGENS
Info: LANGEVIN PISTON PRESSURE CONTROL ACTIVE
Info:        TARGET PRESSURE IS 1.01325 BAR
Info:     OSCILLATION PERIOD IS 50 FS
Info:             DECAY TIME IS 25 FS
Info:     PISTON TEMPERATURE IS 300 K
Info:       PRESSURE CONTROL IS GROUP-BASED
Info:    INITIAL STRAIN RATE IS 0 0 0
Info:       CELL FLUCTUATION IS ISOTROPIC
Info: PARTICLE MESH EWALD (PME) ACTIVE
Info: PME TOLERANCE               1e-06
Info: PME EWALD COEFFICIENT       0.348832
Info: PME INTERPOLATION ORDER     4
Info: PME GRID DIMENSIONS         36 36 36
Info: PME MAXIMUM GRID SPACING    1
Info: FULL ELECTROSTATIC EVALUATION FREQUENCY      2
Info: USING VERLET I (r-RESPA) MTS SCHEME.
Info: C1 SPLITTING OF LONG RANGE ELECTROSTATICS
Info: PLACING ATOMS IN PATCHES BY HYDROGEN GROUPS
Info: RIGID BONDS TO HYDROGEN : ALL
Info:         ERROR TOLERANCE : 1e-08
Info:          MAX ITERATIONS : 100
Info: RIGID WATER USING SETTLE ALGORITHM
Info: RANDOM NUMBER SEED     1743225040
Info: USE HYDROGEN BONDS?    NO
Info: Using AMBER format force field!
Info: AMBER PARM FILE        mobley_4699732.prmtop
Info: COORDINATE PDB         mobley_4699732.pdb
Info: Exclusions will be read from PARM file!
Info: SCNB (VDW SCALING)     2
Info: USING ARITHMETIC MEAN TO COMBINE L-J SIGMA PARAMETERS
Info: BINARY COORDINATES     mobley_4699732_min.coor
Info: SUMMARY OF PARAMETERS:
Info: 6 BONDS
Info: 7 ANGLES
Info:   7 HARMONIC
Info:   0 COSINE-BASED
Info: 5 DIHEDRAL
Info: 0 IMPROPER
Info: 0 CROSSTERM
Info: 0 VDW
Info: 21 VDW_PAIRS
Info: 0 NBTHOLE_PAIRS
Info: STRUCTURE SUMMARY:
Info: 2909 ATOMS
Info: 2908 BONDS
Info: 18 ANGLES
Info: 25 DIHEDRALS
Info: 0 IMPROPERS
Info: 0 CROSSTERMS
Info: 2944 EXCLUSIONS
Info: 2904 RIGID BONDS
Info: 5823 DEGREES OF FREEDOM
Info: 971 HYDROGEN GROUPS
Info: 4 ATOMS IN LARGEST HYDROGEN GROUP
Info: 971 MIGRATION GROUPS
Info: 4 ATOMS IN LARGEST MIGRATION GROUP
Info: TOTAL MASS = 17516.4 amu
Info: TOTAL CHARGE = -9.99905e-05 e
Info: MASS DENSITY = 0.678856 g/cm^3
Info: ATOM DENSITY = 0.0678916 atoms/A^3
Info: ADDED 0 IMPLICIT EXCLUSIONS
Info: NONBONDED TABLE R-SQUARED SPACING: 0.0625
Info: NONBONDED TABLE SIZE: 705 POINTS
Info: REMOVING COM VELOCITY 0.0358953 0.00329788 0.209699
TCL: Running for 100000 steps
ETITLE: TS BOND ANGLE DIHED IMPRP ELECT VDW BOUNDARY MISC KINETIC TOTAL TEMP POTENTIAL TOTAL3 TEMPAVG PRESSURE GPRESSURE VOLUME PRESSAVG GPRESSAVG
ENERGY: 0 0.0599 0.3440 1.4204 0.0000 -13440.6381 2317.2685 0.0000 0.0000 1770.2864 -9351.2589 305.9758 -11121.5454 -9350.8955 305.9758 121.8529 170.7567 42847.6880 121.8529 170.7567
ENERGY: 100000 0.2281 0.6603 1.5478 0.0000 -13958.1025 2400.8435 0.0000 0.0000 178.5983 -11376.2245 30.8689 -11554.8228 -11375.6273 30.8891 -295.3769 -213.4730 28952.2032 3.4102 3.4577
TCL: Running 100000 steps at 60 kelvin.
TCL: Setting parameter langevinTemp to 60
TCL: Running for 100000 steps
ETITLE: TS BOND ANGLE DIHED IMPRP ELECT VDW BOUNDARY MISC KINETIC TOTAL TEMP POTENTIAL TOTAL3 TEMPAVG PRESSURE GPRESSURE VOLUME PRESSAVG GPRESSAVG
ENERGY: 100000 0.2281 0.6603 1.5478 0.0000 -13958.1025 2400.8435 0.0000 0.0000 178.5102 -11376.3126 30.8537 -11554.8228 -11375.9463 30.8537 -270.3597 -213.3571 28952.2032 -270.3597 -213.3571
ENERGY: 200000 0.3938 1.1327 1.5324 0.0000 -13928.5506 2407.0419 0.0000 0.0000 344.4943 -11173.9555 59.5423 -11518.4497 -11173.4436 59.9060 141.5401 182.8221 28501.0614 3.2072 3.2154
TCL: Running 100000 steps at 90 kelvin.
TCL: Setting parameter langevinTemp to 90
TCL: Running for 100000 steps
ETITLE: TS BOND ANGLE DIHED IMPRP ELECT VDW BOUNDARY MISC KINETIC TOTAL TEMP POTENTIAL TOTAL3 TEMPAVG PRESSURE GPRESSURE VOLUME PRESSAVG GPRESSAVG
ENERGY: 200000 0.3938 1.1327 1.5324 0.0000 -13928.5506 2407.0419 0.0000 0.0000 344.3285 -11174.1212 59.5137 -11518.4497 -11173.3335 59.5137 133.3211 182.1761 28501.0614 133.3211 182.1761
ENERGY: 300000 0.4432 2.0270 1.4924 0.0000 -13704.0315 2281.5164 0.0000 0.0000 521.7858 -10896.7667 90.1853 -11418.5525 -10894.6591 90.0220 -759.5943 -697.5111 28755.8476 2.9605 2.9951
TCL: Running 100000 steps at 120 kelvin.
TCL: Setting parameter langevinTemp to 120
TCL: Running for 100000 steps
ETITLE: TS BOND ANGLE DIHED IMPRP ELECT VDW BOUNDARY MISC KINETIC TOTAL TEMP POTENTIAL TOTAL3 TEMPAVG PRESSURE GPRESSURE VOLUME PRESSAVG GPRESSAVG
ENERGY: 300000 0.4432 2.0270 1.4924 0.0000 -13704.0315 2281.5164 0.0000 0.0000 521.5194 -10897.0330 90.1393 -11418.5525 -10895.8617 90.1393 -753.6693 -696.7872 28755.8476 -753.6693 -696.7872
ENERGY: 400000 0.5598 1.9364 2.1304 0.0000 -13626.4855 2326.1760 0.0000 0.0000 697.7147 -10597.9680 120.5928 -11295.6827 -10597.2099 119.9890 -82.9138 -22.6940 28865.6466 4.0366 4.0270
TCL: Running 100000 steps at 150 kelvin.
TCL: Setting parameter langevinTemp to 150
TCL: Running for 100000 steps
ETITLE: TS BOND ANGLE DIHED IMPRP ELECT VDW BOUNDARY MISC KINETIC TOTAL TEMP POTENTIAL TOTAL3 TEMPAVG PRESSURE GPRESSURE VOLUME PRESSAVG GPRESSAVG
ENERGY: 400000 0.5598 1.9364 2.1304 0.0000 -13626.4855 2326.1760 0.0000 0.0000 697.3591 -10598.3236 120.5314 -11295.6827 -10596.6042 120.5314 -67.4136 -23.7226 28865.6466 -67.4136 -23.7226
ENERGY: 500000 0.3008 4.1031 1.4649 0.0000 -13365.4329 2258.1124 0.0000 0.0000 866.2664 -10235.1852 149.7253 -11101.4516 -10233.8056 149.7487 261.1479 262.6170 28869.9138 2.9711 2.8873
TCL: Running 100000 steps at 180 kelvin.
TCL: Setting parameter langevinTemp to 180
TCL: Running for 100000 steps
ETITLE: TS BOND ANGLE DIHED IMPRP ELECT VDW BOUNDARY MISC KINETIC TOTAL TEMP POTENTIAL TOTAL3 TEMPAVG PRESSURE GPRESSURE VOLUME PRESSAVG GPRESSAVG
ENERGY: 500000 0.3008 4.1031 1.4649 0.0000 -13365.4329 2258.1124 0.0000 0.0000 865.8282 -10235.6234 149.6495 -11101.4516 -10234.4359 149.6495 221.2682 263.3654 28869.9138 221.2682 263.3654
ENERGY: 600000 0.3384 2.1388 1.6838 0.0000 -12819.0337 2011.5019 0.0000 0.0000 1060.8694 -9742.5014 183.3604 -10803.3709 -9739.9319 180.0985 -759.0847 -650.0330 28697.5323 3.1510 2.8813
TCL: Running 100000 steps at 210 kelvin.
TCL: Setting parameter langevinTemp to 210
TCL: Running for 100000 steps
ETITLE: TS BOND ANGLE DIHED IMPRP ELECT VDW BOUNDARY MISC KINETIC TOTAL TEMP POTENTIAL TOTAL3 TEMPAVG PRESSURE GPRESSURE VOLUME PRESSAVG GPRESSAVG
ENERGY: 600000 0.3384 2.1388 1.6838 0.0000 -12819.0337 2011.5019 0.0000 0.0000 1060.3424 -9743.0284 183.2693 -10803.3709 -9740.7307 183.2693 -697.6505 -650.2267 28697.5323 -697.6505 -650.2267
ENERGY: 700000 0.3813 4.0863 1.5453 0.0000 -12328.7393 1931.1881 0.0000 0.0000 1204.0855 -9187.4528 208.1138 -10391.5384 -9185.5608 210.4565 436.6971 498.3426 28362.7215 4.0703 3.8642
TCL: Running 100000 steps at 240 kelvin.
TCL: Setting parameter langevinTemp to 240
TCL: Running for 100000 steps
ETITLE: TS BOND ANGLE DIHED IMPRP ELECT VDW BOUNDARY MISC KINETIC TOTAL TEMP POTENTIAL TOTAL3 TEMPAVG PRESSURE GPRESSURE VOLUME PRESSAVG GPRESSAVG
ENERGY: 700000 0.3813 4.0863 1.5453 0.0000 -12328.7393 1931.1881 0.0000 0.0000 1203.4834 -9188.0550 208.0097 -10391.5384 -9185.6264 208.0097 411.6062 497.1500 28362.7215 411.6062 497.1500
ENERGY: 800000 2.3569 4.5218 1.6459 0.0000 -11646.9940 1665.9842 0.0000 0.0000 1411.3137 -8561.1716 243.9311 -9972.4852 -8558.9186 239.9390 -334.3480 -250.2269 28859.1759 2.3994 2.3304
TCL: Running 100000 steps at 270 kelvin.
TCL: Setting parameter langevinTemp to 270
TCL: Running for 100000 steps
ETITLE: TS BOND ANGLE DIHED IMPRP ELECT VDW BOUNDARY MISC KINETIC TOTAL TEMP POTENTIAL TOTAL3 TEMPAVG PRESSURE GPRESSURE VOLUME PRESSAVG GPRESSAVG
ENERGY: 800000 2.3569 4.5218 1.6459 0.0000 -11646.9940 1665.9842 0.0000 0.0000 1410.5995 -8561.8857 243.8077 -9972.4852 -8559.8585 243.8077 -322.8006 -249.8219 28859.1759 -322.8006 -249.8219
ENERGY: 900000 0.3841 5.0409 3.0105 0.0000 -10943.9916 1465.4986 0.0000 0.0000 1555.0352 -7915.0222 268.7719 -9470.0575 -7911.6907 269.6243 -685.8845 -578.9461 29592.6958 3.7994 3.9101
TCL: Running 1000000 steps at 300 kelvin.
TCL: Setting parameter langevinTemp to 300
TCL: Running for 1000000 steps
ETITLE: TS BOND ANGLE DIHED IMPRP ELECT VDW BOUNDARY MISC KINETIC TOTAL TEMP POTENTIAL TOTAL3 TEMPAVG PRESSURE GPRESSURE VOLUME PRESSAVG GPRESSAVG
ENERGY: 900000 0.3841 5.0409 3.0105 0.0000 -10943.9916 1465.4986 0.0000 0.0000 1554.2476 -7915.8099 268.6357 -9470.0575 -7912.9639 268.6357 -667.1313 -581.3423 29592.6958 -667.1313 -581.3423
ENERGY: 1100000 2.6521 5.2566 1.8679 0.0000 -10575.8243 1368.5620 0.0000 0.0000 1730.0134 -7467.4723 299.0151 -9197.4857 -7464.7514 300.3094 -354.8423 -271.4438 29627.7426 4.3142 4.1433
ENERGY: 1300000 2.2325 5.0851 1.4805 0.0000 -10588.1429 1375.7529 0.0000 0.0000 1687.1522 -7516.4397 291.6069 -9203.5919 -7512.9221 299.5914 -569.7190 -462.0222 29926.3925 2.1793 2.3030
ENERGY: 1500000 2.1412 4.1587 2.5264 0.0000 -10457.4331 1369.0228 0.0000 0.0000 1655.9943 -7423.5898 286.2216 -9079.5841 -7423.4238 300.0216 -366.8692 -295.6832 30235.2089 3.5929 3.5838
ENERGY: 1700000 0.6273 3.1316 1.4641 0.0000 -10377.5743 1272.8300 0.0000 0.0000 1726.8478 -7372.6735 298.4679 -9099.5213 -7368.5060 299.5505 -1210.4340 -1129.5089 30350.8421 3.7886 3.7850
ENERGY: 1900000 0.9523 3.3423 1.9490 0.0000 -10529.8518 1465.1764 0.0000 0.0000 1744.7049 -7313.7268 301.5543 -9058.4318 -7312.1619 300.3726 562.0080 704.9984 29868.8692 2.6705 2.6886
TCL: Exiting due to exit command.
