Info: SIMULATION PARAMETERS:
Info: TIMESTEP               2
Info: NUMBER OF STEPS        0
Info: STEPS PER CYCLE        10
Info: PERIODIC CELL BASIS 1  35.89 0 0
Info: PERIODIC CELL BASIS 2  0 34.696 0
Info: PERIODIC CELL BASIS 3  0 0 35.723
Info: PERIODIC CELL CENTER   0 0 0
Info: WRAPPING WATERS AROUND PERIODIC BOUNDARIES ON OUTPUT.
Info: WRAPPING ALL CLUSTERS AROUND PERIODIC BOUNDARIES ON OUTPUT.
Info: FIRST LDB TIMESTEP     50
Info: LAST LDB TIMESTEP     -1
Info: HOM BACKGROUND SCALING 1
Info: PME BACKGROUND SCALING 1
Info: MIN ATOMS PER PATCH    40
Info: EMPTY PATCH LOAD       40 ATOMS
Info: INITIAL TEMPERATURE    300
Info: CENTER OF MASS MOVING INITIALLY? NO
Info: DIELECTRIC             1
Info: EXCLUDE                SCALED ONE-FOUR
Info: 1-4 ELECTROSTATICS SCALED BY 0.833333
Info: MODIFIED 1-4 VDW PARAMETERS WILL BE USED
Info: DCD FILENAME           mobley_5747981_equil.dcd
Info: DCD FREQUENCY          100000
Info: DCD FIRST STEP         100000
Info: DCD FILE WILL CONTAIN UNIT CELL DATA
Info: XST FILENAME           mobley_5747981_equil.xst
Info: XST FREQUENCY          100000
Info: NO VELOCITY DCD OUTPUT
Info: NO FORCE DCD OUTPUT
Info: OUTPUT FILENAME        mobley_5747981_equil
Info: BINARY OUTPUT FILES WILL BE USED
Info: RESTART FILENAME       mobley_5747981_equil.restart
Info: RESTART FREQUENCY      100000
Info: BINARY RESTART FILES WILL BE USED
Info: CUTOFF                 9
Info: PAIRLIST DISTANCE      11
Info: PAIRLIST SHRINK RATE   0.01
Info: PAIRLIST GROW RATE     0.01
Info: PAIRLIST TRIGGER       0.3
Info: PAIRLISTS PER CYCLE    2
Info: PAIRLISTS ENABLED
Info: MARGIN                 8
Info: HYDROGEN GROUP CUTOFF  2.5
Info: PATCH DIMENSION        21.5
Info: ENERGY OUTPUT STEPS    100000
Info: ENERGY EVALUATION STEPS    100000
Info: OUTPUT ENERGY PRECISION 4
Info: CROSSTERM ENERGY INCLUDED IN DIHEDRAL
Info: TIMING OUTPUT STEPS    1000000
Info: PRESSURE OUTPUT STEPS  100000
Info: LANGEVIN DYNAMICS ACTIVE
Info: LANGEVIN TEMPERATURE   30
Info: LANGEVIN USING BBK INTEGRATOR
Info: LANGEVIN DAMPING COEFFICIENT IS 1 INVERSE PS
Info: LANGEVIN DYNAMICS APPLIED TO HYDROGENS
Info: LANGEVIN PISTON PRESSURE CONTROL ACTIVE
Info:        TARGET PRESSURE IS 1.01325 BAR
Info:     OSCILLATION PERIOD IS 50 FS
Info:             DECAY TIME IS 25 FS
Info:     PISTON TEMPERATURE IS 300 K
Info:       PRESSURE CONTROL IS GROUP-BASED
Info:    INITIAL STRAIN RATE IS 0 0 0
Info:       CELL FLUCTUATION IS ISOTROPIC
Info: PARTICLE MESH EWALD (PME) ACTIVE
Info: PME TOLERANCE               1e-06
Info: PME EWALD COEFFICIENT       0.348832
Info: PME INTERPOLATION ORDER     4
Info: PME GRID DIMENSIONS         36 36 36
Info: PME MAXIMUM GRID SPACING    1
Info: FULL ELECTROSTATIC EVALUATION FREQUENCY      2
Info: USING VERLET I (r-RESPA) MTS SCHEME.
Info: C1 SPLITTING OF LONG RANGE ELECTROSTATICS
Info: PLACING ATOMS IN PATCHES BY HYDROGEN GROUPS
Info: RIGID BONDS TO HYDROGEN : ALL
Info:         ERROR TOLERANCE : 1e-08
Info:          MAX ITERATIONS : 100
Info: RIGID WATER USING SETTLE ALGORITHM
Info: RANDOM NUMBER SEED     1743259031
Info: USE HYDROGEN BONDS?    NO
Info: Using AMBER format force field!
Info: AMBER PARM FILE        mobley_5747981.prmtop
Info: COORDINATE PDB         mobley_5747981.pdb
Info: Exclusions will be read from PARM file!
Info: SCNB (VDW SCALING)     2
Info: USING ARITHMETIC MEAN TO COMBINE L-J SIGMA PARAMETERS
Info: BINARY COORDINATES     mobley_5747981_min.coor
Info: SUMMARY OF PARAMETERS:
Info: 5 BONDS
Info: 6 ANGLES
Info:   6 HARMONIC
Info:   0 COSINE-BASED
Info: 10 DIHEDRAL
Info: 0 IMPROPER
Info: 0 CROSSTERM
Info: 0 VDW
Info: 15 VDW_PAIRS
Info: 0 NBTHOLE_PAIRS
Info: STRUCTURE SUMMARY:
Info: 2937 ATOMS
Info: 2936 BONDS
Info: 40 ANGLES
Info: 58 DIHEDRALS
Info: 0 IMPROPERS
Info: 0 CROSSTERMS
Info: 3009 EXCLUSIONS
Info: 2927 RIGID BONDS
Info: 5884 DEGREES OF FREEDOM
Info: 981 HYDROGEN GROUPS
Info: 4 ATOMS IN LARGEST HYDROGEN GROUP
Info: 981 MIGRATION GROUPS
Info: 4 ATOMS IN LARGEST MIGRATION GROUP
Info: TOTAL MASS = 17643.7 amu
Info: TOTAL CHARGE = -0.000100121 e
Info: MASS DENSITY = 0.65864 g/cm^3
Info: ATOM DENSITY = 0.0660242 atoms/A^3
Info: ADDED 0 IMPLICIT EXCLUSIONS
Info: NONBONDED TABLE R-SQUARED SPACING: 0.0625
Info: NONBONDED TABLE SIZE: 705 POINTS
Info: REMOVING COM VELOCITY 0.0471317 -0.0796975 0.143595
TCL: Running for 100000 steps
ETITLE: TS BOND ANGLE DIHED IMPRP ELECT VDW BOUNDARY MISC KINETIC TOTAL TEMP POTENTIAL TOTAL3 TEMPAVG PRESSURE GPRESSURE VOLUME PRESSAVG GPRESSAVG
ENERGY: 0 0.5126 2.6070 18.5929 0.0000 -13482.5044 2366.5691 0.0000 0.0000 1735.7051 -9358.5178 296.8887 -11094.2229 -9358.2201 296.8887 494.7344 528.6484 44483.6885 494.7344 528.6484
ENERGY: 100000 1.0201 4.1497 18.2324 0.0000 -14040.2155 2373.6685 0.0000 0.0000 171.8406 -11471.3042 29.3930 -11643.1448 -11470.9268 30.9609 -776.0102 -707.5879 28804.2416 4.4559 4.4475
TCL: Running 100000 steps at 60 kelvin.
TCL: Setting parameter langevinTemp to 60
TCL: Running for 100000 steps
ETITLE: TS BOND ANGLE DIHED IMPRP ELECT VDW BOUNDARY MISC KINETIC TOTAL TEMP POTENTIAL TOTAL3 TEMPAVG PRESSURE GPRESSURE VOLUME PRESSAVG GPRESSAVG
ENERGY: 100000 1.0201 4.1497 18.2324 0.0000 -14040.2155 2373.6685 0.0000 0.0000 171.7579 -11471.3869 29.3788 -11643.1448 -11471.0302 29.3788 -763.7797 -707.7485 28804.2416 -763.7797 -707.7485
ENERGY: 200000 1.5671 5.9236 18.6448 0.0000 -13914.9121 2318.0849 0.0000 0.0000 352.2418 -11218.4499 60.2502 -11570.6917 -11217.3771 59.8162 -837.3141 -806.6559 28719.1591 5.0271 5.0065
TCL: Running 100000 steps at 90 kelvin.
TCL: Setting parameter langevinTemp to 90
TCL: Running for 100000 steps
ETITLE: TS BOND ANGLE DIHED IMPRP ELECT VDW BOUNDARY MISC KINETIC TOTAL TEMP POTENTIAL TOTAL3 TEMPAVG PRESSURE GPRESSURE VOLUME PRESSAVG GPRESSAVG
ENERGY: 200000 1.5671 5.9236 18.6448 0.0000 -13914.9121 2318.0849 0.0000 0.0000 352.0739 -11218.6178 60.2215 -11570.6917 -11217.7794 60.2215 -851.9201 -806.5895 28719.1591 -851.9201 -806.5895
ENERGY: 300000 2.0892 3.8502 18.8281 0.0000 -13817.6110 2329.8426 0.0000 0.0000 522.9105 -10940.0905 89.4427 -11463.0010 -10938.5583 90.0628 -368.6172 -334.0300 28565.0240 3.9026 3.8723
TCL: Running 100000 steps at 120 kelvin.
TCL: Setting parameter langevinTemp to 120
TCL: Running for 100000 steps
ETITLE: TS BOND ANGLE DIHED IMPRP ELECT VDW BOUNDARY MISC KINETIC TOTAL TEMP POTENTIAL TOTAL3 TEMPAVG PRESSURE GPRESSURE VOLUME PRESSAVG GPRESSAVG
ENERGY: 300000 2.0892 3.8502 18.8281 0.0000 -13817.6110 2329.8426 0.0000 0.0000 522.6591 -10940.3419 89.3997 -11463.0010 -10939.1527 89.3997 -383.2311 -334.1401 28565.0240 -383.2311 -334.1401
ENERGY: 400000 3.5424 4.1333 18.9220 0.0000 -13609.4637 2243.2622 0.0000 0.0000 704.8885 -10634.7153 120.5697 -11339.6038 -10632.1307 120.0588 -586.6596 -489.0234 28409.6677 3.0089 3.0284
TCL: Running 100000 steps at 150 kelvin.
TCL: Setting parameter langevinTemp to 150
TCL: Running for 100000 steps
ETITLE: TS BOND ANGLE DIHED IMPRP ELECT VDW BOUNDARY MISC KINETIC TOTAL TEMP POTENTIAL TOTAL3 TEMPAVG PRESSURE GPRESSURE VOLUME PRESSAVG GPRESSAVG
ENERGY: 400000 3.5424 4.1333 18.9220 0.0000 -13609.4637 2243.2622 0.0000 0.0000 704.5532 -10635.0506 120.5123 -11339.6038 -10634.0268 120.5123 -558.8165 -487.9840 28409.6677 -558.8165 -487.9840
ENERGY: 500000 1.5616 4.1731 18.7206 0.0000 -13366.6473 2145.9292 0.0000 0.0000 868.2342 -10328.0287 148.5096 -11196.2628 -10325.5499 150.0254 -927.0358 -850.0042 28907.1601 5.3302 5.3764
TCL: Running 100000 steps at 180 kelvin.
TCL: Setting parameter langevinTemp to 180
TCL: Running for 100000 steps
ETITLE: TS BOND ANGLE DIHED IMPRP ELECT VDW BOUNDARY MISC KINETIC TOTAL TEMP POTENTIAL TOTAL3 TEMPAVG PRESSURE GPRESSURE VOLUME PRESSAVG GPRESSAVG
ENERGY: 500000 1.5616 4.1731 18.7206 0.0000 -13366.6473 2145.9292 0.0000 0.0000 867.7848 -10328.4781 148.4328 -11196.2628 -10326.5817 148.4328 -887.3475 -848.7541 28907.1601 -887.3475 -848.7541
ENERGY: 600000 1.5026 9.1722 19.0155 0.0000 -13055.8713 2154.8426 0.0000 0.0000 1042.2877 -9829.0507 178.2811 -10871.3384 -9826.0541 179.9646 384.5799 466.8541 28815.1283 3.7569 3.7436
TCL: Running 100000 steps at 210 kelvin.
TCL: Setting parameter langevinTemp to 210
TCL: Running for 100000 steps
ETITLE: TS BOND ANGLE DIHED IMPRP ELECT VDW BOUNDARY MISC KINETIC TOTAL TEMP POTENTIAL TOTAL3 TEMPAVG PRESSURE GPRESSURE VOLUME PRESSAVG GPRESSAVG
ENERGY: 600000 1.5026 9.1722 19.0155 0.0000 -13055.8713 2154.8426 0.0000 0.0000 1041.7710 -9829.5674 178.1927 -10871.3384 -9827.5466 178.1927 411.7048 467.0305 28815.1283 411.7048 467.0305
ENERGY: 700000 3.8917 11.9531 18.5807 0.0000 -12342.4312 1909.2483 0.0000 0.0000 1229.3782 -9169.3792 210.2825 -10398.7574 -9165.8874 209.7814 118.2350 188.2720 28785.0393 2.8275 2.7255
TCL: Running 100000 steps at 240 kelvin.
TCL: Setting parameter langevinTemp to 240
TCL: Running for 100000 steps
ETITLE: TS BOND ANGLE DIHED IMPRP ELECT VDW BOUNDARY MISC KINETIC TOTAL TEMP POTENTIAL TOTAL3 TEMPAVG PRESSURE GPRESSURE VOLUME PRESSAVG GPRESSAVG
ENERGY: 700000 3.8917 11.9531 18.5807 0.0000 -12342.4312 1909.2483 0.0000 0.0000 1228.7691 -9169.9882 210.1784 -10398.7574 -9167.7548 210.1784 115.4404 188.4457 28785.0393 115.4404 188.4457
ENERGY: 800000 6.9507 12.2150 19.8361 0.0000 -11599.7719 1635.2017 0.0000 0.0000 1404.8256 -8520.7428 240.2925 -9925.5685 -8517.7858 239.8975 -670.6973 -613.8312 29190.5063 3.0753 3.0294
TCL: Running 100000 steps at 270 kelvin.
TCL: Setting parameter langevinTemp to 270
TCL: Running for 100000 steps
ETITLE: TS BOND ANGLE DIHED IMPRP ELECT VDW BOUNDARY MISC KINETIC TOTAL TEMP POTENTIAL TOTAL3 TEMPAVG PRESSURE GPRESSURE VOLUME PRESSAVG GPRESSAVG
ENERGY: 800000 6.9507 12.2150 19.8361 0.0000 -11599.7719 1635.2017 0.0000 0.0000 1404.1069 -8521.4616 240.1695 -9925.5685 -8519.4298 240.1695 -693.5582 -613.0408 29190.5063 -693.5582 -613.0408
ENERGY: 900000 2.6879 12.4912 19.6687 0.0000 -11247.0329 1569.4714 0.0000 0.0000 1610.3359 -8032.3777 275.4446 -9642.7137 -8029.2248 269.8118 -89.0757 -5.0877 29620.6009 3.7663 3.7152
TCL: Running 1000000 steps at 300 kelvin.
TCL: Setting parameter langevinTemp to 300
TCL: Running for 1000000 steps
ETITLE: TS BOND ANGLE DIHED IMPRP ELECT VDW BOUNDARY MISC KINETIC TOTAL TEMP POTENTIAL TOTAL3 TEMPAVG PRESSURE GPRESSURE VOLUME PRESSAVG GPRESSAVG
ENERGY: 900000 2.6879 12.4912 19.6687 0.0000 -11247.0329 1569.4714 0.0000 0.0000 1609.5130 -8033.2007 275.3038 -9642.7137 -8030.9050 275.3038 -88.8395 -3.8228 29620.6009 -88.8395 -3.8228
ENERGY: 1100000 5.9009 13.9101 21.0991 0.0000 -10771.3582 1464.4954 0.0000 0.0000 1768.4842 -7497.4685 302.4955 -9265.9527 -7494.6025 300.7348 -111.0533 -24.7036 30090.4774 4.4716 4.3610
ENERGY: 1300000 5.1592 13.4233 18.8798 0.0000 -10693.3388 1432.3141 0.0000 0.0000 1722.6791 -7500.8832 294.6606 -9223.5623 -7500.9138 299.9569 -127.4814 -1.9513 29987.4257 2.9287 2.9337
ENERGY: 1500000 4.8299 12.1305 18.2161 0.0000 -10507.2663 1368.7410 0.0000 0.0000 1801.5126 -7301.8363 308.1449 -9103.3489 -7299.4244 299.8006 -588.5080 -477.9701 30845.9199 3.0224 3.0522
ENERGY: 1700000 3.8690 15.2388 18.2081 0.0000 -10593.3268 1406.6711 0.0000 0.0000 1729.6016 -7419.7382 295.8447 -9149.3398 -7419.1041 299.4205 -361.9623 -266.0889 30505.6085 3.0947 3.1263
ENERGY: 1900000 5.3581 13.4779 21.1578 0.0000 -10738.1899 1444.0739 0.0000 0.0000 1773.4975 -7480.6246 303.3530 -9254.1222 -7476.5391 299.9764 -282.5941 -281.7631 30304.8657 3.8970 3.7832
TCL: Exiting due to exit command.
