Info: SIMULATION PARAMETERS:
Info: TIMESTEP               2
Info: NUMBER OF STEPS        0
Info: STEPS PER CYCLE        10
Info: PERIODIC CELL BASIS 1  34.207 0 0
Info: PERIODIC CELL BASIS 2  0 33.404 0
Info: PERIODIC CELL BASIS 3  0 0 37.773
Info: PERIODIC CELL CENTER   0 0 0
Info: WRAPPING WATERS AROUND PERIODIC BOUNDARIES ON OUTPUT.
Info: WRAPPING ALL CLUSTERS AROUND PERIODIC BOUNDARIES ON OUTPUT.
Info: FIRST LDB TIMESTEP     50
Info: LAST LDB TIMESTEP     -1
Info: HOM BACKGROUND SCALING 1
Info: PME BACKGROUND SCALING 1
Info: MIN ATOMS PER PATCH    40
Info: EMPTY PATCH LOAD       40 ATOMS
Info: INITIAL TEMPERATURE    300
Info: CENTER OF MASS MOVING INITIALLY? NO
Info: DIELECTRIC             1
Info: EXCLUDE                SCALED ONE-FOUR
Info: 1-4 ELECTROSTATICS SCALED BY 0.833333
Info: MODIFIED 1-4 VDW PARAMETERS WILL BE USED
Info: DCD FILENAME           mobley_8809190_equil.dcd
Info: DCD FREQUENCY          100000
Info: DCD FIRST STEP         100000
Info: DCD FILE WILL CONTAIN UNIT CELL DATA
Info: XST FILENAME           mobley_8809190_equil.xst
Info: XST FREQUENCY          100000
Info: NO VELOCITY DCD OUTPUT
Info: NO FORCE DCD OUTPUT
Info: OUTPUT FILENAME        mobley_8809190_equil
Info: BINARY OUTPUT FILES WILL BE USED
Info: RESTART FILENAME       mobley_8809190_equil.restart
Info: RESTART FREQUENCY      100000
Info: BINARY RESTART FILES WILL BE USED
Info: CUTOFF                 9
Info: PAIRLIST DISTANCE      11
Info: PAIRLIST SHRINK RATE   0.01
Info: PAIRLIST GROW RATE     0.01
Info: PAIRLIST TRIGGER       0.3
Info: PAIRLISTS PER CYCLE    2
Info: PAIRLISTS ENABLED
Info: MARGIN                 8
Info: HYDROGEN GROUP CUTOFF  2.5
Info: PATCH DIMENSION        21.5
Info: ENERGY OUTPUT STEPS    100000
Info: ENERGY EVALUATION STEPS    100000
Info: OUTPUT ENERGY PRECISION 4
Info: CROSSTERM ENERGY INCLUDED IN DIHEDRAL
Info: TIMING OUTPUT STEPS    1000000
Info: PRESSURE OUTPUT STEPS  100000
Info: LANGEVIN DYNAMICS ACTIVE
Info: LANGEVIN TEMPERATURE   30
Info: LANGEVIN USING BBK INTEGRATOR
Info: LANGEVIN DAMPING COEFFICIENT IS 1 INVERSE PS
Info: LANGEVIN DYNAMICS APPLIED TO HYDROGENS
Info: LANGEVIN PISTON PRESSURE CONTROL ACTIVE
Info:        TARGET PRESSURE IS 1.01325 BAR
Info:     OSCILLATION PERIOD IS 50 FS
Info:             DECAY TIME IS 25 FS
Info:     PISTON TEMPERATURE IS 300 K
Info:       PRESSURE CONTROL IS GROUP-BASED
Info:    INITIAL STRAIN RATE IS 0 0 0
Info:       CELL FLUCTUATION IS ISOTROPIC
Info: PARTICLE MESH EWALD (PME) ACTIVE
Info: PME TOLERANCE               1e-06
Info: PME EWALD COEFFICIENT       0.348832
Info: PME INTERPOLATION ORDER     4
Info: PME GRID DIMENSIONS         36 36 40
Info: PME MAXIMUM GRID SPACING    1
Info: FULL ELECTROSTATIC EVALUATION FREQUENCY      2
Info: USING VERLET I (r-RESPA) MTS SCHEME.
Info: C1 SPLITTING OF LONG RANGE ELECTROSTATICS
Info: PLACING ATOMS IN PATCHES BY HYDROGEN GROUPS
Info: RIGID BONDS TO HYDROGEN : ALL
Info:         ERROR TOLERANCE : 1e-08
Info:          MAX ITERATIONS : 100
Info: RIGID WATER USING SETTLE ALGORITHM
Info: RANDOM NUMBER SEED     1743252606
Info: USE HYDROGEN BONDS?    NO
Info: Using AMBER format force field!
Info: AMBER PARM FILE        mobley_8809190.prmtop
Info: COORDINATE PDB         mobley_8809190.pdb
Info: Exclusions will be read from PARM file!
Info: SCNB (VDW SCALING)     2
Info: USING ARITHMETIC MEAN TO COMBINE L-J SIGMA PARAMETERS
Info: BINARY COORDINATES     mobley_8809190_min.coor
Info: SUMMARY OF PARAMETERS:
Info: 7 BONDS
Info: 8 ANGLES
Info:   8 HARMONIC
Info:   0 COSINE-BASED
Info: 9 DIHEDRAL
Info: 0 IMPROPER
Info: 0 CROSSTERM
Info: 0 VDW
Info: 21 VDW_PAIRS
Info: 0 NBTHOLE_PAIRS
Info: STRUCTURE SUMMARY:
Info: 2937 ATOMS
Info: 2937 BONDS
Info: 42 ANGLES
Info: 65 DIHEDRALS
Info: 0 IMPROPERS
Info: 0 CROSSTERMS
Info: 3033 EXCLUSIONS
Info: 2927 RIGID BONDS
Info: 5884 DEGREES OF FREEDOM
Info: 981 HYDROGEN GROUPS
Info: 4 ATOMS IN LARGEST HYDROGEN GROUP
Info: 981 MIGRATION GROUPS
Info: 4 ATOMS IN LARGEST MIGRATION GROUP
Info: TOTAL MASS = 17627.7 amu
Info: TOTAL CHARGE = -9.99793e-05 e
Info: MASS DENSITY = 0.678205 g/cm^3
Info: ATOM DENSITY = 0.068047 atoms/A^3
Info: ADDED 0 IMPLICIT EXCLUSIONS
Info: NONBONDED TABLE R-SQUARED SPACING: 0.0625
Info: NONBONDED TABLE SIZE: 705 POINTS
Info: REMOVING COM VELOCITY 0.169069 0.197979 0.136609
TCL: Running for 100000 steps
ETITLE: TS BOND ANGLE DIHED IMPRP ELECT VDW BOUNDARY MISC KINETIC TOTAL TEMP POTENTIAL TOTAL3 TEMPAVG PRESSURE GPRESSURE VOLUME PRESSAVG GPRESSAVG
ENERGY: 0 0.1853 0.1641 0.4452 0.0000 -13483.4735 2356.8204 0.0000 0.0000 1752.0228 -9373.8357 299.6798 -11125.8585 -9373.4711 299.6798 298.5484 333.7558 43161.3422 298.5484 333.7558
ENERGY: 100000 0.2268 1.2409 0.7787 0.0000 -14058.4691 2444.4099 0.0000 0.0000 174.9698 -11436.8430 29.9282 -11611.8128 -11436.4021 30.9375 -37.9098 24.1829 28988.9714 3.7105 3.7417
TCL: Running 100000 steps at 60 kelvin.
TCL: Setting parameter langevinTemp to 60
TCL: Running for 100000 steps
ETITLE: TS BOND ANGLE DIHED IMPRP ELECT VDW BOUNDARY MISC KINETIC TOTAL TEMP POTENTIAL TOTAL3 TEMPAVG PRESSURE GPRESSURE VOLUME PRESSAVG GPRESSAVG
ENERGY: 100000 0.2268 1.2409 0.7787 0.0000 -14058.4691 2444.4099 0.0000 0.0000 174.8860 -11436.9269 29.9139 -11611.8128 -11436.6606 29.9139 -42.7462 24.2800 28988.9714 -42.7462 24.2800
ENERGY: 200000 1.8855 1.4825 0.6630 0.0000 -13903.0522 2309.8416 0.0000 0.0000 356.4454 -11232.7342 60.9692 -11589.1796 -11231.7893 60.0538 -1125.8740 -1076.5435 28785.2866 5.6078 5.5871
TCL: Running 100000 steps at 90 kelvin.
TCL: Setting parameter langevinTemp to 90
TCL: Running for 100000 steps
ETITLE: TS BOND ANGLE DIHED IMPRP ELECT VDW BOUNDARY MISC KINETIC TOTAL TEMP POTENTIAL TOTAL3 TEMPAVG PRESSURE GPRESSURE VOLUME PRESSAVG GPRESSAVG
ENERGY: 200000 1.8855 1.4825 0.6630 0.0000 -13903.0522 2309.8416 0.0000 0.0000 356.2662 -11232.9134 60.9386 -11589.1796 -11231.9768 60.9386 -1131.4507 -1076.4648 28785.2866 -1131.4507 -1076.4648
ENERGY: 300000 0.8517 2.8177 1.5841 0.0000 -13694.1103 2192.6778 0.0000 0.0000 529.1200 -10967.0591 90.5049 -11496.1791 -10965.6516 90.0626 -1548.2610 -1530.6628 28759.1794 3.5046 3.5699
TCL: Running 100000 steps at 120 kelvin.
TCL: Setting parameter langevinTemp to 120
TCL: Running for 100000 steps
ETITLE: TS BOND ANGLE DIHED IMPRP ELECT VDW BOUNDARY MISC KINETIC TOTAL TEMP POTENTIAL TOTAL3 TEMPAVG PRESSURE GPRESSURE VOLUME PRESSAVG GPRESSAVG
ENERGY: 300000 0.8517 2.8177 1.5841 0.0000 -13694.1103 2192.6778 0.0000 0.0000 528.8590 -10967.3201 90.4602 -11496.1791 -10966.0796 90.4602 -1579.8233 -1530.7576 28759.1794 -1579.8233 -1530.7576
ENERGY: 400000 1.0533 3.6774 1.3131 0.0000 -13618.3410 2265.9726 0.0000 0.0000 726.2249 -10620.0996 124.2192 -11346.3245 -10619.2508 119.8856 -441.7629 -326.8596 28584.9926 3.6933 3.6222
TCL: Running 100000 steps at 150 kelvin.
TCL: Setting parameter langevinTemp to 150
TCL: Running for 100000 steps
ETITLE: TS BOND ANGLE DIHED IMPRP ELECT VDW BOUNDARY MISC KINETIC TOTAL TEMP POTENTIAL TOTAL3 TEMPAVG PRESSURE GPRESSURE VOLUME PRESSAVG GPRESSAVG
ENERGY: 400000 1.0533 3.6774 1.3131 0.0000 -13618.3410 2265.9726 0.0000 0.0000 725.8662 -10620.4583 124.1579 -11346.3245 -10618.8116 124.1579 -393.2621 -327.6655 28584.9926 -393.2621 -327.6655
ENERGY: 500000 0.8513 4.1953 1.9853 0.0000 -13414.8703 2208.2500 0.0000 0.0000 910.0524 -10289.5360 155.6625 -11199.5884 -10287.0370 150.1020 -257.8350 -192.1754 28613.7915 4.8219 4.8324
TCL: Running 100000 steps at 180 kelvin.
TCL: Setting parameter langevinTemp to 180
TCL: Running for 100000 steps
ETITLE: TS BOND ANGLE DIHED IMPRP ELECT VDW BOUNDARY MISC KINETIC TOTAL TEMP POTENTIAL TOTAL3 TEMPAVG PRESSURE GPRESSURE VOLUME PRESSAVG GPRESSAVG
ENERGY: 500000 0.8513 4.1953 1.9853 0.0000 -13414.8703 2208.2500 0.0000 0.0000 909.5872 -10290.0012 155.5830 -11199.5884 -10288.0022 155.5830 -249.9793 -192.8545 28613.7915 -249.9793 -192.8545
ENERGY: 600000 1.4219 5.3366 2.8581 0.0000 -12979.3062 2121.9363 0.0000 0.0000 1106.6075 -9741.1457 189.2829 -10847.7533 -9738.6548 179.6884 382.1812 489.0591 28734.0405 3.8560 3.8370
TCL: Running 100000 steps at 210 kelvin.
TCL: Setting parameter langevinTemp to 210
TCL: Running for 100000 steps
ETITLE: TS BOND ANGLE DIHED IMPRP ELECT VDW BOUNDARY MISC KINETIC TOTAL TEMP POTENTIAL TOTAL3 TEMPAVG PRESSURE GPRESSURE VOLUME PRESSAVG GPRESSAVG
ENERGY: 600000 1.4219 5.3366 2.8581 0.0000 -12979.3062 2121.9363 0.0000 0.0000 1106.0921 -9741.6612 189.1947 -10847.7533 -9739.8842 189.1947 410.9455 489.9897 28734.0405 410.9455 489.9897
ENERGY: 700000 0.8470 5.8698 2.1655 0.0000 -12365.2481 1925.1624 0.0000 0.0000 1234.0248 -9197.1786 211.0773 -10431.2034 -9195.4928 209.8320 542.6160 584.4032 28476.4540 4.1396 4.1211
TCL: Running 100000 steps at 240 kelvin.
TCL: Setting parameter langevinTemp to 240
TCL: Running for 100000 steps
ETITLE: TS BOND ANGLE DIHED IMPRP ELECT VDW BOUNDARY MISC KINETIC TOTAL TEMP POTENTIAL TOTAL3 TEMPAVG PRESSURE GPRESSURE VOLUME PRESSAVG GPRESSAVG
ENERGY: 700000 0.8470 5.8698 2.1655 0.0000 -12365.2481 1925.1624 0.0000 0.0000 1233.4022 -9197.8012 210.9708 -10431.2034 -9195.6093 210.9708 514.7697 583.9981 28476.4540 514.7697 583.9981
ENERGY: 800000 2.6490 4.1691 2.5393 0.0000 -11682.1883 1712.0778 0.0000 0.0000 1330.8186 -8629.9345 227.6337 -9960.7530 -8627.1117 239.5824 107.9561 228.3406 28862.2013 1.2320 1.0912
TCL: Running 100000 steps at 270 kelvin.
TCL: Setting parameter langevinTemp to 270
TCL: Running for 100000 steps
ETITLE: TS BOND ANGLE DIHED IMPRP ELECT VDW BOUNDARY MISC KINETIC TOTAL TEMP POTENTIAL TOTAL3 TEMPAVG PRESSURE GPRESSURE VOLUME PRESSAVG GPRESSAVG
ENERGY: 800000 2.6490 4.1691 2.5393 0.0000 -11682.1883 1712.0778 0.0000 0.0000 1330.1113 -8630.6417 227.5127 -9960.7530 -8628.2574 227.5127 141.7371 227.4976 28862.2013 141.7371 227.4976
ENERGY: 900000 1.6537 6.6819 5.3477 0.0000 -11203.4683 1620.9309 0.0000 0.0000 1560.2816 -8008.5724 266.8829 -9568.8541 -8005.5255 269.8352 350.7228 382.4529 29728.1992 3.0152 2.9892
TCL: Running 1000000 steps at 300 kelvin.
TCL: Setting parameter langevinTemp to 300
TCL: Running for 1000000 steps
ETITLE: TS BOND ANGLE DIHED IMPRP ELECT VDW BOUNDARY MISC KINETIC TOTAL TEMP POTENTIAL TOTAL3 TEMPAVG PRESSURE GPRESSURE VOLUME PRESSAVG GPRESSAVG
ENERGY: 900000 1.6537 6.6819 5.3477 0.0000 -11203.4683 1620.9309 0.0000 0.0000 1559.5142 -8009.3399 266.7516 -9568.8541 -8007.0431 266.7516 313.2563 383.4814 29728.1992 313.2563 383.4814
ENERGY: 1100000 2.1355 12.5547 2.8336 0.0000 -10538.1991 1441.6601 0.0000 0.0000 1775.1410 -7303.8742 303.6341 -9079.0152 -7302.6710 300.7486 3.6768 143.2696 30794.7742 4.1207 4.0998
ENERGY: 1300000 2.4628 7.0164 5.8249 0.0000 -10610.6856 1456.2301 0.0000 0.0000 1779.4862 -7359.6653 304.3774 -9139.1515 -7355.1498 300.2921 354.4513 511.4969 30182.7662 2.1076 2.2204
ENERGY: 1500000 1.9629 9.7200 5.6045 0.0000 -10592.2003 1374.7654 0.0000 0.0000 1785.3005 -7414.8470 305.3719 -9200.1475 -7409.3512 299.8802 -556.4962 -484.1784 30298.3468 2.1030 1.7717
ENERGY: 1700000 6.1559 7.2576 3.7196 0.0000 -10610.1515 1462.9382 0.0000 0.0000 1739.0967 -7390.9836 297.4688 -9130.0803 -7388.6562 300.1870 135.2413 153.0794 30602.8934 1.5819 1.8158
ENERGY: 1900000 2.5338 7.6158 2.8521 0.0000 -10731.6853 1464.5739 0.0000 0.0000 1761.8282 -7492.2815 301.3570 -9254.1097 -7488.9917 299.9520 358.6283 435.6234 29939.0471 2.2466 2.2148
TCL: Exiting due to exit command.
