Info: SIMULATION PARAMETERS:
Info: TIMESTEP               2
Info: NUMBER OF STEPS        0
Info: STEPS PER CYCLE        10
Info: PERIODIC CELL BASIS 1  36.592 0 0
Info: PERIODIC CELL BASIS 2  0 34.26 0
Info: PERIODIC CELL BASIS 3  0 0 36.199
Info: PERIODIC CELL CENTER   0 0 0
Info: WRAPPING WATERS AROUND PERIODIC BOUNDARIES ON OUTPUT.
Info: WRAPPING ALL CLUSTERS AROUND PERIODIC BOUNDARIES ON OUTPUT.
Info: FIRST LDB TIMESTEP     50
Info: LAST LDB TIMESTEP     -1
Info: HOM BACKGROUND SCALING 1
Info: PME BACKGROUND SCALING 1
Info: MIN ATOMS PER PATCH    40
Info: EMPTY PATCH LOAD       40 ATOMS
Info: INITIAL TEMPERATURE    300
Info: CENTER OF MASS MOVING INITIALLY? NO
Info: DIELECTRIC             1
Info: EXCLUDE                SCALED ONE-FOUR
Info: 1-4 ELECTROSTATICS SCALED BY 0.833333
Info: MODIFIED 1-4 VDW PARAMETERS WILL BE USED
Info: DCD FILENAME           mobley_6055410_equil.dcd
Info: DCD FREQUENCY          100000
Info: DCD FIRST STEP         100000
Info: DCD FILE WILL CONTAIN UNIT CELL DATA
Info: XST FILENAME           mobley_6055410_equil.xst
Info: XST FREQUENCY          100000
Info: NO VELOCITY DCD OUTPUT
Info: NO FORCE DCD OUTPUT
Info: OUTPUT FILENAME        mobley_6055410_equil
Info: BINARY OUTPUT FILES WILL BE USED
Info: RESTART FILENAME       mobley_6055410_equil.restart
Info: RESTART FREQUENCY      100000
Info: BINARY RESTART FILES WILL BE USED
Info: CUTOFF                 9
Info: PAIRLIST DISTANCE      11
Info: PAIRLIST SHRINK RATE   0.01
Info: PAIRLIST GROW RATE     0.01
Info: PAIRLIST TRIGGER       0.3
Info: PAIRLISTS PER CYCLE    2
Info: PAIRLISTS ENABLED
Info: MARGIN                 8
Info: HYDROGEN GROUP CUTOFF  2.5
Info: PATCH DIMENSION        21.5
Info: ENERGY OUTPUT STEPS    100000
Info: ENERGY EVALUATION STEPS    100000
Info: OUTPUT ENERGY PRECISION 4
Info: CROSSTERM ENERGY INCLUDED IN DIHEDRAL
Info: TIMING OUTPUT STEPS    1000000
Info: PRESSURE OUTPUT STEPS  100000
Info: LANGEVIN DYNAMICS ACTIVE
Info: LANGEVIN TEMPERATURE   30
Info: LANGEVIN USING BBK INTEGRATOR
Info: LANGEVIN DAMPING COEFFICIENT IS 1 INVERSE PS
Info: LANGEVIN DYNAMICS APPLIED TO HYDROGENS
Info: LANGEVIN PISTON PRESSURE CONTROL ACTIVE
Info:        TARGET PRESSURE IS 1.01325 BAR
Info:     OSCILLATION PERIOD IS 50 FS
Info:             DECAY TIME IS 25 FS
Info:     PISTON TEMPERATURE IS 300 K
Info:       PRESSURE CONTROL IS GROUP-BASED
Info:    INITIAL STRAIN RATE IS 0 0 0
Info:       CELL FLUCTUATION IS ISOTROPIC
Info: PARTICLE MESH EWALD (PME) ACTIVE
Info: PME TOLERANCE               1e-06
Info: PME EWALD COEFFICIENT       0.348832
Info: PME INTERPOLATION ORDER     4
Info: PME GRID DIMENSIONS         40 36 40
Info: PME MAXIMUM GRID SPACING    1
Info: FULL ELECTROSTATIC EVALUATION FREQUENCY      2
Info: USING VERLET I (r-RESPA) MTS SCHEME.
Info: C1 SPLITTING OF LONG RANGE ELECTROSTATICS
Info: PLACING ATOMS IN PATCHES BY HYDROGEN GROUPS
Info: RIGID BONDS TO HYDROGEN : ALL
Info:         ERROR TOLERANCE : 1e-08
Info:          MAX ITERATIONS : 100
Info: RIGID WATER USING SETTLE ALGORITHM
Info: RANDOM NUMBER SEED     1743246982
Info: USE HYDROGEN BONDS?    NO
Info: Using AMBER format force field!
Info: AMBER PARM FILE        mobley_6055410.prmtop
Info: COORDINATE PDB         mobley_6055410.pdb
Info: Exclusions will be read from PARM file!
Info: SCNB (VDW SCALING)     2
Info: USING ARITHMETIC MEAN TO COMBINE L-J SIGMA PARAMETERS
Info: BINARY COORDINATES     mobley_6055410_min.coor
Info: SUMMARY OF PARAMETERS:
Info: 12 BONDS
Info: 15 ANGLES
Info:   15 HARMONIC
Info:   0 COSINE-BASED
Info: 6 DIHEDRAL
Info: 0 IMPROPER
Info: 0 CROSSTERM
Info: 0 VDW
Info: 28 VDW_PAIRS
Info: 0 NBTHOLE_PAIRS
Info: STRUCTURE SUMMARY:
Info: 2975 ATOMS
Info: 2976 BONDS
Info: 41 ANGLES
Info: 74 DIHEDRALS
Info: 0 IMPROPERS
Info: 0 CROSSTERMS
Info: 3071 EXCLUSIONS
Info: 2957 RIGID BONDS
Info: 5968 DEGREES OF FREEDOM
Info: 1001 HYDROGEN GROUPS
Info: 3 ATOMS IN LARGEST HYDROGEN GROUP
Info: 1001 MIGRATION GROUPS
Info: 3 ATOMS IN LARGEST MIGRATION GROUP
Info: TOTAL MASS = 17959.9 amu
Info: TOTAL CHARGE = -0.000200089 e
Info: MASS DENSITY = 0.657194 g/cm^3
Info: ATOM DENSITY = 0.0655567 atoms/A^3
Info: ADDED 0 IMPLICIT EXCLUSIONS
Info: NONBONDED TABLE R-SQUARED SPACING: 0.0625
Info: NONBONDED TABLE SIZE: 705 POINTS
Info: REMOVING COM VELOCITY -0.0179478 0.188946 0.114514
TCL: Running for 100000 steps
ETITLE: TS BOND ANGLE DIHED IMPRP ELECT VDW BOUNDARY MISC KINETIC TOTAL TEMP POTENTIAL TOTAL3 TEMPAVG PRESSURE GPRESSURE VOLUME PRESSAVG GPRESSAVG
ENERGY: 0 0.6444 1.7785 11.0225 0.0000 -13708.7115 2413.7796 0.0000 0.0000 1797.1212 -9484.3653 303.0672 -11281.4865 -9484.0211 303.0672 539.9432 572.2301 45380.5839 539.9432 572.2301
ENERGY: 100000 1.1780 1.1675 13.2000 0.0000 -14400.4018 2508.3860 0.0000 0.0000 181.4492 -11695.0211 30.5997 -11876.4703 -11694.6216 30.9809 135.2953 178.6704 28682.8296 4.4740 4.5214
TCL: Running 100000 steps at 60 kelvin.
TCL: Setting parameter langevinTemp to 60
TCL: Running for 100000 steps
ETITLE: TS BOND ANGLE DIHED IMPRP ELECT VDW BOUNDARY MISC KINETIC TOTAL TEMP POTENTIAL TOTAL3 TEMPAVG PRESSURE GPRESSURE VOLUME PRESSAVG GPRESSAVG
ENERGY: 100000 1.1780 1.1675 13.2000 0.0000 -14400.4018 2508.3860 0.0000 0.0000 181.3611 -11695.1092 30.5848 -11876.4703 -11694.6358 30.5848 133.1116 178.6313 28682.8296 133.1116 178.6313
ENERGY: 200000 3.1070 1.5961 13.6538 0.0000 -14231.6764 2408.4170 0.0000 0.0000 354.8132 -11450.0893 59.8358 -11804.9025 -11448.6027 59.9977 -179.2136 -135.4724 28733.3464 2.6811 2.6467
TCL: Running 100000 steps at 90 kelvin.
TCL: Setting parameter langevinTemp to 90
TCL: Running for 100000 steps
ETITLE: TS BOND ANGLE DIHED IMPRP ELECT VDW BOUNDARY MISC KINETIC TOTAL TEMP POTENTIAL TOTAL3 TEMPAVG PRESSURE GPRESSURE VOLUME PRESSAVG GPRESSAVG
ENERGY: 200000 3.1070 1.5961 13.6538 0.0000 -14231.6764 2408.4170 0.0000 0.0000 354.6400 -11450.2626 59.8066 -11804.9025 -11449.4749 59.8066 -181.4971 -134.8928 28733.3464 -181.4971 -134.8928
ENERGY: 300000 2.5642 2.8848 13.2306 0.0000 -14071.0823 2376.1643 0.0000 0.0000 528.8005 -11147.4380 89.1771 -11676.2385 -11145.8223 90.0748 53.8928 123.4411 28586.6169 4.7293 4.7849
TCL: Running 100000 steps at 120 kelvin.
TCL: Setting parameter langevinTemp to 120
TCL: Running for 100000 steps
ETITLE: TS BOND ANGLE DIHED IMPRP ELECT VDW BOUNDARY MISC KINETIC TOTAL TEMP POTENTIAL TOTAL3 TEMPAVG PRESSURE GPRESSURE VOLUME PRESSAVG GPRESSAVG
ENERGY: 300000 2.5642 2.8848 13.2306 0.0000 -14071.0823 2376.1643 0.0000 0.0000 528.5343 -11147.7042 89.1322 -11676.2385 -11146.6967 89.1322 84.7482 124.2981 28586.6169 84.7482 124.2981
ENERGY: 400000 2.3686 5.9038 12.6056 0.0000 -13973.9667 2386.4766 0.0000 0.0000 705.0742 -10861.5380 118.9040 -11566.6122 -10860.7124 120.2128 778.8599 863.2982 28376.9200 3.9207 3.8645
TCL: Running 100000 steps at 150 kelvin.
TCL: Setting parameter langevinTemp to 150
TCL: Running for 100000 steps
ETITLE: TS BOND ANGLE DIHED IMPRP ELECT VDW BOUNDARY MISC KINETIC TOTAL TEMP POTENTIAL TOTAL3 TEMPAVG PRESSURE GPRESSURE VOLUME PRESSAVG GPRESSAVG
ENERGY: 400000 2.3686 5.9038 12.6056 0.0000 -13973.9667 2386.4766 0.0000 0.0000 704.7359 -10861.8763 118.8469 -11566.6122 -10860.3627 118.8469 821.2468 863.0318 28376.9200 821.2468 863.0318
ENERGY: 500000 2.0792 3.1577 13.7126 0.0000 -13646.6810 2242.0621 0.0000 0.0000 878.6279 -10507.0413 148.1721 -11385.6692 -10504.7414 149.7488 -100.7446 -19.6634 28905.3710 2.8884 2.9201
TCL: Running 100000 steps at 180 kelvin.
TCL: Setting parameter langevinTemp to 180
TCL: Running for 100000 steps
ETITLE: TS BOND ANGLE DIHED IMPRP ELECT VDW BOUNDARY MISC KINETIC TOTAL TEMP POTENTIAL TOTAL3 TEMPAVG PRESSURE GPRESSURE VOLUME PRESSAVG GPRESSAVG
ENERGY: 500000 2.0792 3.1577 13.7126 0.0000 -13646.6810 2242.0621 0.0000 0.0000 878.1919 -10507.4773 148.0986 -11385.6692 -10505.4371 148.0986 -78.3900 -19.7588 28905.3710 -78.3900 -19.7588
ENERGY: 600000 8.8585 8.3052 10.4671 0.0000 -13174.3572 2045.5834 0.0000 0.0000 1058.5152 -10042.6277 178.5084 -11101.1430 -10038.0681 179.9730 -966.8340 -917.9861 29378.9521 4.0891 3.8998
TCL: Running 100000 steps at 210 kelvin.
TCL: Setting parameter langevinTemp to 210
TCL: Running for 100000 steps
ETITLE: TS BOND ANGLE DIHED IMPRP ELECT VDW BOUNDARY MISC KINETIC TOTAL TEMP POTENTIAL TOTAL3 TEMPAVG PRESSURE GPRESSURE VOLUME PRESSAVG GPRESSAVG
ENERGY: 600000 8.8585 8.3052 10.4671 0.0000 -13174.3572 2045.5834 0.0000 0.0000 1058.0031 -10043.1399 178.4220 -11101.1430 -10041.4298 178.4220 -950.5593 -915.9454 29378.9521 -950.5593 -915.9454
ENERGY: 700000 6.2958 4.0537 10.5564 0.0000 -12414.2610 1779.7271 0.0000 0.0000 1269.9779 -9343.6502 214.1696 -10613.6281 -9340.6834 209.2411 -1064.6024 -974.5188 29257.7292 3.0189 3.1693
TCL: Running 100000 steps at 240 kelvin.
TCL: Setting parameter langevinTemp to 240
TCL: Running for 100000 steps
ETITLE: TS BOND ANGLE DIHED IMPRP ELECT VDW BOUNDARY MISC KINETIC TOTAL TEMP POTENTIAL TOTAL3 TEMPAVG PRESSURE GPRESSURE VOLUME PRESSAVG GPRESSAVG
ENERGY: 700000 6.2958 4.0537 10.5564 0.0000 -12414.2610 1779.7271 0.0000 0.0000 1269.3838 -9344.2443 214.0694 -10613.6281 -9341.3773 214.0694 -1044.7262 -975.0823 29257.7292 -1044.7262 -975.0823
ENERGY: 800000 2.6783 8.9487 19.1280 0.0000 -11930.6574 1728.2752 0.0000 0.0000 1431.9454 -8739.6818 241.4838 -10171.6272 -8737.5964 239.7611 -180.3101 -115.0493 29860.5151 4.0955 4.1384
TCL: Running 100000 steps at 270 kelvin.
TCL: Setting parameter langevinTemp to 270
TCL: Running for 100000 steps
ETITLE: TS BOND ANGLE DIHED IMPRP ELECT VDW BOUNDARY MISC KINETIC TOTAL TEMP POTENTIAL TOTAL3 TEMPAVG PRESSURE GPRESSURE VOLUME PRESSAVG GPRESSAVG
ENERGY: 800000 2.6783 8.9487 19.1280 0.0000 -11930.6574 1728.2752 0.0000 0.0000 1431.2454 -8740.3818 241.3658 -10171.6272 -8737.9404 241.3658 -188.1671 -116.3617 29860.5151 -188.1671 -116.3617
ENERGY: 900000 4.8165 10.3608 13.1107 0.0000 -11413.0440 1607.3760 0.0000 0.0000 1582.3683 -8195.0118 266.8512 -9777.3800 -8192.9179 270.3708 -15.8179 116.3183 29932.2642 3.5824 3.4914
TCL: Running 1000000 steps at 300 kelvin.
TCL: Setting parameter langevinTemp to 300
TCL: Running for 1000000 steps
ETITLE: TS BOND ANGLE DIHED IMPRP ELECT VDW BOUNDARY MISC KINETIC TOTAL TEMP POTENTIAL TOTAL3 TEMPAVG PRESSURE GPRESSURE VOLUME PRESSAVG GPRESSAVG
ENERGY: 900000 4.8165 10.3608 13.1107 0.0000 -11413.0440 1607.3760 0.0000 0.0000 1581.6015 -8195.7785 266.7219 -9777.3800 -8193.0220 266.7219 29.3062 115.0125 29932.2642 29.3062 115.0125
ENERGY: 1100000 8.4447 7.1875 15.0506 0.0000 -10856.6834 1417.7959 0.0000 0.0000 1776.9489 -7631.2556 299.6653 -9408.2045 -7625.5871 300.3740 -460.0044 -338.9141 30668.8960 3.0170 2.9161
ENERGY: 1300000 4.3049 6.7237 14.4701 0.0000 -10753.1135 1432.1656 0.0000 0.0000 1822.1444 -7473.3048 307.2871 -9295.4492 -7469.7490 299.3923 -124.1122 -5.4904 31461.6584 3.8704 3.7797
ENERGY: 1500000 4.6476 10.4813 13.6098 0.0000 -10773.8037 1468.6991 0.0000 0.0000 1740.0171 -7536.3490 293.4371 -9276.3660 -7530.7593 299.5280 184.5445 311.1165 30805.8330 2.7251 2.8165
ENERGY: 1700000 11.5347 8.2157 14.8386 0.0000 -10780.5071 1380.4542 0.0000 0.0000 1861.6395 -7503.8244 313.9476 -9365.4639 -7497.7435 300.3047 -324.4169 -234.4420 30323.8527 2.9155 2.8369
ENERGY: 1900000 7.0108 13.3428 16.1890 0.0000 -10764.8072 1376.8633 0.0000 0.0000 1788.0035 -7563.3977 301.5296 -9351.4013 -7560.7243 299.7080 -42.1176 31.8598 30250.4365 4.1150 3.8648
TCL: Exiting due to exit command.
