Info: SIMULATION PARAMETERS:
Info: TIMESTEP               2
Info: NUMBER OF STEPS        0
Info: STEPS PER CYCLE        10
Info: PERIODIC CELL BASIS 1  30.7297 0 0
Info: PERIODIC CELL BASIS 2  0 30.9552 0
Info: PERIODIC CELL BASIS 3  0 0 31.2177
Info: PERIODIC CELL CENTER   0 0 0
Info: WRAPPING WATERS AROUND PERIODIC BOUNDARIES ON OUTPUT.
Info: WRAPPING ALL CLUSTERS AROUND PERIODIC BOUNDARIES ON OUTPUT.
Info: FIRST LDB TIMESTEP     50
Info: LAST LDB TIMESTEP     -1
Info: HOM BACKGROUND SCALING 1
Info: PME BACKGROUND SCALING 1
Info: MIN ATOMS PER PATCH    40
Info: EMPTY PATCH LOAD       40 ATOMS
Info: VELOCITY FILE          mobley_1929982_equil.vel
Info: CENTER OF MASS MOVING INITIALLY? NO
Info: DIELECTRIC             1
Info: EXCLUDE                SCALED ONE-FOUR
Info: 1-4 ELECTROSTATICS SCALED BY 0.833333
Info: MODIFIED 1-4 VDW PARAMETERS WILL BE USED
Info: DCD FILENAME           mobley_1929982_prod.dcd
Info: DCD FREQUENCY          100000
Info: DCD FIRST STEP         100000
Info: DCD FILE WILL CONTAIN UNIT CELL DATA
Info: XST FILENAME           mobley_1929982_prod.xst
Info: XST FREQUENCY          100000
Info: NO VELOCITY DCD OUTPUT
Info: NO FORCE DCD OUTPUT
Info: OUTPUT FILENAME        mobley_1929982_prod
Info: BINARY OUTPUT FILES WILL BE USED
Info: RESTART FILENAME       mobley_1929982_prod.restart
Info: RESTART FREQUENCY      100000
Info: BINARY RESTART FILES WILL BE USED
Info: CUTOFF                 9
Info: PAIRLIST DISTANCE      11
Info: PAIRLIST SHRINK RATE   0.01
Info: PAIRLIST GROW RATE     0.01
Info: PAIRLIST TRIGGER       0.3
Info: PAIRLISTS PER CYCLE    2
Info: PAIRLISTS ENABLED
Info: MARGIN                 2
Info: HYDROGEN GROUP CUTOFF  2.5
Info: PATCH DIMENSION        15.5
Info: ENERGY OUTPUT STEPS    100000
Info: ENERGY EVALUATION STEPS    100000
Info: OUTPUT ENERGY PRECISION 4
Info: CROSSTERM ENERGY INCLUDED IN DIHEDRAL
Info: TIMING OUTPUT STEPS    1000000
Info: PRESSURE OUTPUT STEPS  100000
Info: ALCHEMICAL FEP ON
Info: FEP CURRENT LAMBDA VALUE     1
Info: FEP COMPARISON LAMBDA VALUE  0.95
Info: FEP INTRA-ALCHEMICAL NON-BONDED INTERACTIONS WILL BE RETAINED
Info: FEP INTRA-ALCHEMICAL BONDED INTERACTIONS WILL BE RETAINED
Info: FEP VDW SHIFTING COEFFICIENT 5
Info: FEP ELEC. ACTIVE FOR ANNIHILATED PARTICLES BETWEEN LAMBDA = 0 AND LAMBDA = 0.5
Info: FEP ELEC. ACTIVE FOR EXNIHILATED PARTICLES BETWEEN LAMBDA = 0.5 AND LAMBDA = 1
Info: FEP VDW ACTIVE FOR ANNIHILATED PARTICLES BETWEEN LAMBDA = 0 AND LAMBDA = 1
Info: FEP VDW ACTIVE FOR EXNIHILATED PARTICLES BETWEEN LAMBDA = 0 AND LAMBDA = 1
Info: FEP BOND ACTIVE FOR ANNIHILATED PARTICLES BETWEEN LAMBDA = 1 AND LAMBDA = 1
Info: FEP BOND ACTIVE FOR EXNIHILATED PARTICLES BETWEEN LAMBDA = 0 AND LAMBDA = 0
Info: LANGEVIN DYNAMICS ACTIVE
Info: LANGEVIN TEMPERATURE   300
Info: LANGEVIN USING BBK INTEGRATOR
Info: LANGEVIN DAMPING COEFFICIENT IS 1 INVERSE PS
Info: LANGEVIN DYNAMICS APPLIED TO HYDROGENS
Info: LANGEVIN PISTON PRESSURE CONTROL ACTIVE
Info:        TARGET PRESSURE IS 1.01325 BAR
Info:     OSCILLATION PERIOD IS 50 FS
Info:             DECAY TIME IS 25 FS
Info:     PISTON TEMPERATURE IS 300 K
Info:       PRESSURE CONTROL IS GROUP-BASED
Info:    INITIAL STRAIN RATE IS -0.000440421 -0.000440421 -0.000440421
Info:       CELL FLUCTUATION IS ISOTROPIC
Info: PARTICLE MESH EWALD (PME) ACTIVE
Info: PME TOLERANCE               1e-06
Info: PME EWALD COEFFICIENT       0.348832
Info: PME INTERPOLATION ORDER     4
Info: PME GRID DIMENSIONS         32 32 32
Info: PME MAXIMUM GRID SPACING    1
Info: PME CALCULATION WILL BE PERFORMED ON GPU
Info: FULL ELECTROSTATIC EVALUATION FREQUENCY      2
Info: USING VERLET I (r-RESPA) MTS SCHEME.
Info: C1 SPLITTING OF LONG RANGE ELECTROSTATICS
Info: PLACING ATOMS IN PATCHES BY HYDROGEN GROUPS
Info: RIGID BONDS TO HYDROGEN : ALL
Info:         ERROR TOLERANCE : 1e-08
Info:          MAX ITERATIONS : 100
Info: RIGID WATER USING SETTLE ALGORITHM
Info: RANDOM NUMBER SEED     1743469986
Info: USE HYDROGEN BONDS?    NO
Info: Using AMBER format force field!
Info: AMBER PARM FILE        mobley_1929982.prmtop
Info: COORDINATE PDB         mobley_1929982.pdb
Info: Exclusions will be read from PARM file!
Info: SCNB (VDW SCALING)     2
Info: USING ARITHMETIC MEAN TO COMBINE L-J SIGMA PARAMETERS
Info: BINARY COORDINATES     mobley_1929982_equil.coor
Info: SUMMARY OF PARAMETERS:
Info: 3 BONDS
Info: 1 ANGLES
Info:   1 HARMONIC
Info:   0 COSINE-BASED
Info: 0 DIHEDRAL
Info: 0 IMPROPER
Info: 0 CROSSTERM
Info: 0 VDW
Info: 10 VDW_PAIRS
Info: 0 NBTHOLE_PAIRS
Info: To read alchdata from file: mobley_1929982.pdb
Info: To read alchflag data from column: 5
Info: STRUCTURE SUMMARY:
Info: 2949 ATOMS
Info: 2948 BONDS
Info: 1 ANGLES
Info: 0 DIHEDRALS
Info: 0 IMPROPERS
Info: 0 CROSSTERMS
Info: 2949 EXCLUSIONS
Info: 2948 RIGID BONDS
Info: ALCH: 0 ATOMS TO DISAPPEAR IN FINAL STATE
Info: ALCH: 3 ATOMS TO APPEAR IN FINAL STATE
Info: 5899 DEGREES OF FREEDOM
Info: 983 HYDROGEN GROUPS
Info: 3 ATOMS IN LARGEST HYDROGEN GROUP
Info: 983 MIGRATION GROUPS
Info: 3 ATOMS IN LARGEST MIGRATION GROUP
Info: TOTAL MASS = 17725.8 amu
Info: TOTAL CHARGE = 0.000100017 e
Info: MASS DENSITY = 0.991226 g/cm^3
Info: ATOM DENSITY = 0.0993076 atoms/A^3
Info: ADDED 0 IMPLICIT EXCLUSIONS
Info: NONBONDED TABLE R-SQUARED SPACING: 0.0625
Info: NONBONDED TABLE SIZE: 705 POINTS
Info: REMOVING COM VELOCITY 0.0389767 -0.0524207 -0.153147
Info: Use 3D box decompostion in PME FFT.
Info: Updated CUDA force table with 4096 elements.
Info: Updated CUDA LJ table with 4 x 4 elements.
Info: Found 3 unique exclusion lists needing 4 bytes
TCL: Running for 1500000 steps
ETITLE: TS BOND ANGLE DIHED IMPRP ELECT VDW BOUNDARY MISC KINETIC TOTAL TEMP POTENTIAL TOTALAVG TEMPAVG PRESSURE GPRESSURE VOLUME PRESSAVG GPRESSAVG
ENERGY: 0 0.0000 0.0473 0.0000 0.0000 -10851.1991 1577.2298 0.0000 0.0000 1736.1462 -7537.7757 296.2090 -9273.9220 -7537.7757 296.2090 1358.9108 1440.8858 29695.6083 1358.9108 1440.8858
ENERGY: 300000 0.0000 0.0247 0.0000 0.0000 -10735.7490 1418.7642 0.0000 0.0000 1737.5572 -7579.4029 296.4498 -9316.9601 -7534.6205 298.2334 -467.6706 -393.2389 30490.9806 105.8748 186.0926
ENERGY: 600000 0.0000 0.0015 0.0000 0.0000 -10756.2988 1413.8578 0.0000 0.0000 1803.1344 -7539.3051 307.6381 -9342.4395 -7535.8585 300.1813 -489.6740 -436.6657 30621.5465 -81.9056 -5.9100
ENERGY: 900000 0.0000 0.0460 0.0000 0.0000 -10726.2074 1413.3508 0.0000 0.0000 1753.3072 -7559.5033 299.1369 -9312.8106 -7545.2910 298.8047 -150.5371 -89.3248 29920.6256 -144.1873 -77.7146
ENERGY: 1200000 0.0000 0.0816 0.0000 0.0000 -10875.0828 1549.6782 0.0000 0.0000 1734.1488 -7591.1743 295.8682 -9325.3231 -7536.4115 298.9777 807.2684 855.1238 30045.9516 -63.0875 -0.1049
ENERGY: 1500000 0.0000 0.6762 0.0000 0.0000 -10709.9105 1445.3949 0.0000 0.0000 1675.5011 -7588.3383 285.8622 -9263.8394 -7541.3715 297.5453 -5.6989 112.3532 30250.0823 -140.3764 -78.3769
TCL: Running FEP window   2: Lambda1 0.95   Lambda2 0.8999999999999999 [dLambda -0.050000000000000044]
TCL: Setting parameter firsttimestep to 0
TCL: Setting parameter alchLambda to 0.95
Info: NONBONDED TABLE R-SQUARED SPACING: 0.0625
Info: NONBONDED TABLE SIZE: 705 POINTS
TCL: Setting parameter alchLambda2 to 0.8999999999999999
Info: NONBONDED TABLE R-SQUARED SPACING: 0.0625
Info: NONBONDED TABLE SIZE: 705 POINTS
TCL: Running for 1500000 steps
ETITLE: TS BOND ANGLE DIHED IMPRP ELECT VDW BOUNDARY MISC KINETIC TOTAL TEMP POTENTIAL TOTALAVG TEMPAVG PRESSURE GPRESSURE VOLUME PRESSAVG GPRESSAVG
ENERGY: 0 0.0000 0.6762 0.0000 0.0000 -10709.1582 1445.3886 0.0000 0.0000 1674.6150 -7588.4784 285.7110 -9263.0934 -7588.4784 285.7110 25.5453 112.7389 30250.0823 25.5453 112.7389
ENERGY: 300000 0.0000 0.3867 0.0000 0.0000 -10811.7109 1488.7620 0.0000 0.0000 1777.1825 -7545.3798 303.2103 -9322.5623 -7568.9814 298.2360 464.5927 487.5183 29868.3323 -62.8027 -21.0733
ENERGY: 600000 0.0000 0.9266 0.0000 0.0000 -10671.0937 1436.5335 0.0000 0.0000 1778.3456 -7455.2880 303.4088 -9233.6336 -7521.7286 299.5847 50.5796 119.2130 30435.5148 -50.9241 5.9403
ENERGY: 900000 0.0000 1.1208 0.0000 0.0000 -10738.8649 1414.7934 0.0000 0.0000 1771.4570 -7551.4937 302.2335 -9322.9507 -7533.0185 298.9042 -360.9582 -362.6607 30401.2091 -187.1265 -135.5156
ENERGY: 1200000 0.0000 0.0028 0.0000 0.0000 -10736.8041 1439.1026 0.0000 0.0000 1830.6578 -7467.0410 312.3339 -9297.6988 -7533.5778 299.8312 -51.8556 8.2614 30328.3591 -142.6216 -89.5609
ENERGY: 1500000 0.0000 0.1462 0.0000 0.0000 -10793.9267 1464.3307 0.0000 0.0000 1712.1013 -7617.3485 292.1067 -9329.4498 -7545.7069 299.3025 327.4537 363.0592 29813.7107 -150.5967 -96.7040
TCL: Running FEP window   3: Lambda1 0.8999999999999999 Lambda2 0.8499999999999999 [dLambda -0.050000000000000044]
TCL: Setting parameter firsttimestep to 0
TCL: Setting parameter alchLambda to 0.8999999999999999
Info: NONBONDED TABLE R-SQUARED SPACING: 0.0625
Info: NONBONDED TABLE SIZE: 705 POINTS
TCL: Setting parameter alchLambda2 to 0.8499999999999999
Info: NONBONDED TABLE R-SQUARED SPACING: 0.0625
Info: NONBONDED TABLE SIZE: 705 POINTS
TCL: Running for 1500000 steps
ETITLE: TS BOND ANGLE DIHED IMPRP ELECT VDW BOUNDARY MISC KINETIC TOTAL TEMP POTENTIAL TOTALAVG TEMPAVG PRESSURE GPRESSURE VOLUME PRESSAVG GPRESSAVG
ENERGY: 0 0.0000 0.1462 0.0000 0.0000 -10793.2042 1464.0023 0.0000 0.0000 1711.2107 -7617.8450 291.9547 -9329.0557 -7617.8450 291.9547 278.8915 355.6796 29813.7107 278.8915 355.6796
ENERGY: 300000 0.0000 0.1853 0.0000 0.0000 -10618.6264 1352.5347 0.0000 0.0000 1783.1718 -7482.7346 304.2322 -9265.9064 -7520.5735 298.3957 -718.9910 -648.0814 30628.8574 38.1603 107.9465
ENERGY: 600000 0.0000 0.7163 0.0000 0.0000 -10700.2822 1437.1602 0.0000 0.0000 1757.7286 -7504.6772 299.8913 -9262.4058 -7524.0584 299.9821 228.8095 239.8554 30148.8062 120.3927 182.0640
ENERGY: 900000 0.0000 0.9831 0.0000 0.0000 -10745.7684 1481.8624 0.0000 0.0000 1811.5062 -7451.4166 309.0664 -9262.9229 -7517.8525 300.2944 563.9831 633.6999 30022.0497 120.8248 186.6655
ENERGY: 1200000 0.0000 0.0205 0.0000 0.0000 -10821.3129 1480.8788 0.0000 0.0000 1742.6414 -7597.7721 297.3172 -9340.4136 -7530.3794 300.2332 93.9203 117.5899 30414.5113 149.8895 212.2051
ENERGY: 1500000 0.0000 0.0101 0.0000 0.0000 -10730.1901 1454.8773 0.0000 0.0000 1772.5095 -7502.7933 302.4131 -9275.3028 -7524.7845 300.7383 202.2615 287.0541 30349.6888 194.6242 254.2329
TCL: Running FEP window   4: Lambda1 0.8499999999999999 Lambda2 0.7999999999999998 [dLambda -0.050000000000000044]
TCL: Setting parameter firsttimestep to 0
TCL: Setting parameter alchLambda to 0.8499999999999999
Info: NONBONDED TABLE R-SQUARED SPACING: 0.0625
Info: NONBONDED TABLE SIZE: 705 POINTS
TCL: Setting parameter alchLambda2 to 0.7999999999999998
Info: NONBONDED TABLE R-SQUARED SPACING: 0.0625
Info: NONBONDED TABLE SIZE: 705 POINTS
TCL: Running for 1500000 steps
ETITLE: TS BOND ANGLE DIHED IMPRP ELECT VDW BOUNDARY MISC KINETIC TOTAL TEMP POTENTIAL TOTALAVG TEMPAVG PRESSURE GPRESSURE VOLUME PRESSAVG GPRESSAVG
ENERGY: 0 0.0000 0.0101 0.0000 0.0000 -10730.1909 1454.9924 0.0000 0.0000 1771.6478 -7503.5407 302.2660 -9275.1885 -7503.5407 302.2660 193.3889 283.3352 30349.6888 193.3889 283.3352
ENERGY: 300000 0.0000 0.0011 0.0000 0.0000 -10765.9871 1443.0089 0.0000 0.0000 1730.9072 -7592.0699 295.3152 -9322.9771 -7514.0088 303.8370 221.6103 308.5207 29497.5698 26.9476 86.8878
ENERGY: 600000 0.0000 0.0261 0.0000 0.0000 -10682.4290 1463.9271 0.0000 0.0000 1732.8242 -7485.6516 295.6422 -9218.4757 -7496.5099 304.4910 184.3380 258.3078 30676.2436 -49.3865 14.6147
ENERGY: 900000 0.0000 0.2757 0.0000 0.0000 -10775.1807 1417.4331 0.0000 0.0000 1778.3516 -7579.1204 303.4098 -9357.4720 -7506.5987 303.1386 -538.7747 -453.8007 30499.2821 -234.5718 -170.3849
ENERGY: 1200000 0.0000 1.0370 0.0000 0.0000 -10775.3620 1439.5441 0.0000 0.0000 1767.7353 -7567.0456 301.5985 -9334.7808 -7526.4350 302.0721 -391.8459 -307.7372 30743.8785 -201.1756 -136.9735
ENERGY: 1500000 0.0000 1.3014 0.0000 0.0000 -10658.3255 1383.7109 0.0000 0.0000 1755.5509 -7517.7624 299.5197 -9273.3133 -7520.3446 301.9768 -574.4036 -537.4767 30936.0913 -165.3974 -103.4859
TCL: Running FEP window   5: Lambda1 0.7999999999999998 Lambda2 0.7499999999999998 [dLambda -0.050000000000000044]
TCL: Setting parameter firsttimestep to 0
TCL: Setting parameter alchLambda to 0.7999999999999998
Info: NONBONDED TABLE R-SQUARED SPACING: 0.0625
Info: NONBONDED TABLE SIZE: 705 POINTS
TCL: Setting parameter alchLambda2 to 0.7499999999999998
Info: NONBONDED TABLE R-SQUARED SPACING: 0.0625
Info: NONBONDED TABLE SIZE: 705 POINTS
TCL: Running for 1500000 steps
ETITLE: TS BOND ANGLE DIHED IMPRP ELECT VDW BOUNDARY MISC KINETIC TOTAL TEMP POTENTIAL TOTALAVG TEMPAVG PRESSURE GPRESSURE VOLUME PRESSAVG GPRESSAVG
ENERGY: 0 0.0000 1.3014 0.0000 0.0000 -10657.5980 1383.4304 0.0000 0.0000 1754.6821 -7518.1841 299.3715 -9272.8662 -7518.1841 299.3715 -617.8545 -543.0228 30936.0913 -617.8545 -543.0228
ENERGY: 300000 0.0000 1.1880 0.0000 0.0000 -10601.3178 1343.0317 0.0000 0.0000 1792.8886 -7464.2095 305.8900 -9257.0981 -7499.6178 300.6198 -579.1558 -491.7215 30230.9505 -281.5305 -211.4997
ENERGY: 600000 0.0000 0.0004 0.0000 0.0000 -10861.7300 1532.9468 0.0000 0.0000 1768.8811 -7559.9017 301.7940 -9328.7829 -7535.2928 298.8469 566.6569 610.5172 30310.5855 57.9722 123.5440
ENERGY: 900000 0.0000 0.4995 0.0000 0.0000 -10652.8171 1414.6214 0.0000 0.0000 1740.3490 -7497.3472 296.9261 -9237.6962 -7517.1885 297.7911 106.2435 179.6833 30034.4757 130.4046 202.6192
ENERGY: 1200000 0.0000 0.1658 0.0000 0.0000 -10664.1498 1432.4536 0.0000 0.0000 1680.5225 -7551.0079 286.7189 -9231.5304 -7521.7677 297.7436 -55.9986 -10.5524 30398.8252 135.4880 208.9615
ENERGY: 1500000 0.0000 0.3177 0.0000 0.0000 -10742.1148 1502.4726 0.0000 0.0000 1741.5002 -7497.8244 297.1225 -9239.3245 -7525.6581 298.2219 580.7247 581.6326 30434.8312 105.3722 176.7842
TCL: Running FEP window   6: Lambda1 0.7499999999999998 Lambda2 0.6999999999999997 [dLambda -0.050000000000000044]
TCL: Setting parameter firsttimestep to 0
TCL: Setting parameter alchLambda to 0.7499999999999998
Info: NONBONDED TABLE R-SQUARED SPACING: 0.0625
Info: NONBONDED TABLE SIZE: 705 POINTS
TCL: Setting parameter alchLambda2 to 0.6999999999999997
Info: NONBONDED TABLE R-SQUARED SPACING: 0.0625
Info: NONBONDED TABLE SIZE: 705 POINTS
TCL: Running for 1500000 steps
ETITLE: TS BOND ANGLE DIHED IMPRP ELECT VDW BOUNDARY MISC KINETIC TOTAL TEMP POTENTIAL TOTALAVG TEMPAVG PRESSURE GPRESSURE VOLUME PRESSAVG GPRESSAVG
ENERGY: 0 0.0000 0.3177 0.0000 0.0000 -10741.1619 1502.3847 0.0000 0.0000 1740.6471 -7497.8124 296.9769 -9238.4595 -7497.8124 296.9769 496.8508 582.7486 30434.8312 496.8508 582.7486
ENERGY: 300000 0.0000 0.3188 0.0000 0.0000 -10773.4431 1487.4768 0.0000 0.0000 1761.0669 -7524.5807 300.4608 -9285.6476 -7520.3763 300.2505 341.5813 454.2815 30234.6869 342.0547 423.7098
ENERGY: 600000 0.0000 0.2332 0.0000 0.0000 -10799.5574 1461.0522 0.0000 0.0000 1790.9838 -7547.2884 305.5650 -9338.2721 -7500.0723 301.8613 144.0883 204.2814 30051.0250 59.5363 133.9825
ENERGY: 900000 0.0000 0.0165 0.0000 0.0000 -10863.3495 1513.6110 0.0000 0.0000 1759.9427 -7589.7793 300.2690 -9349.7221 -7508.7362 300.3475 389.4537 461.2576 30464.4828 109.9844 181.4676
ENERGY: 1200000 0.0000 0.0541 0.0000 0.0000 -10698.6146 1436.2407 0.0000 0.0000 1813.3914 -7448.9284 309.3881 -9262.3198 -7494.7961 302.1876 -14.9460 114.4362 30311.8721 91.4725 164.9062
ENERGY: 1500000 0.0000 0.3437 0.0000 0.0000 -10621.9562 1378.4463 0.0000 0.0000 1782.3097 -7460.8566 304.0851 -9243.1662 -7500.7217 301.6777 -565.3917 -507.7763 30814.1806 46.8925 121.1255
TCL: Running FEP window   7: Lambda1 0.6999999999999997 Lambda2 0.6499999999999997 [dLambda -0.050000000000000044]
TCL: Setting parameter firsttimestep to 0
TCL: Setting parameter alchLambda to 0.6999999999999997
Info: NONBONDED TABLE R-SQUARED SPACING: 0.0625
Info: NONBONDED TABLE SIZE: 705 POINTS
TCL: Setting parameter alchLambda2 to 0.6499999999999997
Info: NONBONDED TABLE R-SQUARED SPACING: 0.0625
Info: NONBONDED TABLE SIZE: 705 POINTS
TCL: Running for 1500000 steps
ETITLE: TS BOND ANGLE DIHED IMPRP ELECT VDW BOUNDARY MISC KINETIC TOTAL TEMP POTENTIAL TOTALAVG TEMPAVG PRESSURE GPRESSURE VOLUME PRESSAVG GPRESSAVG
ENERGY: 0 0.0000 0.3437 0.0000 0.0000 -10621.3927 1378.3761 0.0000 0.0000 1781.4615 -7461.2114 303.9404 -9242.6729 -7461.2114 303.9404 -592.9529 -509.8870 30814.1806 -592.9529 -509.8870
ENERGY: 300000 0.0000 0.0531 0.0000 0.0000 -10531.8980 1326.3353 0.0000 0.0000 1763.8697 -7441.6398 300.9390 -9205.5096 -7494.9567 301.2737 -734.1127 -715.8112 30581.6751 -458.2409 -382.8271
ENERGY: 600000 0.0000 0.0198 0.0000 0.0000 -10691.6370 1379.1103 0.0000 0.0000 1854.9021 -7457.6048 316.4703 -9312.5069 -7510.0962 302.7680 -392.3401 -337.5135 30113.9844 -303.3730 -233.8949
ENERGY: 900000 0.0000 0.5523 0.0000 0.0000 -10562.9763 1369.1108 0.0000 0.0000 1769.3967 -7423.9165 301.8820 -9193.3132 -7502.1572 302.5835 -419.7078 -332.2205 30780.8749 -259.8852 -181.9772
ENERGY: 1200000 0.0000 0.1825 0.0000 0.0000 -10850.2798 1511.1044 0.0000 0.0000 1714.8171 -7624.1759 292.5700 -9338.9930 -7514.8412 301.3950 443.7878 494.0347 30256.0160 -151.1119 -77.6815
ENERGY: 1500000 0.0000 0.0142 0.0000 0.0000 -10654.9128 1400.7166 0.0000 0.0000 1734.7513 -7519.4308 295.9710 -9254.1820 -7511.8994 301.6609 -220.7482 -77.5528 30175.4783 -126.2378 -52.2562
TCL: Running FEP window   8: Lambda1 0.6499999999999997 Lambda2 0.5999999999999996 [dLambda -0.050000000000000044]
TCL: Setting parameter firsttimestep to 0
TCL: Setting parameter alchLambda to 0.6499999999999997
Info: NONBONDED TABLE R-SQUARED SPACING: 0.0625
Info: NONBONDED TABLE SIZE: 705 POINTS
TCL: Setting parameter alchLambda2 to 0.5999999999999996
Info: NONBONDED TABLE R-SQUARED SPACING: 0.0625
Info: NONBONDED TABLE SIZE: 705 POINTS
TCL: Running for 1500000 steps
ETITLE: TS BOND ANGLE DIHED IMPRP ELECT VDW BOUNDARY MISC KINETIC TOTAL TEMP POTENTIAL TOTALAVG TEMPAVG PRESSURE GPRESSURE VOLUME PRESSAVG GPRESSAVG
ENERGY: 0 0.0000 0.0142 0.0000 0.0000 -10654.3251 1400.4205 0.0000 0.0000 1733.8751 -7520.0152 295.8215 -9253.8903 -7520.0152 295.8215 -167.4589 -81.3815 30175.4783 -167.4589 -81.3815
ENERGY: 300000 0.0000 0.1975 0.0000 0.0000 -10759.4971 1457.3288 0.0000 0.0000 1720.9765 -7580.9944 293.6209 -9301.9709 -7516.9719 298.5923 -157.9536 -83.1187 30522.0636 139.5853 209.8459
ENERGY: 600000 0.0000 0.0708 0.0000 0.0000 -10590.3264 1352.0333 0.0000 0.0000 1790.4512 -7447.7711 305.4742 -9238.2223 -7525.6255 298.4552 -356.0940 -285.3005 30021.5605 -42.6468 36.2286
ENERGY: 900000 0.0000 0.0364 0.0000 0.0000 -10739.6102 1523.9538 0.0000 0.0000 1760.8245 -7454.7956 300.4195 -9215.6201 -7521.1365 298.1692 694.9050 768.7918 30676.3526 -161.4252 -83.8232
ENERGY: 1200000 0.0000 1.5845 0.0000 0.0000 -10704.3443 1442.9701 0.0000 0.0000 1813.8591 -7445.9307 309.4678 -9259.7897 -7525.8706 298.7002 93.7369 133.6379 30174.7240 -107.3753 -28.6672
ENERGY: 1500000 0.0000 2.5193 0.0000 0.0000 -10774.5663 1441.2339 0.0000 0.0000 1754.3291 -7576.4841 299.3113 -9330.8132 -7522.8074 299.9105 -350.7545 -286.6647 30553.8228 -150.5956 -74.0539
TCL: Running FEP window   9: Lambda1 0.5999999999999996 Lambda2 0.5499999999999996 [dLambda -0.050000000000000044]
TCL: Setting parameter firsttimestep to 0
TCL: Setting parameter alchLambda to 0.5999999999999996
Info: NONBONDED TABLE R-SQUARED SPACING: 0.0625
Info: NONBONDED TABLE SIZE: 705 POINTS
TCL: Setting parameter alchLambda2 to 0.5499999999999996
Info: NONBONDED TABLE R-SQUARED SPACING: 0.0625
Info: NONBONDED TABLE SIZE: 705 POINTS
TCL: Running for 1500000 steps
ETITLE: TS BOND ANGLE DIHED IMPRP ELECT VDW BOUNDARY MISC KINETIC TOTAL TEMP POTENTIAL TOTALAVG TEMPAVG PRESSURE GPRESSURE VOLUME PRESSAVG GPRESSAVG
ENERGY: 0 0.0000 2.5193 0.0000 0.0000 -10774.3634 1441.3797 0.0000 0.0000 1753.4718 -7576.9926 299.1650 -9330.4644 -7576.9926 299.1650 -368.9562 -287.3606 30553.8228 -368.9562 -287.3606
ENERGY: 300000 0.0000 0.0002 0.0000 0.0000 -10799.2960 1449.0050 0.0000 0.0000 1718.4042 -7631.8865 293.1820 -9350.2908 -7560.1055 299.1853 119.4800 184.9926 29694.6859 78.1750 141.2533
ENERGY: 600000 0.0000 0.3299 0.0000 0.0000 -10629.3414 1395.5555 0.0000 0.0000 1765.0636 -7468.3924 301.1427 -9233.4560 -7539.6264 300.2996 -483.4638 -409.9922 30728.7518 30.9951 82.6660
ENERGY: 900000 0.0000 0.6543 0.0000 0.0000 -10658.2803 1372.4496 0.0000 0.0000 1822.7874 -7462.3891 310.9911 -9285.1765 -7533.5467 301.1676 -554.0274 -507.4177 30451.5475 -91.8455 -32.8898
ENERGY: 1200000 0.0000 0.1471 0.0000 0.0000 -10710.6780 1430.7192 0.0000 0.0000 1818.5321 -7461.2796 310.2651 -9279.8117 -7523.9849 301.1717 7.6910 102.3078 30212.1537 -152.9940 -91.1556
ENERGY: 1500000 0.0000 0.2002 0.0000 0.0000 -10785.8745 1443.2284 0.0000 0.0000 1743.4800 -7598.9658 297.4603 -9342.4458 -7526.1419 301.4703 -116.0747 -138.3117 30155.9741 -66.2412 -11.1784
TCL: Running FEP window  10: Lambda1 0.5499999999999996 Lambda2 0.4999999999999996 [dLambda -0.04999999999999999]
TCL: Setting parameter firsttimestep to 0
TCL: Setting parameter alchLambda to 0.5499999999999996
Info: NONBONDED TABLE R-SQUARED SPACING: 0.0625
Info: NONBONDED TABLE SIZE: 705 POINTS
TCL: Setting parameter alchLambda2 to 0.4999999999999996
Info: NONBONDED TABLE R-SQUARED SPACING: 0.0625
Info: NONBONDED TABLE SIZE: 705 POINTS
TCL: Running for 1500000 steps
ETITLE: TS BOND ANGLE DIHED IMPRP ELECT VDW BOUNDARY MISC KINETIC TOTAL TEMP POTENTIAL TOTALAVG TEMPAVG PRESSURE GPRESSURE VOLUME PRESSAVG GPRESSAVG
ENERGY: 0 0.0000 0.2002 0.0000 0.0000 -10785.2480 1443.2527 0.0000 0.0000 1742.5787 -7599.2164 297.3065 -9341.7950 -7599.2164 297.3065 -226.6205 -138.3042 30155.9741 -226.6205 -138.3042
ENERGY: 300000 0.0000 0.0710 0.0000 0.0000 -10666.4402 1375.4958 0.0000 0.0000 1771.7340 -7519.1394 302.2808 -9290.8734 -7555.3848 300.5868 -556.4026 -485.3595 30176.1731 -231.6410 -147.3520
ENERGY: 600000 0.0000 0.1814 0.0000 0.0000 -10511.7384 1329.7512 0.0000 0.0000 1698.1267 -7483.6791 289.7224 -9181.8058 -7531.8256 298.0155 -873.0062 -774.1521 30649.6904 -354.0247 -285.9203
ENERGY: 900000 0.0000 0.5779 0.0000 0.0000 -10602.7693 1393.8148 0.0000 0.0000 1747.7247 -7460.6519 298.1845 -9208.3767 -7505.1155 299.8002 -248.6801 -245.7031 30637.6015 -301.8419 -235.7497
ENERGY: 1200000 0.0000 0.7351 0.0000 0.0000 -10716.9147 1454.6464 0.0000 0.0000 1806.0937 -7455.4395 308.1430 -9261.5332 -7505.0336 300.9206 159.1878 233.9159 30219.5427 -168.8654 -106.0618
ENERGY: 1500000 0.0000 0.0970 0.0000 0.0000 -10703.6925 1383.7911 0.0000 0.0000 1716.2927 -7603.5116 292.8218 -9319.8043 -7517.4352 299.4907 -459.9257 -479.8156 30420.4162 -194.9103 -135.5911
TCL: Running FEP window  11: Lambda1 0.4999999999999996 Lambda2 0.4499999999999996 [dLambda -0.04999999999999999]
TCL: Setting parameter firsttimestep to 0
TCL: Setting parameter alchLambda to 0.4999999999999996
Info: NONBONDED TABLE R-SQUARED SPACING: 0.0625
Info: NONBONDED TABLE SIZE: 705 POINTS
TCL: Setting parameter alchLambda2 to 0.4499999999999996
Info: NONBONDED TABLE R-SQUARED SPACING: 0.0625
Info: NONBONDED TABLE SIZE: 705 POINTS
TCL: Running for 1500000 steps
ETITLE: TS BOND ANGLE DIHED IMPRP ELECT VDW BOUNDARY MISC KINETIC TOTAL TEMP POTENTIAL TOTALAVG TEMPAVG PRESSURE GPRESSURE VOLUME PRESSAVG GPRESSAVG
ENERGY: 0 0.0000 0.0970 0.0000 0.0000 -10703.8690 1383.8734 0.0000 0.0000 1715.4626 -7604.4360 292.6801 -9319.8986 -7604.4360 292.6801 -563.4381 -482.0975 30420.4162 -563.4381 -482.0975
ENERGY: 300000 0.0000 0.0487 0.0000 0.0000 -10895.0440 1560.8960 0.0000 0.0000 1766.9745 -7567.1248 301.4687 -9334.0993 -7535.4922 298.5165 1128.7722 1140.5221 29976.3494 -83.3586 -40.0951
ENERGY: 600000 0.0000 0.3278 0.0000 0.0000 -10748.6344 1448.4530 0.0000 0.0000 1735.9443 -7563.9094 296.1746 -9299.8537 -7539.6330 298.5600 18.8806 153.3582 30111.7964 -188.0097 -124.0598
ENERGY: 900000 0.0000 0.0024 0.0000 0.0000 -10622.6755 1376.2575 0.0000 0.0000 1789.9133 -7456.5023 305.3824 -9246.4156 -7524.2195 299.4343 -476.7670 -445.4678 30691.8412 -218.6278 -157.3760
ENERGY: 1200000 0.0000 1.3936 0.0000 0.0000 -10750.5664 1446.6938 0.0000 0.0000 1762.3357 -7540.1432 300.6773 -9302.4790 -7523.8789 300.2157 -223.1762 -147.1876 30551.8758 -235.9221 -167.2593
ENERGY: 1500000 0.0000 1.0935 0.0000 0.0000 -10881.0163 1508.6063 0.0000 0.0000 1751.6670 -7619.6493 298.8571 -9371.3164 -7528.0519 300.4646 250.2059 304.3626 30335.1774 -246.1640 -181.4223
TCL: Running FEP window  12: Lambda1 0.4499999999999996 Lambda2 0.39999999999999963 [dLambda -0.04999999999999999]
TCL: Setting parameter firsttimestep to 0
TCL: Setting parameter alchLambda to 0.4499999999999996
Info: NONBONDED TABLE R-SQUARED SPACING: 0.0625
Info: NONBONDED TABLE SIZE: 705 POINTS
TCL: Setting parameter alchLambda2 to 0.39999999999999963
Info: NONBONDED TABLE R-SQUARED SPACING: 0.0625
Info: NONBONDED TABLE SIZE: 705 POINTS
TCL: Running for 1500000 steps
ETITLE: TS BOND ANGLE DIHED IMPRP ELECT VDW BOUNDARY MISC KINETIC TOTAL TEMP POTENTIAL TOTALAVG TEMPAVG PRESSURE GPRESSURE VOLUME PRESSAVG GPRESSAVG
ENERGY: 0 0.0000 1.0935 0.0000 0.0000 -10881.0164 1508.5903 0.0000 0.0000 1750.7692 -7620.5634 298.7039 -9371.3326 -7620.5634 298.7039 220.1734 302.8921 30335.1774 220.1734 302.8921
ENERGY: 300000 0.0000 0.8898 0.0000 0.0000 -10788.7863 1514.5919 0.0000 0.0000 1829.2591 -7444.0455 312.0953 -9273.3046 -7533.4036 303.1737 594.5739 655.9663 30592.4376 398.4811 455.5928
ENERGY: 600000 0.0000 0.4098 0.0000 0.0000 -10730.9186 1394.1064 0.0000 0.0000 1727.5223 -7608.8801 294.7377 -9336.4024 -7537.9429 301.1135 -581.5554 -529.9654 30389.0144 160.4331 197.3304
ENERGY: 900000 0.0000 0.0033 0.0000 0.0000 -10786.1362 1467.8926 0.0000 0.0000 1803.5521 -7514.6882 307.7093 -9318.2403 -7529.1572 302.2369 88.1229 240.4271 30238.1073 171.8674 224.9724
ENERGY: 1200000 0.0000 0.0969 0.0000 0.0000 -10624.9496 1423.4541 0.0000 0.0000 1691.9363 -7509.4624 288.6662 -9201.3987 -7524.8651 299.7279 -230.9515 -148.0873 30690.8980 171.3429 224.7306
ENERGY: 1500000 0.0000 0.0049 0.0000 0.0000 -10809.3921 1478.0902 0.0000 0.0000 1745.5912 -7585.7058 297.8205 -9331.2970 -7531.5038 299.1209 -71.0238 -70.1138 30833.5863 188.2241 234.6836
TCL: Running FEP window  13: Lambda1 0.39999999999999963 Lambda2 0.34999999999999964 [dLambda -0.04999999999999999]
TCL: Setting parameter firsttimestep to 0
TCL: Setting parameter alchLambda to 0.39999999999999963
Info: NONBONDED TABLE R-SQUARED SPACING: 0.0625
Info: NONBONDED TABLE SIZE: 705 POINTS
TCL: Setting parameter alchLambda2 to 0.34999999999999964
Info: NONBONDED TABLE R-SQUARED SPACING: 0.0625
Info: NONBONDED TABLE SIZE: 705 POINTS
TCL: Running for 1500000 steps
ETITLE: TS BOND ANGLE DIHED IMPRP ELECT VDW BOUNDARY MISC KINETIC TOTAL TEMP POTENTIAL TOTALAVG TEMPAVG PRESSURE GPRESSURE VOLUME PRESSAVG GPRESSAVG
ENERGY: 0 0.0000 0.0049 0.0000 0.0000 -10809.3924 1478.2641 0.0000 0.0000 1744.7092 -7586.4143 297.6700 -9331.1234 -7586.4143 297.6700 -147.7215 -71.1398 30833.5863 -147.7215 -71.1398
ENERGY: 300000 0.0000 0.0410 0.0000 0.0000 -10776.9975 1477.5010 0.0000 0.0000 1726.6807 -7572.7748 294.5941 -9299.4555 -7574.0587 299.7087 303.4322 318.3710 30087.8832 18.9770 62.2290
ENERGY: 600000 0.0000 0.0507 0.0000 0.0000 -10822.0912 1465.5237 0.0000 0.0000 1767.9502 -7588.5666 301.6352 -9356.5168 -7559.6739 299.0049 -24.6921 30.1426 30349.5573 -136.4775 -85.5998
ENERGY: 900000 0.0000 0.0980 0.0000 0.0000 -10612.1127 1408.9721 0.0000 0.0000 1735.5006 -7467.5420 296.0989 -9203.0427 -7542.0814 298.5571 -263.2914 -185.8053 30654.8830 -115.2145 -60.6848
ENERGY: 1200000 0.0000 0.2310 0.0000 0.0000 -10706.5112 1445.3863 0.0000 0.0000 1725.1888 -7535.7052 294.3395 -9260.8940 -7542.5680 299.0080 53.4036 95.4085 30257.7861 -172.9320 -118.9805
ENERGY: 1500000 0.0000 0.0592 0.0000 0.0000 -10726.4210 1483.0028 0.0000 0.0000 1689.6310 -7553.7281 288.2729 -9243.3590 -7541.9771 298.0753 133.9397 195.3600 30680.7279 -206.9589 -147.1436
TCL: Running FEP window  14: Lambda1 0.34999999999999964 Lambda2 0.29999999999999966 [dLambda -0.04999999999999999]
TCL: Setting parameter firsttimestep to 0
TCL: Setting parameter alchLambda to 0.34999999999999964
Info: NONBONDED TABLE R-SQUARED SPACING: 0.0625
Info: NONBONDED TABLE SIZE: 705 POINTS
TCL: Setting parameter alchLambda2 to 0.29999999999999966
Info: NONBONDED TABLE R-SQUARED SPACING: 0.0625
Info: NONBONDED TABLE SIZE: 705 POINTS
TCL: Running for 1500000 steps
ETITLE: TS BOND ANGLE DIHED IMPRP ELECT VDW BOUNDARY MISC KINETIC TOTAL TEMP POTENTIAL TOTALAVG TEMPAVG PRESSURE GPRESSURE VOLUME PRESSAVG GPRESSAVG
ENERGY: 0 0.0000 0.0592 0.0000 0.0000 -10726.4224 1482.9330 0.0000 0.0000 1688.7785 -7554.6517 288.1275 -9243.4302 -7554.6517 288.1275 100.6469 194.2118 30680.7279 100.6469 194.2118
ENERGY: 300000 0.0000 0.1814 0.0000 0.0000 -10708.9559 1404.4210 0.0000 0.0000 1772.1787 -7532.1748 302.3566 -9304.3535 -7539.2545 296.5824 -188.5193 -156.6982 29835.5067 40.9019 104.7090
ENERGY: 600000 0.0000 0.5054 0.0000 0.0000 -10585.8869 1337.1712 0.0000 0.0000 1715.7250 -7532.4853 292.7249 -9248.2103 -7528.2692 299.3115 -874.9755 -751.2461 30443.5312 -145.3542 -72.6471
ENERGY: 900000 0.0000 0.1854 0.0000 0.0000 -10810.8456 1513.4142 0.0000 0.0000 1743.3474 -7553.8987 297.4376 -9297.2461 -7535.8403 298.5016 288.1481 393.7974 30670.8763 -153.1164 -76.4330
ENERGY: 1200000 0.0000 0.0379 0.0000 0.0000 -10791.1631 1456.6852 0.0000 0.0000 1785.5236 -7548.9163 304.6334 -9334.4399 -7525.4900 300.5226 23.6295 126.0921 30063.2968 -122.3959 -56.9820
ENERGY: 1500000 0.0000 0.4163 0.0000 0.0000 -10853.8547 1516.6306 0.0000 0.0000 1783.4702 -7553.3376 304.2831 -9336.8078 -7521.5106 301.0750 403.8146 559.8016 30241.6839 -179.4732 -109.3401
TCL: Running FEP window  15: Lambda1 0.29999999999999966 Lambda2 0.24999999999999967 [dLambda -0.04999999999999999]
TCL: Setting parameter firsttimestep to 0
TCL: Setting parameter alchLambda to 0.29999999999999966
Info: NONBONDED TABLE R-SQUARED SPACING: 0.0625
Info: NONBONDED TABLE SIZE: 705 POINTS
TCL: Setting parameter alchLambda2 to 0.24999999999999967
Info: NONBONDED TABLE R-SQUARED SPACING: 0.0625
Info: NONBONDED TABLE SIZE: 705 POINTS
TCL: Running for 1500000 steps
ETITLE: TS BOND ANGLE DIHED IMPRP ELECT VDW BOUNDARY MISC KINETIC TOTAL TEMP POTENTIAL TOTALAVG TEMPAVG PRESSURE GPRESSURE VOLUME PRESSAVG GPRESSAVG
ENERGY: 0 0.0000 0.4163 0.0000 0.0000 -10853.8549 1515.9606 0.0000 0.0000 1782.5973 -7554.8807 304.1342 -9337.4780 -7554.8807 304.1342 474.2017 552.4935 30241.6839 474.2017 552.4935
ENERGY: 300000 0.0000 0.0933 0.0000 0.0000 -10749.8284 1478.0415 0.0000 0.0000 1753.7714 -7517.9222 299.2161 -9271.6936 -7554.3295 301.0904 91.1928 143.4225 30634.6210 242.9230 293.6389
ENERGY: 600000 0.0000 1.8554 0.0000 0.0000 -10664.5313 1395.0655 0.0000 0.0000 1751.6715 -7515.9391 298.8578 -9267.6105 -7522.2063 303.4193 -570.3277 -494.6022 30646.2187 162.8636 224.0289
ENERGY: 900000 0.0000 0.0437 0.0000 0.0000 -10618.4501 1437.8774 0.0000 0.0000 1777.4475 -7403.0815 303.2556 -9180.5290 -7508.2726 302.9351 80.6217 136.7307 30716.8736 128.9443 186.9950
ENERGY: 1200000 0.0000 0.0114 0.0000 0.0000 -10724.8441 1454.3978 0.0000 0.0000 1768.5661 -7501.8687 301.7403 -9270.4349 -7518.1834 301.3070 171.1976 222.6722 30113.3957 39.9955 93.4126
ENERGY: 1500000 0.0000 0.0071 0.0000 0.0000 -10731.5915 1448.2148 0.0000 0.0000 1739.5291 -7543.8405 296.7862 -9283.3696 -7518.7234 300.4199 79.8708 104.2313 30191.3757 42.2441 97.2368
TCL: Running FEP window  16: Lambda1 0.24999999999999967 Lambda2 0.19999999999999968 [dLambda -0.04999999999999999]
TCL: Setting parameter firsttimestep to 0
TCL: Setting parameter alchLambda to 0.24999999999999967
Info: NONBONDED TABLE R-SQUARED SPACING: 0.0625
Info: NONBONDED TABLE SIZE: 705 POINTS
TCL: Setting parameter alchLambda2 to 0.19999999999999968
Info: NONBONDED TABLE R-SQUARED SPACING: 0.0625
Info: NONBONDED TABLE SIZE: 705 POINTS
TCL: Running for 1500000 steps
ETITLE: TS BOND ANGLE DIHED IMPRP ELECT VDW BOUNDARY MISC KINETIC TOTAL TEMP POTENTIAL TOTALAVG TEMPAVG PRESSURE GPRESSURE VOLUME PRESSAVG GPRESSAVG
ENERGY: 0 0.0000 0.0071 0.0000 0.0000 -10731.5934 1448.1086 0.0000 0.0000 1738.6778 -7544.7998 296.6410 -9283.4776 -7544.7998 296.6410 6.0721 101.4961 30191.3757 6.0721 101.4961
ENERGY: 300000 0.0000 0.4822 0.0000 0.0000 -10683.4690 1418.6552 0.0000 0.0000 1752.5863 -7511.7453 299.0139 -9264.3316 -7554.8553 297.4430 -357.2692 -347.2618 30816.1312 -184.3260 -118.8645
ENERGY: 600000 0.0000 0.6863 0.0000 0.0000 -10773.1246 1465.2585 0.0000 0.0000 1799.9559 -7507.2239 307.0958 -9307.1798 -7536.3729 302.1840 282.2023 340.3668 30075.0180 -67.7603 -3.0119
ENERGY: 900000 0.0000 0.6912 0.0000 0.0000 -10730.2511 1470.2083 0.0000 0.0000 1710.8997 -7548.4519 291.9016 -9259.3516 -7531.5624 300.3893 483.6431 510.4955 29984.3401 -38.3927 25.6268
ENERGY: 1200000 0.0000 0.5684 0.0000 0.0000 -10820.4619 1506.9785 0.0000 0.0000 1737.4247 -7575.4902 296.4271 -9312.9149 -7546.0103 298.9391 466.3846 544.0254 30105.5465 28.4387 90.6067
ENERGY: 1500000 0.0000 0.1920 0.0000 0.0000 -10665.7508 1365.2013 0.0000 0.0000 1721.5463 -7578.8111 293.7181 -9300.3575 -7550.9872 298.5195 -760.0751 -749.4629 30487.2062 -35.0433 17.3074
TCL: Running FEP window  17: Lambda1 0.19999999999999968 Lambda2 0.1499999999999997 [dLambda -0.04999999999999999]
TCL: Setting parameter firsttimestep to 0
TCL: Setting parameter alchLambda to 0.19999999999999968
Info: NONBONDED TABLE R-SQUARED SPACING: 0.0625
Info: NONBONDED TABLE SIZE: 705 POINTS
TCL: Setting parameter alchLambda2 to 0.1499999999999997
Info: NONBONDED TABLE R-SQUARED SPACING: 0.0625
Info: NONBONDED TABLE SIZE: 705 POINTS
TCL: Running for 1500000 steps
ETITLE: TS BOND ANGLE DIHED IMPRP ELECT VDW BOUNDARY MISC KINETIC TOTAL TEMP POTENTIAL TOTALAVG TEMPAVG PRESSURE GPRESSURE VOLUME PRESSAVG GPRESSAVG
ENERGY: 0 0.0000 0.1920 0.0000 0.0000 -10665.7499 1365.2995 0.0000 0.0000 1720.7039 -7579.5545 293.5744 -9300.2585 -7579.5545 293.5744 -825.2269 -751.1589 30487.2062 -825.2269 -751.1589
ENERGY: 300000 0.0000 0.3211 0.0000 0.0000 -10666.8807 1394.9821 0.0000 0.0000 1770.2830 -7501.2944 302.0332 -9271.5774 -7530.9598 297.1953 -374.6055 -278.0094 30371.7567 -403.8853 -314.2640
ENERGY: 600000 0.0000 0.0833 0.0000 0.0000 -10572.3633 1361.0267 0.0000 0.0000 1731.7780 -7479.4752 295.4638 -9211.2532 -7525.1574 298.0807 -770.8882 -734.3187 31003.4175 -238.5166 -150.3189
ENERGY: 900000 0.0000 0.0820 0.0000 0.0000 -10672.0212 1426.6024 0.0000 0.0000 1871.2286 -7374.1082 319.2558 -9245.3368 -7515.6541 299.9716 87.1883 180.0695 30205.0927 -174.1614 -88.9964
ENERGY: 1200000 0.0000 0.7493 0.0000 0.0000 -10636.0007 1402.1352 0.0000 0.0000 1782.1632 -7450.9530 304.0601 -9233.1162 -7522.9576 298.7270 -496.0794 -415.2143 31169.6396 -167.6349 -82.9881
ENERGY: 1500000 0.0000 0.4101 0.0000 0.0000 -10720.0448 1501.1877 0.0000 0.0000 1713.3858 -7505.0611 292.3258 -9218.4470 -7518.1965 299.4971 303.0065 363.5088 30722.6345 -128.4566 -50.2295
TCL: Running FEP window  18: Lambda1 0.1499999999999997 Lambda2 0.09999999999999969 [dLambda -0.05 ]
TCL: Setting parameter firsttimestep to 0
TCL: Setting parameter alchLambda to 0.1499999999999997
Info: NONBONDED TABLE R-SQUARED SPACING: 0.0625
Info: NONBONDED TABLE SIZE: 705 POINTS
TCL: Setting parameter alchLambda2 to 0.09999999999999969
Info: NONBONDED TABLE R-SQUARED SPACING: 0.0625
Info: NONBONDED TABLE SIZE: 705 POINTS
TCL: Running for 1500000 steps
ETITLE: TS BOND ANGLE DIHED IMPRP ELECT VDW BOUNDARY MISC KINETIC TOTAL TEMP POTENTIAL TOTALAVG TEMPAVG PRESSURE GPRESSURE VOLUME PRESSAVG GPRESSAVG
ENERGY: 0 0.0000 0.4101 0.0000 0.0000 -10720.0458 1500.3299 0.0000 0.0000 1712.4978 -7506.8080 292.1743 -9219.3058 -7506.8080 292.1743 284.0077 360.3538 30722.6345 284.0077 360.3538
ENERGY: 300000 0.0000 0.0056 0.0000 0.0000 -10878.0234 1544.9926 0.0000 0.0000 1760.1611 -7572.8641 300.3063 -9333.0252 -7515.1183 299.0267 852.7197 836.1257 29936.9841 328.9010 360.2642
ENERGY: 600000 0.0000 0.2128 0.0000 0.0000 -10652.1085 1410.3298 0.0000 0.0000 1736.7586 -7504.8074 296.3135 -9241.5660 -7508.8609 299.2947 -15.5903 68.0308 30039.9642 147.9555 196.0170
ENERGY: 900000 0.0000 0.0103 0.0000 0.0000 -10542.3316 1301.8553 0.0000 0.0000 1760.2048 -7480.2612 300.3137 -9240.4659 -7511.5934 299.4165 -1034.4414 -994.0517 30600.8415 14.7521 58.8380
ENERGY: 1200000 0.0000 0.0506 0.0000 0.0000 -10587.5215 1349.0140 0.0000 0.0000 1712.6495 -7525.8074 292.2002 -9238.4569 -7510.2880 298.6647 -661.7285 -644.2869 30549.3057 -16.8114 30.4494
ENERGY: 1500000 0.0000 0.4778 0.0000 0.0000 -10806.7046 1420.2982 0.0000 0.0000 1715.1618 -7670.7669 292.6288 -9385.9286 -7527.5754 297.7874 -507.5187 -440.7621 30304.1431 -96.7408 -45.6501
TCL: Running FEP window  19: Lambda1 0.09999999999999969 Lambda2 0.049999999999999684 [dLambda -0.05 ]
TCL: Setting parameter firsttimestep to 0
TCL: Setting parameter alchLambda to 0.09999999999999969
Info: NONBONDED TABLE R-SQUARED SPACING: 0.0625
Info: NONBONDED TABLE SIZE: 705 POINTS
TCL: Setting parameter alchLambda2 to 0.049999999999999684
Info: NONBONDED TABLE R-SQUARED SPACING: 0.0625
Info: NONBONDED TABLE SIZE: 705 POINTS
TCL: Running for 1500000 steps
ETITLE: TS BOND ANGLE DIHED IMPRP ELECT VDW BOUNDARY MISC KINETIC TOTAL TEMP POTENTIAL TOTALAVG TEMPAVG PRESSURE GPRESSURE VOLUME PRESSAVG GPRESSAVG
ENERGY: 0 0.0000 0.4778 0.0000 0.0000 -10806.7058 1420.3752 0.0000 0.0000 1714.2932 -7671.5596 292.4806 -9385.8528 -7671.5596 292.4806 -512.6239 -440.8796 30304.1431 -512.6239 -440.8796
ENERGY: 300000 0.0000 0.0912 0.0000 0.0000 -10785.9408 1443.0943 0.0000 0.0000 1756.8706 -7585.8847 299.7449 -9342.7554 -7580.5496 294.9369 198.3284 264.3690 29669.2863 -175.1463 -123.4815
ENERGY: 600000 0.0000 0.0711 0.0000 0.0000 -10674.1439 1459.5939 0.0000 0.0000 1734.3119 -7480.1671 295.8961 -9214.4790 -7551.3729 296.6332 232.1348 257.1907 30516.0247 -134.4424 -87.6149
ENERGY: 900000 0.0000 0.0314 0.0000 0.0000 -10671.9505 1394.2450 0.0000 0.0000 1750.0502 -7527.6240 298.5812 -9277.6742 -7549.6221 296.8310 -510.7015 -456.4735 30565.3750 -183.7577 -128.5890
ENERGY: 1200000 0.0000 0.0009 0.0000 0.0000 -10642.4436 1383.4892 0.0000 0.0000 1774.6886 -7484.2648 302.7849 -9258.9535 -7543.8461 297.8299 -278.2532 -211.5094 30122.1803 -112.1186 -60.3121
ENERGY: 1500000 0.0000 0.3029 0.0000 0.0000 -10575.3380 1299.7000 0.0000 0.0000 1726.5382 -7548.7968 294.5698 -9275.3351 -7544.2281 298.3316 -1025.7014 -942.6389 30116.3612 -197.5764 -136.9236
TCL: Running FEP window  20: Lambda1 0.049999999999999684 Lambda2 0.0    [dLambda -0.049999999999999684]
TCL: Setting parameter firsttimestep to 0
TCL: Setting parameter alchLambda to 0.049999999999999684
Info: NONBONDED TABLE R-SQUARED SPACING: 0.0625
Info: NONBONDED TABLE SIZE: 705 POINTS
TCL: Setting parameter alchLambda2 to 0.0
Info: NONBONDED TABLE R-SQUARED SPACING: 0.0625
Info: NONBONDED TABLE SIZE: 705 POINTS
TCL: Running for 1500000 steps
ETITLE: TS BOND ANGLE DIHED IMPRP ELECT VDW BOUNDARY MISC KINETIC TOTAL TEMP POTENTIAL TOTALAVG TEMPAVG PRESSURE GPRESSURE VOLUME PRESSAVG GPRESSAVG
ENERGY: 0 0.0000 0.3029 0.0000 0.0000 -10575.3367 1299.5672 0.0000 0.0000 1725.6703 -7549.7962 294.4217 -9275.4665 -7549.7962 294.4217 -1038.3967 -942.9969 30116.3612 -1038.3967 -942.9969
ENERGY: 300000 0.0000 0.3364 0.0000 0.0000 -10640.0977 1391.6214 0.0000 0.0000 1797.1696 -7450.9703 306.6204 -9248.1399 -7508.0974 302.0813 -477.6671 -384.6964 30596.4115 -322.9875 -273.0765
ENERGY: 600000 0.0000 0.0450 0.0000 0.0000 -10691.3668 1413.5119 0.0000 0.0000 1704.8146 -7572.9953 290.8634 -9277.8099 -7503.1456 298.6461 -209.1766 -147.2153 30070.9746 -116.8832 -69.6393
ENERGY: 900000 0.0000 0.0113 0.0000 0.0000 -10681.0230 1374.6062 0.0000 0.0000 1732.5777 -7573.8278 295.6002 -9306.4054 -7521.2388 298.3270 -754.0644 -664.6672 30663.5645 -164.0020 -111.4110
ENERGY: 1200000 0.0000 0.1405 0.0000 0.0000 -10742.9479 1399.0278 0.0000 0.0000 1738.6497 -7605.1300 296.6362 -9343.7797 -7520.4292 299.2697 -537.4226 -453.9465 30173.1311 -227.5223 -174.1454
ENERGY: 1500000 0.0000 1.3121 0.0000 0.0000 -10653.7692 1404.5508 0.0000 0.0000 1736.0794 -7511.8269 296.1976 -9247.9063 -7517.5871 299.7824 -549.6116 -480.7538 30947.7252 -261.5590 -204.0338
TCL: Exiting due to exit command.
