Info: SIMULATION PARAMETERS:
Info: TIMESTEP               2
Info: NUMBER OF STEPS        0
Info: STEPS PER CYCLE        10
Info: PERIODIC CELL BASIS 1  35.89 0 0
Info: PERIODIC CELL BASIS 2  0 34.26 0
Info: PERIODIC CELL BASIS 3  0 0 35.723
Info: PERIODIC CELL CENTER   0 0 0
Info: WRAPPING WATERS AROUND PERIODIC BOUNDARIES ON OUTPUT.
Info: WRAPPING ALL CLUSTERS AROUND PERIODIC BOUNDARIES ON OUTPUT.
Info: FIRST LDB TIMESTEP     50
Info: LAST LDB TIMESTEP     -1
Info: HOM BACKGROUND SCALING 1
Info: PME BACKGROUND SCALING 1
Info: MIN ATOMS PER PATCH    40
Info: EMPTY PATCH LOAD       40 ATOMS
Info: INITIAL TEMPERATURE    300
Info: CENTER OF MASS MOVING INITIALLY? NO
Info: DIELECTRIC             1
Info: EXCLUDE                SCALED ONE-FOUR
Info: 1-4 ELECTROSTATICS SCALED BY 0.833333
Info: MODIFIED 1-4 VDW PARAMETERS WILL BE USED
Info: DCD FILENAME           mobley_1520842_equil.dcd
Info: DCD FREQUENCY          100000
Info: DCD FIRST STEP         100000
Info: DCD FILE WILL CONTAIN UNIT CELL DATA
Info: XST FILENAME           mobley_1520842_equil.xst
Info: XST FREQUENCY          100000
Info: NO VELOCITY DCD OUTPUT
Info: NO FORCE DCD OUTPUT
Info: OUTPUT FILENAME        mobley_1520842_equil
Info: BINARY OUTPUT FILES WILL BE USED
Info: RESTART FILENAME       mobley_1520842_equil.restart
Info: RESTART FREQUENCY      100000
Info: BINARY RESTART FILES WILL BE USED
Info: CUTOFF                 9
Info: PAIRLIST DISTANCE      11
Info: PAIRLIST SHRINK RATE   0.01
Info: PAIRLIST GROW RATE     0.01
Info: PAIRLIST TRIGGER       0.3
Info: PAIRLISTS PER CYCLE    2
Info: PAIRLISTS ENABLED
Info: MARGIN                 8
Info: HYDROGEN GROUP CUTOFF  2.5
Info: PATCH DIMENSION        21.5
Info: ENERGY OUTPUT STEPS    100000
Info: ENERGY EVALUATION STEPS    100000
Info: OUTPUT ENERGY PRECISION 4
Info: CROSSTERM ENERGY INCLUDED IN DIHEDRAL
Info: TIMING OUTPUT STEPS    1000000
Info: PRESSURE OUTPUT STEPS  100000
Info: LANGEVIN DYNAMICS ACTIVE
Info: LANGEVIN TEMPERATURE   30
Info: LANGEVIN USING BBK INTEGRATOR
Info: LANGEVIN DAMPING COEFFICIENT IS 1 INVERSE PS
Info: LANGEVIN DYNAMICS APPLIED TO HYDROGENS
Info: LANGEVIN PISTON PRESSURE CONTROL ACTIVE
Info:        TARGET PRESSURE IS 1.01325 BAR
Info:     OSCILLATION PERIOD IS 50 FS
Info:             DECAY TIME IS 25 FS
Info:     PISTON TEMPERATURE IS 300 K
Info:       PRESSURE CONTROL IS GROUP-BASED
Info:    INITIAL STRAIN RATE IS 0 0 0
Info:       CELL FLUCTUATION IS ISOTROPIC
Info: PARTICLE MESH EWALD (PME) ACTIVE
Info: PME TOLERANCE               1e-06
Info: PME EWALD COEFFICIENT       0.348832
Info: PME INTERPOLATION ORDER     4
Info: PME GRID DIMENSIONS         36 36 36
Info: PME MAXIMUM GRID SPACING    1
Info: FULL ELECTROSTATIC EVALUATION FREQUENCY      2
Info: USING VERLET I (r-RESPA) MTS SCHEME.
Info: C1 SPLITTING OF LONG RANGE ELECTROSTATICS
Info: PLACING ATOMS IN PATCHES BY HYDROGEN GROUPS
Info: RIGID BONDS TO HYDROGEN : ALL
Info:         ERROR TOLERANCE : 1e-08
Info:          MAX ITERATIONS : 100
Info: RIGID WATER USING SETTLE ALGORITHM
Info: RANDOM NUMBER SEED     1743210527
Info: USE HYDROGEN BONDS?    NO
Info: Using AMBER format force field!
Info: AMBER PARM FILE        mobley_1520842.prmtop
Info: COORDINATE PDB         mobley_1520842.pdb
Info: Exclusions will be read from PARM file!
Info: SCNB (VDW SCALING)     2
Info: USING ARITHMETIC MEAN TO COMBINE L-J SIGMA PARAMETERS
Info: BINARY COORDINATES     mobley_1520842_min.coor
Info: SUMMARY OF PARAMETERS:
Info: 8 BONDS
Info: 9 ANGLES
Info:   9 HARMONIC
Info:   0 COSINE-BASED
Info: 4 DIHEDRAL
Info: 0 IMPROPER
Info: 0 CROSSTERM
Info: 0 VDW
Info: 36 VDW_PAIRS
Info: 0 NBTHOLE_PAIRS
Info: STRUCTURE SUMMARY:
Info: 2927 ATOMS
Info: 2927 BONDS
Info: 22 ANGLES
Info: 31 DIHEDRALS
Info: 0 IMPROPERS
Info: 0 CROSSTERMS
Info: 2972 EXCLUSIONS
Info: 2920 RIGID BONDS
Info: 5861 DEGREES OF FREEDOM
Info: 978 HYDROGEN GROUPS
Info: 4 ATOMS IN LARGEST HYDROGEN GROUP
Info: 978 MIGRATION GROUPS
Info: 4 ATOMS IN LARGEST MIGRATION GROUP
Info: TOTAL MASS = 17586.7 amu
Info: TOTAL CHARGE = 9.99868e-05 e
Info: MASS DENSITY = 0.664866 g/cm^3
Info: ATOM DENSITY = 0.0666368 atoms/A^3
Info: ADDED 0 IMPLICIT EXCLUSIONS
Info: NONBONDED TABLE R-SQUARED SPACING: 0.0625
Info: NONBONDED TABLE SIZE: 705 POINTS
Info: REMOVING COM VELOCITY 0.0164952 0.00236446 0.000829837
TCL: Running for 100000 steps
ETITLE: TS BOND ANGLE DIHED IMPRP ELECT VDW BOUNDARY MISC KINETIC TOTAL TEMP POTENTIAL TOTAL3 TEMPAVG PRESSURE GPRESSURE VOLUME PRESSAVG GPRESSAVG
ENERGY: 0 0.1528 0.2437 0.0104 0.0000 -13535.5599 2371.5765 0.0000 0.0000 1753.9629 -9409.6135 301.1890 -11163.5764 -9409.2605 301.1890 379.8181 415.5099 43924.6936 379.8181 415.5099
ENERGY: 100000 0.2496 0.7301 0.3895 0.0000 -14167.2589 2448.5304 0.0000 0.0000 180.2976 -11537.0616 30.9606 -11717.3593 -11536.7376 30.9165 -14.3490 17.2946 28191.5545 4.3872 4.3342
TCL: Running 100000 steps at 60 kelvin.
TCL: Setting parameter langevinTemp to 60
TCL: Running for 100000 steps
ETITLE: TS BOND ANGLE DIHED IMPRP ELECT VDW BOUNDARY MISC KINETIC TOTAL TEMP POTENTIAL TOTAL3 TEMPAVG PRESSURE GPRESSURE VOLUME PRESSAVG GPRESSAVG
ENERGY: 100000 0.2496 0.7301 0.3895 0.0000 -14167.2589 2448.5304 0.0000 0.0000 180.2109 -11537.1483 30.9457 -11717.3593 -11536.6622 30.9457 -23.7959 17.0701 28191.5545 -23.7959 17.0701
ENERGY: 200000 0.4222 0.9725 0.6377 0.0000 -13930.0305 2331.6793 0.0000 0.0000 350.4914 -11245.8274 60.1861 -11596.3188 -11244.7142 59.9229 -602.4475 -552.7977 28351.9414 4.2460 4.2362
TCL: Running 100000 steps at 90 kelvin.
TCL: Setting parameter langevinTemp to 90
TCL: Running for 100000 steps
ETITLE: TS BOND ANGLE DIHED IMPRP ELECT VDW BOUNDARY MISC KINETIC TOTAL TEMP POTENTIAL TOTAL3 TEMPAVG PRESSURE GPRESSURE VOLUME PRESSAVG GPRESSAVG
ENERGY: 200000 0.4222 0.9725 0.6377 0.0000 -13930.0305 2331.6793 0.0000 0.0000 350.3175 -11246.0013 60.1562 -11596.3188 -11245.2199 60.1562 -611.6875 -552.5247 28351.9414 -611.6875 -552.5247
ENERGY: 300000 1.0398 2.1243 0.3115 0.0000 -13953.5930 2429.5977 0.0000 0.0000 541.9371 -10978.5826 93.0610 -11520.5197 -10977.4068 89.8888 614.5732 679.1035 28170.9268 5.4853 5.4662
TCL: Running 100000 steps at 120 kelvin.
TCL: Setting parameter langevinTemp to 120
TCL: Running for 100000 steps
ETITLE: TS BOND ANGLE DIHED IMPRP ELECT VDW BOUNDARY MISC KINETIC TOTAL TEMP POTENTIAL TOTAL3 TEMPAVG PRESSURE GPRESSURE VOLUME PRESSAVG GPRESSAVG
ENERGY: 300000 1.0398 2.1243 0.3115 0.0000 -13953.5930 2429.5977 0.0000 0.0000 541.6868 -10978.8329 93.0180 -11520.5197 -10978.0154 93.0180 618.7888 679.6651 28170.9268 618.7888 679.6651
ENERGY: 400000 0.6810 3.5821 0.8673 0.0000 -13699.2127 2299.7185 0.0000 0.0000 689.1828 -10705.1811 118.3459 -11394.3638 -10703.0362 120.2071 -210.8725 -130.3111 28614.2142 3.3423 3.2628
TCL: Running 100000 steps at 150 kelvin.
TCL: Setting parameter langevinTemp to 150
TCL: Running for 100000 steps
ETITLE: TS BOND ANGLE DIHED IMPRP ELECT VDW BOUNDARY MISC KINETIC TOTAL TEMP POTENTIAL TOTAL3 TEMPAVG PRESSURE GPRESSURE VOLUME PRESSAVG GPRESSAVG
ENERGY: 400000 0.6810 3.5821 0.8673 0.0000 -13699.2127 2299.7185 0.0000 0.0000 688.8210 -10705.5429 118.2837 -11394.3638 -10704.0633 118.2837 -189.9903 -129.9510 28614.2142 -189.9903 -129.9510
ENERGY: 500000 0.8894 1.8727 1.3010 0.0000 -13537.7388 2330.1177 0.0000 0.0000 855.4481 -10348.1099 146.8968 -11203.5580 -10347.1274 149.8878 939.8199 1030.3205 28385.8825 4.0223 3.9591
TCL: Running 100000 steps at 180 kelvin.
TCL: Setting parameter langevinTemp to 180
TCL: Running for 100000 steps
ETITLE: TS BOND ANGLE DIHED IMPRP ELECT VDW BOUNDARY MISC KINETIC TOTAL TEMP POTENTIAL TOTAL3 TEMPAVG PRESSURE GPRESSURE VOLUME PRESSAVG GPRESSAVG
ENERGY: 500000 0.8894 1.8727 1.3010 0.0000 -13537.7388 2330.1177 0.0000 0.0000 855.0242 -10348.5338 146.8240 -11203.5580 -10346.9083 146.8240 964.2399 1029.6140 28385.8825 964.2399 1029.6140
ENERGY: 600000 1.2315 3.7474 2.3436 0.0000 -12949.7182 2050.9876 0.0000 0.0000 1053.3972 -9838.0109 180.8884 -10891.4081 -9834.1914 180.0857 -230.4883 -181.9318 28692.0547 3.8933 3.7339
TCL: Running 100000 steps at 210 kelvin.
TCL: Setting parameter langevinTemp to 210
TCL: Running for 100000 steps
ETITLE: TS BOND ANGLE DIHED IMPRP ELECT VDW BOUNDARY MISC KINETIC TOTAL TEMP POTENTIAL TOTAL3 TEMPAVG PRESSURE GPRESSURE VOLUME PRESSAVG GPRESSAVG
ENERGY: 600000 1.2315 3.7474 2.3436 0.0000 -12949.7182 2050.9876 0.0000 0.0000 1052.8695 -9838.5386 180.7978 -10891.4081 -9836.4399 180.7978 -247.9938 -180.1651 28692.0547 -247.9938 -180.1651
ENERGY: 700000 1.2045 3.3722 4.3430 0.0000 -12290.7829 1844.4357 0.0000 0.0000 1227.5882 -9209.8394 210.8004 -10437.4276 -9207.5587 210.0019 -579.0968 -429.1169 28700.3630 3.5125 3.3997
TCL: Running 100000 steps at 240 kelvin.
TCL: Setting parameter langevinTemp to 240
TCL: Running for 100000 steps
ETITLE: TS BOND ANGLE DIHED IMPRP ELECT VDW BOUNDARY MISC KINETIC TOTAL TEMP POTENTIAL TOTAL3 TEMPAVG PRESSURE GPRESSURE VOLUME PRESSAVG GPRESSAVG
ENERGY: 700000 1.2045 3.3722 4.3430 0.0000 -12290.7829 1844.4357 0.0000 0.0000 1226.9495 -9210.4780 210.6907 -10437.4276 -9208.0536 210.6907 -506.7358 -429.2932 28700.3630 -506.7358 -429.2932
ENERGY: 800000 2.9345 3.3178 1.3337 0.0000 -11895.0155 1849.8470 0.0000 0.0000 1457.7426 -8579.8398 250.3223 -10037.5825 -8579.0961 240.1621 1542.3515 1609.5195 28274.6584 3.2854 3.1698
TCL: Running 100000 steps at 270 kelvin.
TCL: Setting parameter langevinTemp to 270
TCL: Running for 100000 steps
ETITLE: TS BOND ANGLE DIHED IMPRP ELECT VDW BOUNDARY MISC KINETIC TOTAL TEMP POTENTIAL TOTAL3 TEMPAVG PRESSURE GPRESSURE VOLUME PRESSAVG GPRESSAVG
ENERGY: 800000 2.9345 3.3178 1.3337 0.0000 -11895.0155 1849.8470 0.0000 0.0000 1457.0373 -8580.5451 250.2012 -10037.5825 -8578.2499 250.2012 1522.1924 1606.9142 28274.6584 1522.1924 1606.9142
ENERGY: 900000 0.7026 2.4969 2.2993 0.0000 -11163.4360 1533.8335 0.0000 0.0000 1560.5739 -8063.5298 267.9804 -9624.1037 -8061.1678 270.0974 -375.4979 -312.5557 29604.6421 3.8640 3.8033
TCL: Running 1000000 steps at 300 kelvin.
TCL: Setting parameter langevinTemp to 300
TCL: Running for 1000000 steps
ETITLE: TS BOND ANGLE DIHED IMPRP ELECT VDW BOUNDARY MISC KINETIC TOTAL TEMP POTENTIAL TOTAL3 TEMPAVG PRESSURE GPRESSURE VOLUME PRESSAVG GPRESSAVG
ENERGY: 900000 0.7026 2.4969 2.2993 0.0000 -11163.4360 1533.8335 0.0000 0.0000 1559.8187 -8064.2849 267.8507 -9624.1037 -8061.8698 267.8507 -388.5169 -313.7118 29604.6421 -388.5169 -313.7118
ENERGY: 1100000 1.7589 1.9324 3.6009 0.0000 -10659.8351 1388.3143 0.0000 0.0000 1797.1835 -7467.0450 308.6108 -9264.2286 -7463.1678 300.4136 -46.8120 61.2979 29708.6397 3.3920 3.2130
ENERGY: 1300000 2.7106 4.1645 2.6302 0.0000 -10665.9890 1459.8641 0.0000 0.0000 1729.5344 -7467.0852 296.9941 -9196.6196 -7462.4667 300.4064 390.5964 410.8626 30259.6470 3.1518 3.1500
ENERGY: 1500000 1.0758 2.9692 2.4525 0.0000 -10655.1716 1385.7144 0.0000 0.0000 1781.1786 -7481.7811 305.8624 -9262.9597 -7475.4662 300.0340 -393.7752 -339.8036 30070.6743 2.8461 3.1385
ENERGY: 1700000 4.1170 4.2162 1.7008 0.0000 -10431.6408 1283.9643 0.0000 0.0000 1708.1704 -7429.4722 293.3255 -9137.6426 -7423.4228 300.6610 -1423.9027 -1321.0640 30665.7908 3.3004 3.1183
ENERGY: 1900000 2.1973 3.4636 0.4094 0.0000 -10839.7110 1527.8704 0.0000 0.0000 1728.7405 -7577.0298 296.8578 -9305.7703 -7573.5944 299.9773 777.4196 838.6544 29699.9935 4.0373 3.9786
TCL: Exiting due to exit command.
