Info: SIMULATION PARAMETERS:
Info: TIMESTEP               2
Info: NUMBER OF STEPS        0
Info: STEPS PER CYCLE        10
Info: PERIODIC CELL BASIS 1  36.281 0 0
Info: PERIODIC CELL BASIS 2  0 34.26 0
Info: PERIODIC CELL BASIS 3  0 0 35.723
Info: PERIODIC CELL CENTER   0 0 0
Info: WRAPPING WATERS AROUND PERIODIC BOUNDARIES ON OUTPUT.
Info: WRAPPING ALL CLUSTERS AROUND PERIODIC BOUNDARIES ON OUTPUT.
Info: FIRST LDB TIMESTEP     50
Info: LAST LDB TIMESTEP     -1
Info: HOM BACKGROUND SCALING 1
Info: PME BACKGROUND SCALING 1
Info: MIN ATOMS PER PATCH    40
Info: EMPTY PATCH LOAD       40 ATOMS
Info: INITIAL TEMPERATURE    300
Info: CENTER OF MASS MOVING INITIALLY? NO
Info: DIELECTRIC             1
Info: EXCLUDE                SCALED ONE-FOUR
Info: 1-4 ELECTROSTATICS SCALED BY 0.833333
Info: MODIFIED 1-4 VDW PARAMETERS WILL BE USED
Info: DCD FILENAME           mobley_4465023_equil.dcd
Info: DCD FREQUENCY          100000
Info: DCD FIRST STEP         100000
Info: DCD FILE WILL CONTAIN UNIT CELL DATA
Info: XST FILENAME           mobley_4465023_equil.xst
Info: XST FREQUENCY          100000
Info: NO VELOCITY DCD OUTPUT
Info: NO FORCE DCD OUTPUT
Info: OUTPUT FILENAME        mobley_4465023_equil
Info: BINARY OUTPUT FILES WILL BE USED
Info: RESTART FILENAME       mobley_4465023_equil.restart
Info: RESTART FREQUENCY      100000
Info: BINARY RESTART FILES WILL BE USED
Info: CUTOFF                 9
Info: PAIRLIST DISTANCE      11
Info: PAIRLIST SHRINK RATE   0.01
Info: PAIRLIST GROW RATE     0.01
Info: PAIRLIST TRIGGER       0.3
Info: PAIRLISTS PER CYCLE    2
Info: PAIRLISTS ENABLED
Info: MARGIN                 8
Info: HYDROGEN GROUP CUTOFF  2.5
Info: PATCH DIMENSION        21.5
Info: ENERGY OUTPUT STEPS    100000
Info: ENERGY EVALUATION STEPS    100000
Info: OUTPUT ENERGY PRECISION 4
Info: CROSSTERM ENERGY INCLUDED IN DIHEDRAL
Info: TIMING OUTPUT STEPS    1000000
Info: PRESSURE OUTPUT STEPS  100000
Info: LANGEVIN DYNAMICS ACTIVE
Info: LANGEVIN TEMPERATURE   30
Info: LANGEVIN USING BBK INTEGRATOR
Info: LANGEVIN DAMPING COEFFICIENT IS 1 INVERSE PS
Info: LANGEVIN DYNAMICS APPLIED TO HYDROGENS
Info: LANGEVIN PISTON PRESSURE CONTROL ACTIVE
Info:        TARGET PRESSURE IS 1.01325 BAR
Info:     OSCILLATION PERIOD IS 50 FS
Info:             DECAY TIME IS 25 FS
Info:     PISTON TEMPERATURE IS 300 K
Info:       PRESSURE CONTROL IS GROUP-BASED
Info:    INITIAL STRAIN RATE IS 0 0 0
Info:       CELL FLUCTUATION IS ISOTROPIC
Info: PARTICLE MESH EWALD (PME) ACTIVE
Info: PME TOLERANCE               1e-06
Info: PME EWALD COEFFICIENT       0.348832
Info: PME INTERPOLATION ORDER     4
Info: PME GRID DIMENSIONS         40 36 36
Info: PME MAXIMUM GRID SPACING    1
Info: FULL ELECTROSTATIC EVALUATION FREQUENCY      2
Info: USING VERLET I (r-RESPA) MTS SCHEME.
Info: C1 SPLITTING OF LONG RANGE ELECTROSTATICS
Info: PLACING ATOMS IN PATCHES BY HYDROGEN GROUPS
Info: RIGID BONDS TO HYDROGEN : ALL
Info:         ERROR TOLERANCE : 1e-08
Info:          MAX ITERATIONS : 100
Info: RIGID WATER USING SETTLE ALGORITHM
Info: RANDOM NUMBER SEED     1743155475
Info: USE HYDROGEN BONDS?    NO
Info: Using AMBER format force field!
Info: AMBER PARM FILE        mobley_4465023.prmtop
Info: COORDINATE PDB         mobley_4465023.pdb
Info: Exclusions will be read from PARM file!
Info: SCNB (VDW SCALING)     2
Info: USING ARITHMETIC MEAN TO COMBINE L-J SIGMA PARAMETERS
Info: BINARY COORDINATES     mobley_4465023_min.coor
Info: SUMMARY OF PARAMETERS:
Info: 5 BONDS
Info: 3 ANGLES
Info:   3 HARMONIC
Info:   0 COSINE-BASED
Info: 2 DIHEDRAL
Info: 0 IMPROPER
Info: 0 CROSSTERM
Info: 0 VDW
Info: 15 VDW_PAIRS
Info: 0 NBTHOLE_PAIRS
Info: STRUCTURE SUMMARY:
Info: 2916 ATOMS
Info: 2915 BONDS
Info: 6 ANGLES
Info: 6 DIHEDRALS
Info: 0 IMPROPERS
Info: 0 CROSSTERMS
Info: 2925 EXCLUSIONS
Info: 2912 RIGID BONDS
Info: 5836 DEGREES OF FREEDOM
Info: 974 HYDROGEN GROUPS
Info: 3 ATOMS IN LARGEST HYDROGEN GROUP
Info: 974 MIGRATION GROUPS
Info: 3 ATOMS IN LARGEST MIGRATION GROUP
Info: TOTAL MASS = 17572.5 amu
Info: TOTAL CHARGE = -1.49012e-08 e
Info: MASS DENSITY = 0.657169 g/cm^3
Info: ATOM DENSITY = 0.0656709 atoms/A^3
Info: ADDED 0 IMPLICIT EXCLUSIONS
Info: NONBONDED TABLE R-SQUARED SPACING: 0.0625
Info: NONBONDED TABLE SIZE: 705 POINTS
Info: REMOVING COM VELOCITY -0.0791841 -0.0046735 -0.2447
TCL: Running for 100000 steps
ETITLE: TS BOND ANGLE DIHED IMPRP ELECT VDW BOUNDARY MISC KINETIC TOTAL TEMP POTENTIAL TOTAL3 TEMPAVG PRESSURE GPRESSURE VOLUME PRESSAVG GPRESSAVG
ENERGY: 0 0.0084 0.0616 0.0063 0.0000 -13435.7406 2333.7232 0.0000 0.0000 1743.7377 -9358.2033 300.7158 -11101.9410 -9357.8544 300.7158 182.9971 208.8730 44403.2267 182.9971 208.8730
ENERGY: 100000 0.0448 0.1435 0.0230 0.0000 -14065.6143 2482.1869 0.0000 0.0000 176.9269 -11406.2892 30.5119 -11583.2161 -11405.6272 30.8745 530.1754 568.9607 28537.0407 3.2368 3.2237
TCL: Running 100000 steps at 60 kelvin.
TCL: Setting parameter langevinTemp to 60
TCL: Running for 100000 steps
ETITLE: TS BOND ANGLE DIHED IMPRP ELECT VDW BOUNDARY MISC KINETIC TOTAL TEMP POTENTIAL TOTAL3 TEMPAVG PRESSURE GPRESSURE VOLUME PRESSAVG GPRESSAVG
ENERGY: 100000 0.0448 0.1435 0.0230 0.0000 -14065.6143 2482.1869 0.0000 0.0000 176.8353 -11406.3808 30.4961 -11583.2161 -11406.0201 30.4961 529.8296 569.0947 28537.0407 529.8296 569.0947
ENERGY: 200000 0.0302 0.3440 0.0707 0.0000 -14002.1730 2442.1211 0.0000 0.0000 345.4662 -11214.1408 59.5773 -11559.6069 -11212.9660 59.8812 427.0522 448.8120 28245.6777 4.3842 4.4411
TCL: Running 100000 steps at 90 kelvin.
TCL: Setting parameter langevinTemp to 90
TCL: Running for 100000 steps
ETITLE: TS BOND ANGLE DIHED IMPRP ELECT VDW BOUNDARY MISC KINETIC TOTAL TEMP POTENTIAL TOTAL3 TEMPAVG PRESSURE GPRESSURE VOLUME PRESSAVG GPRESSAVG
ENERGY: 200000 0.0302 0.3440 0.0707 0.0000 -14002.1730 2442.1211 0.0000 0.0000 345.2997 -11214.3073 59.5486 -11559.6069 -11213.6700 59.5486 403.1534 449.0625 28245.6777 403.1534 449.0625
ENERGY: 300000 0.4453 0.4233 0.2591 0.0000 -13919.4244 2416.8615 0.0000 0.0000 512.5901 -10988.8451 88.3986 -11501.4352 -10987.2239 90.0524 481.3602 543.6910 28098.0665 3.4843 3.5102
TCL: Running 100000 steps at 120 kelvin.
TCL: Setting parameter langevinTemp to 120
TCL: Running for 100000 steps
ETITLE: TS BOND ANGLE DIHED IMPRP ELECT VDW BOUNDARY MISC KINETIC TOTAL TEMP POTENTIAL TOTAL3 TEMPAVG PRESSURE GPRESSURE VOLUME PRESSAVG GPRESSAVG
ENERGY: 300000 0.4453 0.4233 0.2591 0.0000 -13919.4244 2416.8615 0.0000 0.0000 512.3319 -10989.1033 88.3541 -11501.4352 -10988.0527 88.3541 509.5280 543.7207 28098.0665 509.5280 543.7207
ENERGY: 400000 0.1543 0.5691 0.7400 0.0000 -13712.5066 2337.2416 0.0000 0.0000 674.0697 -10699.7320 116.2465 -11373.8016 -10697.5802 119.7570 204.0711 269.0547 28257.2729 3.6900 3.7037
TCL: Running 100000 steps at 150 kelvin.
TCL: Setting parameter langevinTemp to 150
TCL: Running for 100000 steps
ETITLE: TS BOND ANGLE DIHED IMPRP ELECT VDW BOUNDARY MISC KINETIC TOTAL TEMP POTENTIAL TOTAL3 TEMPAVG PRESSURE GPRESSURE VOLUME PRESSAVG GPRESSAVG
ENERGY: 400000 0.1543 0.5691 0.7400 0.0000 -13712.5066 2337.2416 0.0000 0.0000 673.7209 -10700.0807 116.1864 -11373.8016 -10698.6489 116.1864 218.1470 269.6167 28257.2729 218.1470 269.6167
ENERGY: 500000 1.0843 0.7502 0.5936 0.0000 -13529.9091 2332.5220 0.0000 0.0000 866.5378 -10328.4211 149.4385 -11194.9589 -10326.1156 149.5627 681.4275 690.6311 28562.1505 4.8053 4.7867
TCL: Running 100000 steps at 180 kelvin.
TCL: Setting parameter langevinTemp to 180
TCL: Running for 100000 steps
ETITLE: TS BOND ANGLE DIHED IMPRP ELECT VDW BOUNDARY MISC KINETIC TOTAL TEMP POTENTIAL TOTAL3 TEMPAVG PRESSURE GPRESSURE VOLUME PRESSAVG GPRESSAVG
ENERGY: 500000 1.0843 0.7502 0.5936 0.0000 -13529.9091 2332.5220 0.0000 0.0000 866.1048 -10328.8541 149.3639 -11194.9589 -10327.0462 149.3639 630.5991 689.9475 28562.1505 630.5991 689.9475
ENERGY: 600000 0.1516 1.3041 0.1386 0.0000 -12997.6847 2092.0958 0.0000 0.0000 1033.4794 -9870.5151 178.2284 -10903.9945 -9868.8580 179.8027 -273.2859 -220.5349 28778.1066 3.3622 3.4311
TCL: Running 100000 steps at 210 kelvin.
TCL: Setting parameter langevinTemp to 210
TCL: Running for 100000 steps
ETITLE: TS BOND ANGLE DIHED IMPRP ELECT VDW BOUNDARY MISC KINETIC TOTAL TEMP POTENTIAL TOTAL3 TEMPAVG PRESSURE GPRESSURE VOLUME PRESSAVG GPRESSAVG
ENERGY: 600000 0.1516 1.3041 0.1386 0.0000 -12997.6847 2092.0958 0.0000 0.0000 1032.9687 -9871.0258 178.1403 -10903.9945 -9869.3826 178.1403 -299.2742 -221.1356 28778.1066 -299.2742 -221.1356
ENERGY: 700000 2.5228 0.6829 1.6096 0.0000 -12265.1335 1882.9811 0.0000 0.0000 1193.5539 -9183.7832 205.8340 -10377.3371 -9182.6020 209.7315 -24.9069 76.1911 28448.7814 2.9479 3.0431
TCL: Running 100000 steps at 240 kelvin.
TCL: Setting parameter langevinTemp to 240
TCL: Running for 100000 steps
ETITLE: TS BOND ANGLE DIHED IMPRP ELECT VDW BOUNDARY MISC KINETIC TOTAL TEMP POTENTIAL TOTAL3 TEMPAVG PRESSURE GPRESSURE VOLUME PRESSAVG GPRESSAVG
ENERGY: 700000 2.5228 0.6829 1.6096 0.0000 -12265.1335 1882.9811 0.0000 0.0000 1192.9095 -9184.4276 205.7229 -10377.3371 -9182.6964 205.7229 13.9965 74.9466 28448.7814 13.9965 74.9466
ENERGY: 800000 0.0095 1.2519 0.3962 0.0000 -11705.5611 1776.0807 0.0000 0.0000 1382.3910 -8545.4317 238.3999 -9927.8227 -8542.1125 239.8397 1082.6994 1143.4484 28277.8535 3.0490 3.0563
TCL: Running 100000 steps at 270 kelvin.
TCL: Setting parameter langevinTemp to 270
TCL: Running for 100000 steps
ETITLE: TS BOND ANGLE DIHED IMPRP ELECT VDW BOUNDARY MISC KINETIC TOTAL TEMP POTENTIAL TOTAL3 TEMPAVG PRESSURE GPRESSURE VOLUME PRESSAVG GPRESSAVG
ENERGY: 800000 0.0095 1.2519 0.3962 0.0000 -11705.5611 1776.0807 0.0000 0.0000 1381.6940 -8546.1287 238.2797 -9927.8227 -8544.6608 238.2797 1074.2918 1144.3093 28277.8535 1074.2918 1144.3093
ENERGY: 900000 0.7010 1.0227 0.7536 0.0000 -11217.4452 1588.8112 0.0000 0.0000 1524.1571 -8101.9997 262.8481 -9626.1567 -8097.7701 269.7268 354.4283 423.4584 28873.8685 3.3697 3.3741
TCL: Running 1000000 steps at 300 kelvin.
TCL: Setting parameter langevinTemp to 300
TCL: Running for 1000000 steps
ETITLE: TS BOND ANGLE DIHED IMPRP ELECT VDW BOUNDARY MISC KINETIC TOTAL TEMP POTENTIAL TOTAL3 TEMPAVG PRESSURE GPRESSURE VOLUME PRESSAVG GPRESSAVG
ENERGY: 900000 0.7010 1.0227 0.7536 0.0000 -11217.4452 1588.8112 0.0000 0.0000 1523.4267 -8102.7300 262.7221 -9626.1567 -8100.4223 262.7221 329.5625 425.4837 28873.8685 329.5625 425.4837
ENERGY: 1100000 0.1655 4.1690 0.2081 0.0000 -10766.6197 1522.5176 0.0000 0.0000 1760.7284 -7478.8311 303.6459 -9239.5595 -7475.9879 300.1007 718.5546 743.3173 29748.9670 3.5117 3.3922
ENERGY: 1300000 2.1236 1.2686 0.1044 0.0000 -10612.7117 1450.9236 0.0000 0.0000 1761.4519 -7396.8396 303.7707 -9158.2915 -7392.4672 300.5273 17.9447 162.3239 30224.2934 3.5234 3.3878
ENERGY: 1500000 2.2006 0.8682 0.4252 0.0000 -10676.6843 1459.5852 0.0000 0.0000 1738.4613 -7475.1438 299.8059 -9213.6052 -7471.9191 299.8645 -14.6779 76.5831 29968.3516 1.1742 1.3621
ENERGY: 1700000 1.6327 1.5675 0.3462 0.0000 -10584.3849 1412.8768 0.0000 0.0000 1755.0427 -7412.9190 302.6654 -9167.9616 -7409.7967 300.9055 -172.8388 -129.5355 30250.6982 3.6467 3.7608
ENERGY: 1900000 0.7400 3.3592 1.5535 0.0000 -10432.4939 1334.9395 0.0000 0.0000 1692.6475 -7399.2542 291.9051 -9091.9017 -7396.6872 300.5715 -575.2761 -473.9773 30534.8304 4.3781 4.1988
TCL: Exiting due to exit command.
