Info: SIMULATION PARAMETERS:
Info: TIMESTEP               2
Info: NUMBER OF STEPS        0
Info: STEPS PER CYCLE        10
Info: PERIODIC CELL BASIS 1  36.592 0 0
Info: PERIODIC CELL BASIS 2  0 38.729 0
Info: PERIODIC CELL BASIS 3  0 0 31.349
Info: PERIODIC CELL CENTER   0 0 0
Info: WRAPPING WATERS AROUND PERIODIC BOUNDARIES ON OUTPUT.
Info: WRAPPING ALL CLUSTERS AROUND PERIODIC BOUNDARIES ON OUTPUT.
Info: FIRST LDB TIMESTEP     50
Info: LAST LDB TIMESTEP     -1
Info: HOM BACKGROUND SCALING 1
Info: PME BACKGROUND SCALING 1
Info: MIN ATOMS PER PATCH    40
Info: EMPTY PATCH LOAD       40 ATOMS
Info: INITIAL TEMPERATURE    300
Info: CENTER OF MASS MOVING INITIALLY? NO
Info: DIELECTRIC             1
Info: EXCLUDE                SCALED ONE-FOUR
Info: 1-4 ELECTROSTATICS SCALED BY 0.833333
Info: MODIFIED 1-4 VDW PARAMETERS WILL BE USED
Info: DCD FILENAME           mobley_637522_equil.dcd
Info: DCD FREQUENCY          100000
Info: DCD FIRST STEP         100000
Info: DCD FILE WILL CONTAIN UNIT CELL DATA
Info: XST FILENAME           mobley_637522_equil.xst
Info: XST FREQUENCY          100000
Info: NO VELOCITY DCD OUTPUT
Info: NO FORCE DCD OUTPUT
Info: OUTPUT FILENAME        mobley_637522_equil
Info: BINARY OUTPUT FILES WILL BE USED
Info: RESTART FILENAME       mobley_637522_equil.restart
Info: RESTART FREQUENCY      100000
Info: BINARY RESTART FILES WILL BE USED
Info: CUTOFF                 9
Info: PAIRLIST DISTANCE      11
Info: PAIRLIST SHRINK RATE   0.01
Info: PAIRLIST GROW RATE     0.01
Info: PAIRLIST TRIGGER       0.3
Info: PAIRLISTS PER CYCLE    2
Info: PAIRLISTS ENABLED
Info: MARGIN                 8
Info: HYDROGEN GROUP CUTOFF  2.5
Info: PATCH DIMENSION        21.5
Info: ENERGY OUTPUT STEPS    100000
Info: ENERGY EVALUATION STEPS    100000
Info: OUTPUT ENERGY PRECISION 4
Info: CROSSTERM ENERGY INCLUDED IN DIHEDRAL
Info: TIMING OUTPUT STEPS    1000000
Info: PRESSURE OUTPUT STEPS  100000
Info: LANGEVIN DYNAMICS ACTIVE
Info: LANGEVIN TEMPERATURE   30
Info: LANGEVIN USING BBK INTEGRATOR
Info: LANGEVIN DAMPING COEFFICIENT IS 1 INVERSE PS
Info: LANGEVIN DYNAMICS APPLIED TO HYDROGENS
Info: LANGEVIN PISTON PRESSURE CONTROL ACTIVE
Info:        TARGET PRESSURE IS 1.01325 BAR
Info:     OSCILLATION PERIOD IS 50 FS
Info:             DECAY TIME IS 25 FS
Info:     PISTON TEMPERATURE IS 300 K
Info:       PRESSURE CONTROL IS GROUP-BASED
Info:    INITIAL STRAIN RATE IS 0 0 0
Info:       CELL FLUCTUATION IS ISOTROPIC
Info: PARTICLE MESH EWALD (PME) ACTIVE
Info: PME TOLERANCE               1e-06
Info: PME EWALD COEFFICIENT       0.348832
Info: PME INTERPOLATION ORDER     4
Info: PME GRID DIMENSIONS         40 40 32
Info: PME MAXIMUM GRID SPACING    1
Info: FULL ELECTROSTATIC EVALUATION FREQUENCY      2
Info: USING VERLET I (r-RESPA) MTS SCHEME.
Info: C1 SPLITTING OF LONG RANGE ELECTROSTATICS
Info: PLACING ATOMS IN PATCHES BY HYDROGEN GROUPS
Info: RIGID BONDS TO HYDROGEN : ALL
Info:         ERROR TOLERANCE : 1e-08
Info:          MAX ITERATIONS : 100
Info: RIGID WATER USING SETTLE ALGORITHM
Info: RANDOM NUMBER SEED     1743221248
Info: USE HYDROGEN BONDS?    NO
Info: Using AMBER format force field!
Info: AMBER PARM FILE        mobley_637522.prmtop
Info: COORDINATE PDB         mobley_637522.pdb
Info: Exclusions will be read from PARM file!
Info: SCNB (VDW SCALING)     2
Info: USING ARITHMETIC MEAN TO COMBINE L-J SIGMA PARAMETERS
Info: BINARY COORDINATES     mobley_637522_min.coor
Info: SUMMARY OF PARAMETERS:
Info: 4 BONDS
Info: 2 ANGLES
Info:   2 HARMONIC
Info:   0 COSINE-BASED
Info: 2 DIHEDRAL
Info: 0 IMPROPER
Info: 0 CROSSTERM
Info: 0 VDW
Info: 10 VDW_PAIRS
Info: 0 NBTHOLE_PAIRS
Info: STRUCTURE SUMMARY:
Info: 2970 ATOMS
Info: 2972 BONDS
Info: 42 ANGLES
Info: 78 DIHEDRALS
Info: 0 IMPROPERS
Info: 0 CROSSTERMS
Info: 3069 EXCLUSIONS
Info: 2956 RIGID BONDS
Info: 5954 DEGREES OF FREEDOM
Info: 996 HYDROGEN GROUPS
Info: 3 ATOMS IN LARGEST HYDROGEN GROUP
Info: 996 MIGRATION GROUPS
Info: 3 ATOMS IN LARGEST MIGRATION GROUP
Info: TOTAL MASS = 17869.9 amu
Info: TOTAL CHARGE = -2.98023e-08 e
Info: MASS DENSITY = 0.667938 g/cm^3
Info: ATOM DENSITY = 0.0668514 atoms/A^3
Info: ADDED 0 IMPLICIT EXCLUSIONS
Info: NONBONDED TABLE R-SQUARED SPACING: 0.0625
Info: NONBONDED TABLE SIZE: 705 POINTS
Info: REMOVING COM VELOCITY -0.0302055 -0.057207 0.158125
TCL: Running for 100000 steps
ETITLE: TS BOND ANGLE DIHED IMPRP ELECT VDW BOUNDARY MISC KINETIC TOTAL TEMP POTENTIAL TOTAL3 TEMPAVG PRESSURE GPRESSURE VOLUME PRESSAVG GPRESSAVG
ENERGY: 0 0.4871 0.0418 0.0541 0.0000 -13666.6110 2355.1017 0.0000 0.0000 1800.3846 -9510.5417 304.3315 -11310.9263 -9510.1951 304.3315 151.4397 184.1793 44426.9115 151.4397 184.1793
ENERGY: 100000 1.6186 0.6062 1.0003 0.0000 -14229.4950 2464.7801 0.0000 0.0000 184.1058 -11577.3841 31.1207 -11761.4898 -11576.9197 30.8965 -51.6554 44.7089 29447.3431 4.4902 4.4417
TCL: Running 100000 steps at 60 kelvin.
TCL: Setting parameter langevinTemp to 60
TCL: Running for 100000 steps
ETITLE: TS BOND ANGLE DIHED IMPRP ELECT VDW BOUNDARY MISC KINETIC TOTAL TEMP POTENTIAL TOTAL3 TEMPAVG PRESSURE GPRESSURE VOLUME PRESSAVG GPRESSAVG
ENERGY: 100000 1.6186 0.6062 1.0003 0.0000 -14229.4950 2464.7801 0.0000 0.0000 184.0188 -11577.4710 31.1060 -11761.4898 -11577.0010 31.1060 -30.3266 44.7403 29447.3431 -30.3266 44.7403
ENERGY: 200000 0.9438 1.6019 2.4478 0.0000 -14075.5462 2390.8428 0.0000 0.0000 355.2861 -11324.4239 60.0565 -11679.7100 -11323.2881 59.9645 -108.5448 -30.0294 29040.9129 4.9114 4.8679
TCL: Running 100000 steps at 90 kelvin.
TCL: Setting parameter langevinTemp to 90
TCL: Running for 100000 steps
ETITLE: TS BOND ANGLE DIHED IMPRP ELECT VDW BOUNDARY MISC KINETIC TOTAL TEMP POTENTIAL TOTAL3 TEMPAVG PRESSURE GPRESSURE VOLUME PRESSAVG GPRESSAVG
ENERGY: 200000 0.9438 1.6019 2.4478 0.0000 -14075.5462 2390.8428 0.0000 0.0000 355.1103 -11324.5997 60.0267 -11679.7100 -11323.7652 60.0267 -101.3730 -29.9428 29040.9129 -101.3730 -29.9428
ENERGY: 300000 1.8244 1.9689 2.9488 0.0000 -13991.5095 2400.2375 0.0000 0.0000 528.2678 -11056.2621 89.2968 -11584.5298 -11055.4055 90.0008 265.5569 336.6044 28789.9088 5.3809 5.3203
TCL: Running 100000 steps at 120 kelvin.
TCL: Setting parameter langevinTemp to 120
TCL: Running for 100000 steps
ETITLE: TS BOND ANGLE DIHED IMPRP ELECT VDW BOUNDARY MISC KINETIC TOTAL TEMP POTENTIAL TOTAL3 TEMPAVG PRESSURE GPRESSURE VOLUME PRESSAVG GPRESSAVG
ENERGY: 300000 1.8244 1.9689 2.9488 0.0000 -13991.5095 2400.2375 0.0000 0.0000 528.0014 -11056.5284 89.2517 -11584.5298 -11055.5866 89.2517 280.2569 335.8224 28789.9088 280.2569 335.8224
ENERGY: 400000 2.7166 1.7147 3.6845 0.0000 -13968.0263 2469.6885 0.0000 0.0000 694.7605 -10795.4615 117.4402 -11490.2220 -10793.7114 119.6498 979.3858 1050.7008 28734.4322 4.1239 4.1503
TCL: Running 100000 steps at 150 kelvin.
TCL: Setting parameter langevinTemp to 150
TCL: Running for 100000 steps
ETITLE: TS BOND ANGLE DIHED IMPRP ELECT VDW BOUNDARY MISC KINETIC TOTAL TEMP POTENTIAL TOTAL3 TEMPAVG PRESSURE GPRESSURE VOLUME PRESSAVG GPRESSAVG
ENERGY: 400000 2.7166 1.7147 3.6845 0.0000 -13968.0263 2469.6885 0.0000 0.0000 694.3984 -10795.8236 117.3790 -11490.2220 -10794.7045 117.3790 1009.2443 1051.5594 28734.4322 1009.2443 1051.5594
ENERGY: 500000 2.1505 4.1375 1.7421 0.0000 -13563.1795 2231.3575 0.0000 0.0000 910.6984 -10413.0935 153.9417 -11323.7919 -10410.1568 149.9281 -355.8915 -325.6671 29176.9834 4.7301 4.7601
TCL: Running 100000 steps at 180 kelvin.
TCL: Setting parameter langevinTemp to 180
TCL: Running for 100000 steps
ETITLE: TS BOND ANGLE DIHED IMPRP ELECT VDW BOUNDARY MISC KINETIC TOTAL TEMP POTENTIAL TOTAL3 TEMPAVG PRESSURE GPRESSURE VOLUME PRESSAVG GPRESSAVG
ENERGY: 500000 2.1505 4.1375 1.7421 0.0000 -13563.1795 2231.3575 0.0000 0.0000 910.2531 -10413.5388 153.8664 -11323.7919 -10411.3800 153.8664 -375.0736 -326.8446 29176.9834 -375.0736 -326.8446
ENERGY: 600000 1.3767 2.3430 4.4334 0.0000 -13287.4196 2204.5835 0.0000 0.0000 1105.0946 -9969.5884 186.8018 -11074.6830 -9966.8177 179.8851 482.6413 562.6652 29201.4681 3.8667 3.9007
TCL: Running 100000 steps at 210 kelvin.
TCL: Setting parameter langevinTemp to 210
TCL: Running for 100000 steps
ETITLE: TS BOND ANGLE DIHED IMPRP ELECT VDW BOUNDARY MISC KINETIC TOTAL TEMP POTENTIAL TOTAL3 TEMPAVG PRESSURE GPRESSURE VOLUME PRESSAVG GPRESSAVG
ENERGY: 600000 1.3767 2.3430 4.4334 0.0000 -13287.4196 2204.5835 0.0000 0.0000 1104.5439 -9970.1392 186.7087 -11074.6830 -9968.3156 186.7087 525.4847 563.3112 29201.4681 525.4847 563.3112
ENERGY: 700000 5.0434 3.5773 4.0600 0.0000 -12426.4300 1862.4654 0.0000 0.0000 1266.9306 -9284.3532 214.1580 -10551.2838 -9281.6515 210.3522 -544.8052 -364.6862 28903.4166 3.5866 3.3904
TCL: Running 100000 steps at 240 kelvin.
TCL: Setting parameter langevinTemp to 240
TCL: Running for 100000 steps
ETITLE: TS BOND ANGLE DIHED IMPRP ELECT VDW BOUNDARY MISC KINETIC TOTAL TEMP POTENTIAL TOTAL3 TEMPAVG PRESSURE GPRESSURE VOLUME PRESSAVG GPRESSAVG
ENERGY: 700000 5.0434 3.5773 4.0600 0.0000 -12426.4300 1862.4654 0.0000 0.0000 1266.3105 -9284.9734 214.0532 -10551.2838 -9283.2518 214.0532 -437.0963 -365.9394 28903.4166 -437.0963 -365.9394
ENERGY: 800000 3.7627 4.5793 6.3970 0.0000 -11693.9893 1619.2976 0.0000 0.0000 1455.6782 -8604.2745 246.0633 -10059.9527 -8601.1914 240.2532 -926.1184 -851.5476 29598.5314 4.0791 3.9580
TCL: Running 100000 steps at 270 kelvin.
TCL: Setting parameter langevinTemp to 270
TCL: Running for 100000 steps
ETITLE: TS BOND ANGLE DIHED IMPRP ELECT VDW BOUNDARY MISC KINETIC TOTAL TEMP POTENTIAL TOTAL3 TEMPAVG PRESSURE GPRESSURE VOLUME PRESSAVG GPRESSAVG
ENERGY: 800000 3.7627 4.5793 6.3970 0.0000 -11693.9893 1619.2976 0.0000 0.0000 1454.9452 -8605.0075 245.9395 -10059.9527 -8602.4377 245.9395 -940.7745 -851.9600 29598.5314 -940.7745 -851.9600
ENERGY: 900000 8.1005 8.0068 6.3200 0.0000 -11242.7511 1546.0434 0.0000 0.0000 1599.7902 -8074.4901 270.4236 -9674.2803 -8071.4406 269.4742 -388.7072 -352.1177 30039.4298 3.0914 3.0083
TCL: Running 1000000 steps at 300 kelvin.
TCL: Setting parameter langevinTemp to 300
TCL: Running for 1000000 steps
ETITLE: TS BOND ANGLE DIHED IMPRP ELECT VDW BOUNDARY MISC KINETIC TOTAL TEMP POTENTIAL TOTAL3 TEMPAVG PRESSURE GPRESSURE VOLUME PRESSAVG GPRESSAVG
ENERGY: 900000 8.1005 8.0068 6.3200 0.0000 -11242.7511 1546.0434 0.0000 0.0000 1598.9856 -8075.2947 270.2876 -9674.2803 -8072.4727 270.2876 -449.0468 -351.9628 30039.4298 -449.0468 -351.9628
ENERGY: 1100000 6.8868 10.0617 7.7844 0.0000 -10731.5787 1423.0368 0.0000 0.0000 1717.6605 -7566.1484 290.3480 -9283.8090 -7560.7988 300.4640 -325.6450 -228.1426 30658.0682 2.8614 2.9475
ENERGY: 1300000 5.4481 2.9511 6.4703 0.0000 -10693.2924 1405.9776 0.0000 0.0000 1726.8050 -7545.6403 291.8938 -9272.4454 -7539.1985 300.3654 -293.0961 -256.5697 30741.4205 2.5979 2.5464
ENERGY: 1500000 7.3953 8.6724 2.9349 0.0000 -10700.4941 1403.5763 0.0000 0.0000 1754.4492 -7523.4659 296.5667 -9277.9151 -7520.9370 299.6177 -457.9113 -355.5617 30500.1666 2.7149 2.6143
ENERGY: 1700000 9.6433 8.8621 5.4332 0.0000 -10813.2990 1459.1515 0.0000 0.0000 1698.3048 -7631.9041 287.0762 -9330.2089 -7629.0121 300.3962 -62.3205 -57.5768 30655.4016 3.0185 3.0749
ENERGY: 1900000 6.3582 7.8647 4.5329 0.0000 -10772.4618 1476.0597 0.0000 0.0000 1759.6785 -7517.9677 297.4506 -9277.6462 -7515.8541 300.1809 -108.0185 58.4367 30583.1637 3.3293 3.3556
TCL: Exiting due to exit command.
