Info: SIMULATION PARAMETERS:
Info: TIMESTEP               2
Info: NUMBER OF STEPS        0
Info: STEPS PER CYCLE        10
Info: PERIODIC CELL BASIS 1  34.647 0 0
Info: PERIODIC CELL BASIS 2  0 32.293 0
Info: PERIODIC CELL BASIS 3  0 0 38.379
Info: PERIODIC CELL CENTER   0 0 0
Info: WRAPPING WATERS AROUND PERIODIC BOUNDARIES ON OUTPUT.
Info: WRAPPING ALL CLUSTERS AROUND PERIODIC BOUNDARIES ON OUTPUT.
Info: FIRST LDB TIMESTEP     50
Info: LAST LDB TIMESTEP     -1
Info: HOM BACKGROUND SCALING 1
Info: PME BACKGROUND SCALING 1
Info: MIN ATOMS PER PATCH    40
Info: EMPTY PATCH LOAD       40 ATOMS
Info: INITIAL TEMPERATURE    300
Info: CENTER OF MASS MOVING INITIALLY? NO
Info: DIELECTRIC             1
Info: EXCLUDE                SCALED ONE-FOUR
Info: 1-4 ELECTROSTATICS SCALED BY 0.833333
Info: MODIFIED 1-4 VDW PARAMETERS WILL BE USED
Info: DCD FILENAME           mobley_3968739_equil.dcd
Info: DCD FREQUENCY          100000
Info: DCD FIRST STEP         100000
Info: DCD FILE WILL CONTAIN UNIT CELL DATA
Info: XST FILENAME           mobley_3968739_equil.xst
Info: XST FREQUENCY          100000
Info: NO VELOCITY DCD OUTPUT
Info: NO FORCE DCD OUTPUT
Info: OUTPUT FILENAME        mobley_3968739_equil
Info: BINARY OUTPUT FILES WILL BE USED
Info: RESTART FILENAME       mobley_3968739_equil.restart
Info: RESTART FREQUENCY      100000
Info: BINARY RESTART FILES WILL BE USED
Info: CUTOFF                 9
Info: PAIRLIST DISTANCE      11
Info: PAIRLIST SHRINK RATE   0.01
Info: PAIRLIST GROW RATE     0.01
Info: PAIRLIST TRIGGER       0.3
Info: PAIRLISTS PER CYCLE    2
Info: PAIRLISTS ENABLED
Info: MARGIN                 8
Info: HYDROGEN GROUP CUTOFF  2.5
Info: PATCH DIMENSION        21.5
Info: ENERGY OUTPUT STEPS    100000
Info: ENERGY EVALUATION STEPS    100000
Info: OUTPUT ENERGY PRECISION 4
Info: CROSSTERM ENERGY INCLUDED IN DIHEDRAL
Info: TIMING OUTPUT STEPS    1000000
Info: PRESSURE OUTPUT STEPS  100000
Info: LANGEVIN DYNAMICS ACTIVE
Info: LANGEVIN TEMPERATURE   30
Info: LANGEVIN USING BBK INTEGRATOR
Info: LANGEVIN DAMPING COEFFICIENT IS 1 INVERSE PS
Info: LANGEVIN DYNAMICS APPLIED TO HYDROGENS
Info: LANGEVIN PISTON PRESSURE CONTROL ACTIVE
Info:        TARGET PRESSURE IS 1.01325 BAR
Info:     OSCILLATION PERIOD IS 50 FS
Info:             DECAY TIME IS 25 FS
Info:     PISTON TEMPERATURE IS 300 K
Info:       PRESSURE CONTROL IS GROUP-BASED
Info:    INITIAL STRAIN RATE IS 0 0 0
Info:       CELL FLUCTUATION IS ISOTROPIC
Info: PARTICLE MESH EWALD (PME) ACTIVE
Info: PME TOLERANCE               1e-06
Info: PME EWALD COEFFICIENT       0.348832
Info: PME INTERPOLATION ORDER     4
Info: PME GRID DIMENSIONS         36 36 40
Info: PME MAXIMUM GRID SPACING    1
Info: FULL ELECTROSTATIC EVALUATION FREQUENCY      2
Info: USING VERLET I (r-RESPA) MTS SCHEME.
Info: C1 SPLITTING OF LONG RANGE ELECTROSTATICS
Info: PLACING ATOMS IN PATCHES BY HYDROGEN GROUPS
Info: RIGID BONDS TO HYDROGEN : ALL
Info:         ERROR TOLERANCE : 1e-08
Info:          MAX ITERATIONS : 100
Info: RIGID WATER USING SETTLE ALGORITHM
Info: RANDOM NUMBER SEED     1743232180
Info: USE HYDROGEN BONDS?    NO
Info: Using AMBER format force field!
Info: AMBER PARM FILE        mobley_3968739.prmtop
Info: COORDINATE PDB         mobley_3968739.pdb
Info: Exclusions will be read from PARM file!
Info: SCNB (VDW SCALING)     2
Info: USING ARITHMETIC MEAN TO COMBINE L-J SIGMA PARAMETERS
Info: BINARY COORDINATES     mobley_3968739_min.coor
Info: SUMMARY OF PARAMETERS:
Info: 9 BONDS
Info: 9 ANGLES
Info:   9 HARMONIC
Info:   0 COSINE-BASED
Info: 6 DIHEDRAL
Info: 0 IMPROPER
Info: 0 CROSSTERM
Info: 0 VDW
Info: 36 VDW_PAIRS
Info: 0 NBTHOLE_PAIRS
Info: STRUCTURE SUMMARY:
Info: 2901 ATOMS
Info: 2901 BONDS
Info: 28 ANGLES
Info: 41 DIHEDRALS
Info: 0 IMPROPERS
Info: 0 CROSSTERMS
Info: 2959 EXCLUSIONS
Info: 2891 RIGID BONDS
Info: 5812 DEGREES OF FREEDOM
Info: 971 HYDROGEN GROUPS
Info: 4 ATOMS IN LARGEST HYDROGEN GROUP
Info: 971 MIGRATION GROUPS
Info: 4 ATOMS IN LARGEST MIGRATION GROUP
Info: TOTAL MASS = 17449.5 amu
Info: TOTAL CHARGE = 0.000200033 e
Info: MASS DENSITY = 0.6748 g/cm^3
Info: ATOM DENSITY = 0.0675585 atoms/A^3
Info: ADDED 0 IMPLICIT EXCLUSIONS
Info: NONBONDED TABLE R-SQUARED SPACING: 0.0625
Info: NONBONDED TABLE SIZE: 705 POINTS
Info: REMOVING COM VELOCITY -0.0769239 0.0825951 0.285533
TCL: Running for 100000 steps
ETITLE: TS BOND ANGLE DIHED IMPRP ELECT VDW BOUNDARY MISC KINETIC TOTAL TEMP POTENTIAL TOTAL3 TEMPAVG PRESSURE GPRESSURE VOLUME PRESSAVG GPRESSAVG
ENERGY: 0 0.4420 0.3063 0.2511 0.0000 -13367.4380 2328.4356 0.0000 0.0000 1774.6616 -9263.3413 307.3126 -11038.0029 -9262.9826 307.3126 491.8107 521.2671 42940.5580 491.8107 521.2671
ENERGY: 100000 0.9419 0.8195 1.0548 0.0000 -13815.2122 2282.3638 0.0000 0.0000 176.1882 -11353.8439 30.5100 -11530.0322 -11353.4392 30.9466 -1226.9160 -1162.1098 28422.8295 3.3122 3.3571
TCL: Running 100000 steps at 60 kelvin.
TCL: Setting parameter langevinTemp to 60
TCL: Running for 100000 steps
ETITLE: TS BOND ANGLE DIHED IMPRP ELECT VDW BOUNDARY MISC KINETIC TOTAL TEMP POTENTIAL TOTAL3 TEMPAVG PRESSURE GPRESSURE VOLUME PRESSAVG GPRESSAVG
ENERGY: 100000 0.9419 0.8195 1.0548 0.0000 -13815.2122 2282.3638 0.0000 0.0000 176.1019 -11353.9302 30.4950 -11530.0322 -11353.5800 30.4950 -1221.5164 -1162.2913 28422.8295 -1221.5164 -1162.2913
ENERGY: 200000 1.0567 1.1301 0.7097 0.0000 -13860.4685 2381.8383 0.0000 0.0000 349.6839 -11126.0499 60.5537 -11475.7338 -11125.2883 60.0375 -46.3535 27.9933 28201.8541 3.1351 3.1001
TCL: Running 100000 steps at 90 kelvin.
TCL: Setting parameter langevinTemp to 90
TCL: Running for 100000 steps
ETITLE: TS BOND ANGLE DIHED IMPRP ELECT VDW BOUNDARY MISC KINETIC TOTAL TEMP POTENTIAL TOTAL3 TEMPAVG PRESSURE GPRESSURE VOLUME PRESSAVG GPRESSAVG
ENERGY: 200000 1.0567 1.1301 0.7097 0.0000 -13860.4685 2381.8383 0.0000 0.0000 349.5126 -11126.2212 60.5240 -11475.7338 -11125.4247 60.5240 -36.0440 27.3769 28201.8541 -36.0440 27.3769
ENERGY: 300000 1.2660 2.0792 1.3334 0.0000 -13835.8792 2481.5793 0.0000 0.0000 509.2930 -10840.3283 88.1927 -11349.6213 -10838.8988 89.9426 1294.7832 1341.2285 28076.8898 2.4530 2.4259
TCL: Running 100000 steps at 120 kelvin.
TCL: Setting parameter langevinTemp to 120
TCL: Running for 100000 steps
ETITLE: TS BOND ANGLE DIHED IMPRP ELECT VDW BOUNDARY MISC KINETIC TOTAL TEMP POTENTIAL TOTAL3 TEMPAVG PRESSURE GPRESSURE VOLUME PRESSAVG GPRESSAVG
ENERGY: 300000 1.2660 2.0792 1.3334 0.0000 -13835.8792 2481.5793 0.0000 0.0000 509.0360 -10840.5853 88.1482 -11349.6213 -10839.5534 88.1482 1285.8187 1341.3764 28076.8898 1285.8187 1341.3764
ENERGY: 400000 1.5830 2.2672 1.5065 0.0000 -13482.8832 2279.6900 0.0000 0.0000 709.7077 -10488.1287 122.8979 -11197.8364 -10486.3528 120.0629 -155.6234 -119.4885 28796.9142 4.2780 4.2867
TCL: Running 100000 steps at 150 kelvin.
TCL: Setting parameter langevinTemp to 150
TCL: Running for 100000 steps
ETITLE: TS BOND ANGLE DIHED IMPRP ELECT VDW BOUNDARY MISC KINETIC TOTAL TEMP POTENTIAL TOTAL3 TEMPAVG PRESSURE GPRESSURE VOLUME PRESSAVG GPRESSAVG
ENERGY: 400000 1.5830 2.2672 1.5065 0.0000 -13482.8832 2279.6900 0.0000 0.0000 709.3521 -10488.4843 122.8363 -11197.8364 -10486.7966 122.8363 -183.0225 -119.4442 28796.9142 -183.0225 -119.4442
ENERGY: 500000 3.3371 2.1373 1.5756 0.0000 -13475.5982 2392.4939 0.0000 0.0000 860.9067 -10215.1476 149.0805 -11076.0543 -10214.1397 150.2635 1567.8054 1603.6625 28318.5751 3.9926 3.9736
TCL: Running 100000 steps at 180 kelvin.
TCL: Setting parameter langevinTemp to 180
TCL: Running for 100000 steps
ETITLE: TS BOND ANGLE DIHED IMPRP ELECT VDW BOUNDARY MISC KINETIC TOTAL TEMP POTENTIAL TOTAL3 TEMPAVG PRESSURE GPRESSURE VOLUME PRESSAVG GPRESSAVG
ENERGY: 500000 3.3371 2.1373 1.5756 0.0000 -13475.5982 2392.4939 0.0000 0.0000 860.4644 -10215.5899 149.0039 -11076.0543 -10214.1076 149.0039 1545.3389 1602.1810 28318.5751 1545.3389 1602.1810
ENERGY: 600000 2.3414 3.4905 1.3021 0.0000 -12866.0234 2059.9497 0.0000 0.0000 1048.5899 -9750.3498 181.5810 -10798.9397 -9748.0222 180.0684 -0.5399 13.0293 28145.3999 2.9084 3.0749
TCL: Running 100000 steps at 210 kelvin.
TCL: Setting parameter langevinTemp to 210
TCL: Running for 100000 steps
ETITLE: TS BOND ANGLE DIHED IMPRP ELECT VDW BOUNDARY MISC KINETIC TOTAL TEMP POTENTIAL TOTAL3 TEMPAVG PRESSURE GPRESSURE VOLUME PRESSAVG GPRESSAVG
ENERGY: 600000 2.3414 3.4905 1.3021 0.0000 -12866.0234 2059.9497 0.0000 0.0000 1048.0771 -9750.8626 181.4922 -10798.9397 -9748.7493 181.4922 -51.5120 12.1319 28145.3999 -51.5120 12.1319
ENERGY: 700000 3.0773 2.7097 1.5931 0.0000 -12264.5400 1914.5072 0.0000 0.0000 1224.6242 -9118.0285 212.0643 -10342.6527 -9115.5344 209.7679 255.1699 347.7484 28223.1686 3.2168 3.2541
TCL: Running 100000 steps at 240 kelvin.
TCL: Setting parameter langevinTemp to 240
TCL: Running for 100000 steps
ETITLE: TS BOND ANGLE DIHED IMPRP ELECT VDW BOUNDARY MISC KINETIC TOTAL TEMP POTENTIAL TOTAL3 TEMPAVG PRESSURE GPRESSURE VOLUME PRESSAVG GPRESSAVG
ENERGY: 700000 3.0773 2.7097 1.5931 0.0000 -12264.5400 1914.5072 0.0000 0.0000 1224.0021 -9118.6506 211.9566 -10342.6527 -9116.3657 211.9566 267.3191 345.2218 28223.1686 267.3191 345.2218
ENERGY: 800000 5.3866 4.7515 2.0581 0.0000 -11624.4936 1678.4662 0.0000 0.0000 1384.4357 -8549.3955 239.7384 -9933.8312 -8546.0309 239.8928 -470.2256 -357.3787 28548.0827 4.8950 4.9437
TCL: Running 100000 steps at 270 kelvin.
TCL: Setting parameter langevinTemp to 270
TCL: Running for 100000 steps
ETITLE: TS BOND ANGLE DIHED IMPRP ELECT VDW BOUNDARY MISC KINETIC TOTAL TEMP POTENTIAL TOTAL3 TEMPAVG PRESSURE GPRESSURE VOLUME PRESSAVG GPRESSAVG
ENERGY: 800000 5.3866 4.7515 2.0581 0.0000 -11624.4936 1678.4662 0.0000 0.0000 1383.7538 -8550.0774 239.6203 -9933.8312 -8547.6487 239.6203 -457.1279 -356.8029 28548.0827 -457.1279 -356.8029
ENERGY: 900000 3.1790 5.0713 3.2899 0.0000 -10913.1220 1443.1492 0.0000 0.0000 1569.6983 -7888.7344 271.8197 -9458.4326 -7885.2905 269.9820 -560.9513 -424.9655 28643.8151 3.9584 3.7880
TCL: Running 1000000 steps at 300 kelvin.
TCL: Setting parameter langevinTemp to 300
TCL: Running for 1000000 steps
ETITLE: TS BOND ANGLE DIHED IMPRP ELECT VDW BOUNDARY MISC KINETIC TOTAL TEMP POTENTIAL TOTAL3 TEMPAVG PRESSURE GPRESSURE VOLUME PRESSAVG GPRESSAVG
ENERGY: 900000 3.1790 5.0713 3.2899 0.0000 -10913.1220 1443.1492 0.0000 0.0000 1568.9183 -7889.5144 271.6846 -9458.4326 -7887.0794 271.6846 -513.6898 -425.2852 28643.8151 -513.6898 -425.2852
ENERGY: 1100000 1.1122 1.4234 4.2122 0.0000 -10463.2809 1324.2999 0.0000 0.0000 1728.5399 -7403.6934 299.3258 -9132.2333 -7399.2200 300.2804 -817.3880 -767.9462 29963.4252 1.9731 2.0415
ENERGY: 1300000 2.2739 4.4566 3.6976 0.0000 -10438.4145 1349.3763 0.0000 0.0000 1718.4764 -7360.1338 297.5832 -9078.6102 -7356.7882 299.6608 -730.1056 -611.1728 30390.0803 2.7897 2.6881
ENERGY: 1500000 2.7386 7.7231 2.7727 0.0000 -10619.5061 1450.7849 0.0000 0.0000 1766.1985 -7389.2884 305.8470 -9155.4868 -7387.5782 300.8217 98.2757 170.0772 29699.7973 4.0119 4.1228
ENERGY: 1700000 3.3799 3.6853 4.0726 0.0000 -10609.5444 1494.3975 0.0000 0.0000 1768.2789 -7335.7303 306.2073 -9104.0092 -7331.7680 300.2109 734.9248 854.4941 29622.4743 3.0817 3.0618
ENERGY: 1900000 3.3539 6.8858 3.7409 0.0000 -10472.9868 1420.9297 0.0000 0.0000 1688.0294 -7350.0471 292.3107 -9038.0765 -7346.3916 300.8514 126.2989 132.5370 30082.4259 3.1915 3.1641
TCL: Exiting due to exit command.
