Info: SIMULATION PARAMETERS:
Info: TIMESTEP               2
Info: NUMBER OF STEPS        0
Info: STEPS PER CYCLE        10
Info: PERIODIC CELL BASIS 1  34.986 0 0
Info: PERIODIC CELL BASIS 2  0 35.411 0
Info: PERIODIC CELL BASIS 3  0 0 35.723
Info: PERIODIC CELL CENTER   0 0 0
Info: WRAPPING WATERS AROUND PERIODIC BOUNDARIES ON OUTPUT.
Info: WRAPPING ALL CLUSTERS AROUND PERIODIC BOUNDARIES ON OUTPUT.
Info: FIRST LDB TIMESTEP     50
Info: LAST LDB TIMESTEP     -1
Info: HOM BACKGROUND SCALING 1
Info: PME BACKGROUND SCALING 1
Info: MIN ATOMS PER PATCH    40
Info: EMPTY PATCH LOAD       40 ATOMS
Info: INITIAL TEMPERATURE    300
Info: CENTER OF MASS MOVING INITIALLY? NO
Info: DIELECTRIC             1
Info: EXCLUDE                SCALED ONE-FOUR
Info: 1-4 ELECTROSTATICS SCALED BY 0.833333
Info: MODIFIED 1-4 VDW PARAMETERS WILL BE USED
Info: DCD FILENAME           mobley_7360181_equil.dcd
Info: DCD FREQUENCY          100000
Info: DCD FIRST STEP         100000
Info: DCD FILE WILL CONTAIN UNIT CELL DATA
Info: XST FILENAME           mobley_7360181_equil.xst
Info: XST FREQUENCY          100000
Info: NO VELOCITY DCD OUTPUT
Info: NO FORCE DCD OUTPUT
Info: OUTPUT FILENAME        mobley_7360181_equil
Info: BINARY OUTPUT FILES WILL BE USED
Info: RESTART FILENAME       mobley_7360181_equil.restart
Info: RESTART FREQUENCY      100000
Info: BINARY RESTART FILES WILL BE USED
Info: CUTOFF                 9
Info: PAIRLIST DISTANCE      11
Info: PAIRLIST SHRINK RATE   0.01
Info: PAIRLIST GROW RATE     0.01
Info: PAIRLIST TRIGGER       0.3
Info: PAIRLISTS PER CYCLE    2
Info: PAIRLISTS ENABLED
Info: MARGIN                 8
Info: HYDROGEN GROUP CUTOFF  2.5
Info: PATCH DIMENSION        21.5
Info: ENERGY OUTPUT STEPS    100000
Info: ENERGY EVALUATION STEPS    100000
Info: OUTPUT ENERGY PRECISION 4
Info: CROSSTERM ENERGY INCLUDED IN DIHEDRAL
Info: TIMING OUTPUT STEPS    1000000
Info: PRESSURE OUTPUT STEPS  100000
Info: LANGEVIN DYNAMICS ACTIVE
Info: LANGEVIN TEMPERATURE   30
Info: LANGEVIN USING BBK INTEGRATOR
Info: LANGEVIN DAMPING COEFFICIENT IS 1 INVERSE PS
Info: LANGEVIN DYNAMICS APPLIED TO HYDROGENS
Info: LANGEVIN PISTON PRESSURE CONTROL ACTIVE
Info:        TARGET PRESSURE IS 1.01325 BAR
Info:     OSCILLATION PERIOD IS 50 FS
Info:             DECAY TIME IS 25 FS
Info:     PISTON TEMPERATURE IS 300 K
Info:       PRESSURE CONTROL IS GROUP-BASED
Info:    INITIAL STRAIN RATE IS 0 0 0
Info:       CELL FLUCTUATION IS ISOTROPIC
Info: PARTICLE MESH EWALD (PME) ACTIVE
Info: PME TOLERANCE               1e-06
Info: PME EWALD COEFFICIENT       0.348832
Info: PME INTERPOLATION ORDER     4
Info: PME GRID DIMENSIONS         36 36 36
Info: PME MAXIMUM GRID SPACING    1
Info: FULL ELECTROSTATIC EVALUATION FREQUENCY      2
Info: USING VERLET I (r-RESPA) MTS SCHEME.
Info: C1 SPLITTING OF LONG RANGE ELECTROSTATICS
Info: PLACING ATOMS IN PATCHES BY HYDROGEN GROUPS
Info: RIGID BONDS TO HYDROGEN : ALL
Info:         ERROR TOLERANCE : 1e-08
Info:          MAX ITERATIONS : 100
Info: RIGID WATER USING SETTLE ALGORITHM
Info: RANDOM NUMBER SEED     1743251152
Info: USE HYDROGEN BONDS?    NO
Info: Using AMBER format force field!
Info: AMBER PARM FILE        mobley_7360181.prmtop
Info: COORDINATE PDB         mobley_7360181.pdb
Info: Exclusions will be read from PARM file!
Info: SCNB (VDW SCALING)     2
Info: USING ARITHMETIC MEAN TO COMBINE L-J SIGMA PARAMETERS
Info: BINARY COORDINATES     mobley_7360181_min.coor
Info: SUMMARY OF PARAMETERS:
Info: 6 BONDS
Info: 7 ANGLES
Info:   7 HARMONIC
Info:   0 COSINE-BASED
Info: 7 DIHEDRAL
Info: 0 IMPROPER
Info: 0 CROSSTERM
Info: 0 VDW
Info: 21 VDW_PAIRS
Info: 0 NBTHOLE_PAIRS
Info: STRUCTURE SUMMARY:
Info: 2939 ATOMS
Info: 2938 BONDS
Info: 33 ANGLES
Info: 42 DIHEDRALS
Info: 0 IMPROPERS
Info: 0 CROSSTERMS
Info: 2998 EXCLUSIONS
Info: 2928 RIGID BONDS
Info: 5889 DEGREES OF FREEDOM
Info: 984 HYDROGEN GROUPS
Info: 4 ATOMS IN LARGEST HYDROGEN GROUP
Info: 984 MIGRATION GROUPS
Info: 4 ATOMS IN LARGEST MIGRATION GROUP
Info: TOTAL MASS = 17703.7 amu
Info: TOTAL CHARGE = -9.99905e-05 e
Info: MASS DENSITY = 0.664267 g/cm^3
Info: ATOM DENSITY = 0.0664078 atoms/A^3
Info: ADDED 0 IMPLICIT EXCLUSIONS
Info: NONBONDED TABLE R-SQUARED SPACING: 0.0625
Info: NONBONDED TABLE SIZE: 705 POINTS
Info: REMOVING COM VELOCITY -0.0374232 -0.143559 0.0541932
TCL: Running for 100000 steps
ETITLE: TS BOND ANGLE DIHED IMPRP ELECT VDW BOUNDARY MISC KINETIC TOTAL TEMP POTENTIAL TOTAL3 TEMPAVG PRESSURE GPRESSURE VOLUME PRESSAVG GPRESSAVG
ENERGY: 0 1.7122 2.7497 13.0876 0.0000 -13543.6446 2436.1400 0.0000 0.0000 1755.4830 -9334.4722 300.0167 -11089.9552 -9334.1212 300.0167 543.4971 585.2309 44256.8405 543.4971 585.2309
ENERGY: 100000 2.6862 3.5560 13.1188 0.0000 -14147.2549 2503.0826 0.0000 0.0000 177.9135 -11446.8979 30.4059 -11624.8113 -11446.1822 31.0172 308.7362 367.1404 28520.3550 4.5650 4.5613
TCL: Running 100000 steps at 60 kelvin.
TCL: Setting parameter langevinTemp to 60
TCL: Running for 100000 steps
ETITLE: TS BOND ANGLE DIHED IMPRP ELECT VDW BOUNDARY MISC KINETIC TOTAL TEMP POTENTIAL TOTAL3 TEMPAVG PRESSURE GPRESSURE VOLUME PRESSAVG GPRESSAVG
ENERGY: 100000 2.6862 3.5560 13.1188 0.0000 -14147.2549 2503.0826 0.0000 0.0000 177.8229 -11446.9885 30.3904 -11624.8113 -11446.7028 30.3904 295.3038 367.3742 28520.3550 295.3038 367.3742
ENERGY: 200000 3.0067 3.8160 13.2881 0.0000 -13944.9908 2393.6904 0.0000 0.0000 347.0482 -11184.1414 59.3115 -11531.1896 -11183.1695 60.0722 -249.6712 -155.2893 28429.6749 4.5350 4.4961
TCL: Running 100000 steps at 90 kelvin.
TCL: Setting parameter langevinTemp to 90
TCL: Running for 100000 steps
ETITLE: TS BOND ANGLE DIHED IMPRP ELECT VDW BOUNDARY MISC KINETIC TOTAL TEMP POTENTIAL TOTAL3 TEMPAVG PRESSURE GPRESSURE VOLUME PRESSAVG GPRESSAVG
ENERGY: 200000 3.0067 3.8160 13.2881 0.0000 -13944.9908 2393.6904 0.0000 0.0000 346.8807 -11184.3089 59.2828 -11531.1896 -11183.6450 59.2828 -214.5891 -155.2788 28429.6749 -214.5891 -155.2788
ENERGY: 300000 5.2239 5.1411 13.1018 0.0000 -13914.5553 2431.3452 0.0000 0.0000 536.9651 -10922.7780 91.7688 -11459.7432 -10921.0726 90.1478 481.1965 529.0356 28147.8134 3.2573 3.1965
TCL: Running 100000 steps at 120 kelvin.
TCL: Setting parameter langevinTemp to 120
TCL: Running for 100000 steps
ETITLE: TS BOND ANGLE DIHED IMPRP ELECT VDW BOUNDARY MISC KINETIC TOTAL TEMP POTENTIAL TOTAL3 TEMPAVG PRESSURE GPRESSURE VOLUME PRESSAVG GPRESSAVG
ENERGY: 300000 5.2239 5.1411 13.1018 0.0000 -13914.5553 2431.3452 0.0000 0.0000 536.7097 -10923.0335 91.7251 -11459.7432 -10921.7347 91.7251 475.5824 528.6895 28147.8134 475.5824 528.6895
ENERGY: 400000 1.7430 5.8745 13.2384 0.0000 -13561.6246 2268.9702 0.0000 0.0000 707.6666 -10564.1319 120.9421 -11271.7985 -10561.8567 120.4564 -388.6082 -294.5998 28836.8780 3.0701 2.9948
TCL: Running 100000 steps at 150 kelvin.
TCL: Setting parameter langevinTemp to 150
TCL: Running for 100000 steps
ETITLE: TS BOND ANGLE DIHED IMPRP ELECT VDW BOUNDARY MISC KINETIC TOTAL TEMP POTENTIAL TOTAL3 TEMPAVG PRESSURE GPRESSURE VOLUME PRESSAVG GPRESSAVG
ENERGY: 400000 1.7430 5.8745 13.2384 0.0000 -13561.6246 2268.9702 0.0000 0.0000 707.3209 -10564.4776 120.8830 -11271.7985 -10563.0791 120.8830 -382.4719 -294.1352 28836.8780 -382.4719 -294.1352
ENERGY: 500000 2.2225 4.8624 13.9448 0.0000 -13192.9414 2055.7791 0.0000 0.0000 874.5793 -10241.5534 149.4679 -11116.1327 -10239.1030 150.0682 -1516.1717 -1535.0051 29027.9188 2.7724 2.7484
TCL: Running 100000 steps at 180 kelvin.
TCL: Setting parameter langevinTemp to 180
TCL: Running for 100000 steps
ETITLE: TS BOND ANGLE DIHED IMPRP ELECT VDW BOUNDARY MISC KINETIC TOTAL TEMP POTENTIAL TOTAL3 TEMPAVG PRESSURE GPRESSURE VOLUME PRESSAVG GPRESSAVG
ENERGY: 500000 2.2225 4.8624 13.9448 0.0000 -13192.9414 2055.7791 0.0000 0.0000 874.1464 -10241.9862 149.3940 -11116.1327 -10240.0077 149.3940 -1573.8994 -1534.9480 29027.9188 -1573.8994 -1534.9480
ENERGY: 600000 5.1711 9.2884 13.3738 0.0000 -13007.8382 2118.3803 0.0000 0.0000 1093.3563 -9768.2684 186.8575 -10861.6246 -9765.7905 179.9288 -77.9599 -17.5549 29007.4517 4.0833 4.1585
TCL: Running 100000 steps at 210 kelvin.
TCL: Setting parameter langevinTemp to 210
TCL: Running for 100000 steps
ETITLE: TS BOND ANGLE DIHED IMPRP ELECT VDW BOUNDARY MISC KINETIC TOTAL TEMP POTENTIAL TOTAL3 TEMPAVG PRESSURE GPRESSURE VOLUME PRESSAVG GPRESSAVG
ENERGY: 600000 5.1711 9.2884 13.3738 0.0000 -13007.8382 2118.3803 0.0000 0.0000 1092.8285 -9768.7962 186.7673 -10861.6246 -9766.5485 186.7673 -84.4507 -16.9861 29007.4517 -84.4507 -16.9861
ENERGY: 700000 6.6555 8.3931 13.6169 0.0000 -12178.4008 1813.4814 0.0000 0.0000 1229.3553 -9106.8986 210.1001 -10336.2539 -9104.0885 210.5342 -700.6339 -578.4731 28761.4456 3.9584 3.8855
TCL: Running 100000 steps at 240 kelvin.
TCL: Setting parameter langevinTemp to 240
TCL: Running for 100000 steps
ETITLE: TS BOND ANGLE DIHED IMPRP ELECT VDW BOUNDARY MISC KINETIC TOTAL TEMP POTENTIAL TOTAL3 TEMPAVG PRESSURE GPRESSURE VOLUME PRESSAVG GPRESSAVG
ENERGY: 700000 6.6555 8.3931 13.6169 0.0000 -12178.4008 1813.4814 0.0000 0.0000 1228.7472 -9107.5067 209.9962 -10336.2539 -9105.1703 209.9962 -652.7709 -579.6585 28761.4456 -652.7709 -579.6585
ENERGY: 800000 2.8962 12.2605 14.6681 0.0000 -11662.5008 1712.5624 0.0000 0.0000 1473.6809 -8446.4327 251.8560 -9920.1136 -8444.0990 240.0968 171.4889 227.2450 29018.5884 3.2229 3.2344
TCL: Running 100000 steps at 270 kelvin.
TCL: Setting parameter langevinTemp to 270
TCL: Running for 100000 steps
ETITLE: TS BOND ANGLE DIHED IMPRP ELECT VDW BOUNDARY MISC KINETIC TOTAL TEMP POTENTIAL TOTAL3 TEMPAVG PRESSURE GPRESSURE VOLUME PRESSAVG GPRESSAVG
ENERGY: 800000 2.8962 12.2605 14.6681 0.0000 -11662.5008 1712.5624 0.0000 0.0000 1472.9706 -8447.1429 251.7346 -9920.1136 -8444.8767 251.7346 156.0016 225.5462 29018.5884 156.0016 225.5462
ENERGY: 900000 3.5156 8.3361 13.2868 0.0000 -11188.3559 1579.8954 0.0000 0.0000 1575.7990 -8007.5230 269.3082 -9583.3220 -8003.7919 270.3235 166.5901 265.9938 29193.5260 1.8220 1.8134
TCL: Running 1000000 steps at 300 kelvin.
TCL: Setting parameter langevinTemp to 300
TCL: Running for 1000000 steps
ETITLE: TS BOND ANGLE DIHED IMPRP ELECT VDW BOUNDARY MISC KINETIC TOTAL TEMP POTENTIAL TOTAL3 TEMPAVG PRESSURE GPRESSURE VOLUME PRESSAVG GPRESSAVG
ENERGY: 900000 3.5156 8.3361 13.2868 0.0000 -11188.3559 1579.8954 0.0000 0.0000 1575.0283 -8008.2937 269.1765 -9583.3220 -8005.8220 269.1765 171.7701 266.8549 29193.5260 171.7701 266.8549
ENERGY: 1100000 3.3335 10.5416 14.8518 0.0000 -10550.8277 1453.1527 0.0000 0.0000 1763.1787 -7305.7694 301.3319 -9068.9481 -7302.4489 300.3323 162.0256 280.9468 30803.2849 3.2880 3.4253
ENERGY: 1300000 2.8898 16.2118 15.4037 0.0000 -10556.7788 1419.4738 0.0000 0.0000 1772.1379 -7330.6618 302.8631 -9102.7997 -7326.4391 300.3879 84.8463 187.7840 29966.0768 3.2619 3.0582
ENERGY: 1500000 3.0145 9.4533 13.6483 0.0000 -10661.0925 1512.7776 0.0000 0.0000 1769.0615 -7353.1373 302.3373 -9122.1987 -7350.5784 300.3316 560.5041 666.7510 30517.4197 2.7014 2.8448
ENERGY: 1700000 2.1427 7.2960 13.3414 0.0000 -10676.2497 1429.1132 0.0000 0.0000 1784.2211 -7440.1353 304.9281 -9224.3565 -7436.7233 300.0431 -140.6772 -45.8563 30032.9916 3.3939 3.4377
ENERGY: 1900000 2.7905 11.2384 14.0506 0.0000 -10590.2169 1434.8438 0.0000 0.0000 1778.3461 -7348.9474 303.9241 -9127.2935 -7344.8903 299.8939 263.2715 305.8890 30072.3169 1.9918 2.0109
TCL: Exiting due to exit command.
