Info: SIMULATION PARAMETERS:
Info: TIMESTEP               2
Info: NUMBER OF STEPS        0
Info: STEPS PER CYCLE        10
Info: PERIODIC CELL BASIS 1  34.986 0 0
Info: PERIODIC CELL BASIS 2  0 33.314 0
Info: PERIODIC CELL BASIS 3  0 0 37.451
Info: PERIODIC CELL CENTER   0 0 0
Info: WRAPPING WATERS AROUND PERIODIC BOUNDARIES ON OUTPUT.
Info: WRAPPING ALL CLUSTERS AROUND PERIODIC BOUNDARIES ON OUTPUT.
Info: FIRST LDB TIMESTEP     50
Info: LAST LDB TIMESTEP     -1
Info: HOM BACKGROUND SCALING 1
Info: PME BACKGROUND SCALING 1
Info: MIN ATOMS PER PATCH    40
Info: EMPTY PATCH LOAD       40 ATOMS
Info: INITIAL TEMPERATURE    300
Info: CENTER OF MASS MOVING INITIALLY? NO
Info: DIELECTRIC             1
Info: EXCLUDE                SCALED ONE-FOUR
Info: 1-4 ELECTROSTATICS SCALED BY 0.833333
Info: MODIFIED 1-4 VDW PARAMETERS WILL BE USED
Info: DCD FILENAME           mobley_3144334_equil.dcd
Info: DCD FREQUENCY          100000
Info: DCD FIRST STEP         100000
Info: DCD FILE WILL CONTAIN UNIT CELL DATA
Info: XST FILENAME           mobley_3144334_equil.xst
Info: XST FREQUENCY          100000
Info: NO VELOCITY DCD OUTPUT
Info: NO FORCE DCD OUTPUT
Info: OUTPUT FILENAME        mobley_3144334_equil
Info: BINARY OUTPUT FILES WILL BE USED
Info: RESTART FILENAME       mobley_3144334_equil.restart
Info: RESTART FREQUENCY      100000
Info: BINARY RESTART FILES WILL BE USED
Info: CUTOFF                 9
Info: PAIRLIST DISTANCE      11
Info: PAIRLIST SHRINK RATE   0.01
Info: PAIRLIST GROW RATE     0.01
Info: PAIRLIST TRIGGER       0.3
Info: PAIRLISTS PER CYCLE    2
Info: PAIRLISTS ENABLED
Info: MARGIN                 8
Info: HYDROGEN GROUP CUTOFF  2.5
Info: PATCH DIMENSION        21.5
Info: ENERGY OUTPUT STEPS    100000
Info: ENERGY EVALUATION STEPS    100000
Info: OUTPUT ENERGY PRECISION 4
Info: CROSSTERM ENERGY INCLUDED IN DIHEDRAL
Info: TIMING OUTPUT STEPS    1000000
Info: PRESSURE OUTPUT STEPS  100000
Info: LANGEVIN DYNAMICS ACTIVE
Info: LANGEVIN TEMPERATURE   30
Info: LANGEVIN USING BBK INTEGRATOR
Info: LANGEVIN DAMPING COEFFICIENT IS 1 INVERSE PS
Info: LANGEVIN DYNAMICS APPLIED TO HYDROGENS
Info: LANGEVIN PISTON PRESSURE CONTROL ACTIVE
Info:        TARGET PRESSURE IS 1.01325 BAR
Info:     OSCILLATION PERIOD IS 50 FS
Info:             DECAY TIME IS 25 FS
Info:     PISTON TEMPERATURE IS 300 K
Info:       PRESSURE CONTROL IS GROUP-BASED
Info:    INITIAL STRAIN RATE IS 0 0 0
Info:       CELL FLUCTUATION IS ISOTROPIC
Info: PARTICLE MESH EWALD (PME) ACTIVE
Info: PME TOLERANCE               1e-06
Info: PME EWALD COEFFICIENT       0.348832
Info: PME INTERPOLATION ORDER     4
Info: PME GRID DIMENSIONS         36 36 40
Info: PME MAXIMUM GRID SPACING    1
Info: FULL ELECTROSTATIC EVALUATION FREQUENCY      2
Info: USING VERLET I (r-RESPA) MTS SCHEME.
Info: C1 SPLITTING OF LONG RANGE ELECTROSTATICS
Info: PLACING ATOMS IN PATCHES BY HYDROGEN GROUPS
Info: RIGID BONDS TO HYDROGEN : ALL
Info:         ERROR TOLERANCE : 1e-08
Info:          MAX ITERATIONS : 100
Info: RIGID WATER USING SETTLE ALGORITHM
Info: RANDOM NUMBER SEED     1743216065
Info: USE HYDROGEN BONDS?    NO
Info: Using AMBER format force field!
Info: AMBER PARM FILE        mobley_3144334.prmtop
Info: COORDINATE PDB         mobley_3144334.pdb
Info: Exclusions will be read from PARM file!
Info: SCNB (VDW SCALING)     2
Info: USING ARITHMETIC MEAN TO COMBINE L-J SIGMA PARAMETERS
Info: BINARY COORDINATES     mobley_3144334_min.coor
Info: SUMMARY OF PARAMETERS:
Info: 8 BONDS
Info: 7 ANGLES
Info:   7 HARMONIC
Info:   0 COSINE-BASED
Info: 4 DIHEDRAL
Info: 0 IMPROPER
Info: 0 CROSSTERM
Info: 0 VDW
Info: 28 VDW_PAIRS
Info: 0 NBTHOLE_PAIRS
Info: STRUCTURE SUMMARY:
Info: 2935 ATOMS
Info: 2935 BONDS
Info: 31 ANGLES
Info: 44 DIHEDRALS
Info: 0 IMPROPERS
Info: 0 CROSSTERMS
Info: 3001 EXCLUSIONS
Info: 2926 RIGID BONDS
Info: 5879 DEGREES OF FREEDOM
Info: 981 HYDROGEN GROUPS
Info: 4 ATOMS IN LARGEST HYDROGEN GROUP
Info: 981 MIGRATION GROUPS
Info: 4 ATOMS IN LARGEST MIGRATION GROUP
Info: TOTAL MASS = 17633.7 amu
Info: TOTAL CHARGE = 0.000200007 e
Info: MASS DENSITY = 0.670839 g/cm^3
Info: ATOM DENSITY = 0.0672394 atoms/A^3
Info: ADDED 0 IMPLICIT EXCLUSIONS
Info: NONBONDED TABLE R-SQUARED SPACING: 0.0625
Info: NONBONDED TABLE SIZE: 705 POINTS
Info: REMOVING COM VELOCITY 0.0655962 -0.0992213 -0.0362974
TCL: Running for 100000 steps
ETITLE: TS BOND ANGLE DIHED IMPRP ELECT VDW BOUNDARY MISC KINETIC TOTAL TEMP POTENTIAL TOTAL3 TEMPAVG PRESSURE GPRESSURE VOLUME PRESSAVG GPRESSAVG
ENERGY: 0 0.2175 0.3349 2.2057 0.0000 -13597.5729 2405.0889 0.0000 0.0000 1807.7599 -9381.9660 309.4765 -11189.7259 -9381.5995 309.4765 543.6375 575.0092 43650.0245 543.6375 575.0092
ENERGY: 100000 0.1944 0.7409 1.9900 0.0000 -14292.3940 2577.2868 0.0000 0.0000 176.6888 -11535.4930 30.2480 -11712.1818 -11535.2366 30.9296 896.3097 930.2953 28539.9025 2.9793 2.9741
TCL: Running 100000 steps at 60 kelvin.
TCL: Setting parameter langevinTemp to 60
TCL: Running for 100000 steps
ETITLE: TS BOND ANGLE DIHED IMPRP ELECT VDW BOUNDARY MISC KINETIC TOTAL TEMP POTENTIAL TOTAL3 TEMPAVG PRESSURE GPRESSURE VOLUME PRESSAVG GPRESSAVG
ENERGY: 100000 0.1944 0.7409 1.9900 0.0000 -14292.3940 2577.2868 0.0000 0.0000 176.6043 -11535.5775 30.2335 -11712.1818 -11535.2241 30.2335 886.1137 929.8886 28539.9025 886.1137 929.8886
ENERGY: 200000 0.7503 1.7368 1.8457 0.0000 -14059.6716 2430.8594 0.0000 0.0000 353.5553 -11270.9242 60.5263 -11624.4794 -11269.7260 59.8152 71.6091 121.1762 28427.1385 3.9743 3.9791
TCL: Running 100000 steps at 90 kelvin.
TCL: Setting parameter langevinTemp to 90
TCL: Running for 100000 steps
ETITLE: TS BOND ANGLE DIHED IMPRP ELECT VDW BOUNDARY MISC KINETIC TOTAL TEMP POTENTIAL TOTAL3 TEMPAVG PRESSURE GPRESSURE VOLUME PRESSAVG GPRESSAVG
ENERGY: 200000 0.7503 1.7368 1.8457 0.0000 -14059.6716 2430.8594 0.0000 0.0000 353.3783 -11271.1011 60.4960 -11624.4794 -11270.2953 60.4960 64.0370 121.6840 28427.1385 64.0370 121.6840
ENERGY: 300000 1.5962 3.0994 2.3055 0.0000 -13838.6159 2308.2911 0.0000 0.0000 532.8362 -10990.4876 91.2180 -11523.3238 -10988.9596 89.8437 -558.1479 -531.1990 28589.0950 4.7756 4.6751
TCL: Running 100000 steps at 120 kelvin.
TCL: Setting parameter langevinTemp to 120
TCL: Running for 100000 steps
ETITLE: TS BOND ANGLE DIHED IMPRP ELECT VDW BOUNDARY MISC KINETIC TOTAL TEMP POTENTIAL TOTAL3 TEMPAVG PRESSURE GPRESSURE VOLUME PRESSAVG GPRESSAVG
ENERGY: 300000 1.5962 3.0994 2.3055 0.0000 -13838.6159 2308.2911 0.0000 0.0000 532.5714 -10990.7524 91.1727 -11523.3238 -10989.3676 91.1727 -581.3219 -531.5615 28589.0950 -581.3219 -531.5615
ENERGY: 400000 2.1587 2.4730 1.6706 0.0000 -13770.5632 2360.2180 0.0000 0.0000 700.0603 -10703.9826 119.8457 -11404.0429 -10702.4002 119.6822 470.9901 511.3071 28517.0982 4.0702 4.0641
TCL: Running 100000 steps at 150 kelvin.
TCL: Setting parameter langevinTemp to 150
TCL: Running for 100000 steps
ETITLE: TS BOND ANGLE DIHED IMPRP ELECT VDW BOUNDARY MISC KINETIC TOTAL TEMP POTENTIAL TOTAL3 TEMPAVG PRESSURE GPRESSURE VOLUME PRESSAVG GPRESSAVG
ENERGY: 400000 2.1587 2.4730 1.6706 0.0000 -13770.5632 2360.2180 0.0000 0.0000 699.7159 -10704.3269 119.7867 -11404.0429 -10703.0296 119.7867 460.7150 511.1771 28517.0982 460.7150 511.1771
ENERGY: 500000 0.9868 2.6881 2.3958 0.0000 -13468.7381 2265.4111 0.0000 0.0000 865.6643 -10331.5921 148.1960 -11197.2564 -10330.4482 150.3280 375.3045 430.1947 28445.1807 3.4143 3.3769
TCL: Running 100000 steps at 180 kelvin.
TCL: Setting parameter langevinTemp to 180
TCL: Running for 100000 steps
ETITLE: TS BOND ANGLE DIHED IMPRP ELECT VDW BOUNDARY MISC KINETIC TOTAL TEMP POTENTIAL TOTAL3 TEMPAVG PRESSURE GPRESSURE VOLUME PRESSAVG GPRESSAVG
ENERGY: 500000 0.9868 2.6881 2.3958 0.0000 -13468.7381 2265.4111 0.0000 0.0000 865.2231 -10332.0333 148.1204 -11197.2564 -10330.2111 148.1204 376.3802 428.9886 28445.1807 376.3802 428.9886
ENERGY: 600000 1.4572 3.8210 1.4921 0.0000 -13236.2338 2238.6199 0.0000 0.0000 1032.1598 -9958.6838 176.6989 -10990.8436 -9956.7511 179.8746 870.0309 908.4039 28648.6686 4.0613 4.1159
TCL: Running 100000 steps at 210 kelvin.
TCL: Setting parameter langevinTemp to 210
TCL: Running for 100000 steps
ETITLE: TS BOND ANGLE DIHED IMPRP ELECT VDW BOUNDARY MISC KINETIC TOTAL TEMP POTENTIAL TOTAL3 TEMPAVG PRESSURE GPRESSURE VOLUME PRESSAVG GPRESSAVG
ENERGY: 600000 1.4572 3.8210 1.4921 0.0000 -13236.2338 2238.6199 0.0000 0.0000 1031.6316 -9959.2120 176.6085 -10990.8436 -9957.6991 176.6085 838.8382 908.3217 28648.6686 838.8382 908.3217
ENERGY: 700000 3.4285 4.8896 1.4898 0.0000 -12248.3738 1850.8354 0.0000 0.0000 1221.2794 -9166.4511 209.0749 -10387.7305 -9165.2767 210.2050 162.7857 195.5216 28273.9782 4.0417 3.9211
TCL: Running 100000 steps at 240 kelvin.
TCL: Setting parameter langevinTemp to 240
TCL: Running for 100000 steps
ETITLE: TS BOND ANGLE DIHED IMPRP ELECT VDW BOUNDARY MISC KINETIC TOTAL TEMP POTENTIAL TOTAL3 TEMPAVG PRESSURE GPRESSURE VOLUME PRESSAVG GPRESSAVG
ENERGY: 700000 3.4285 4.8896 1.4898 0.0000 -12248.3738 1850.8354 0.0000 0.0000 1220.6610 -9167.0695 208.9691 -10387.7305 -9165.3454 208.9691 117.4759 194.4730 28273.9782 117.4759 194.4730
ENERGY: 800000 3.9389 4.1360 1.5120 0.0000 -11760.2917 1708.1412 0.0000 0.0000 1402.6306 -8639.9331 240.1211 -10042.5637 -8638.7018 239.2933 196.9862 198.3859 28448.2080 2.9697 2.7996
TCL: Running 100000 steps at 270 kelvin.
TCL: Setting parameter langevinTemp to 270
TCL: Running for 100000 steps
ETITLE: TS BOND ANGLE DIHED IMPRP ELECT VDW BOUNDARY MISC KINETIC TOTAL TEMP POTENTIAL TOTAL3 TEMPAVG PRESSURE GPRESSURE VOLUME PRESSAVG GPRESSAVG
ENERGY: 800000 3.9389 4.1360 1.5120 0.0000 -11760.2917 1708.1412 0.0000 0.0000 1401.9341 -8640.6296 240.0018 -10042.5637 -8638.8909 240.0018 134.9830 197.9744 28448.2080 134.9830 197.9744
ENERGY: 900000 2.4494 6.8560 2.2858 0.0000 -11153.6677 1519.3838 0.0000 0.0000 1610.4188 -8012.2737 275.6930 -9622.6926 -8010.2081 269.5865 -250.0675 -156.7149 29262.6483 4.4204 4.4840
TCL: Running 1000000 steps at 300 kelvin.
TCL: Setting parameter langevinTemp to 300
TCL: Running for 1000000 steps
ETITLE: TS BOND ANGLE DIHED IMPRP ELECT VDW BOUNDARY MISC KINETIC TOTAL TEMP POTENTIAL TOTAL3 TEMPAVG PRESSURE GPRESSURE VOLUME PRESSAVG GPRESSAVG
ENERGY: 900000 2.4494 6.8560 2.2858 0.0000 -11153.6677 1519.3838 0.0000 0.0000 1609.6080 -8013.0846 275.5542 -9622.6926 -8011.1898 275.5542 -232.9579 -156.6026 29262.6483 -232.9579 -156.6026
ENERGY: 1100000 2.4018 7.5668 2.0282 0.0000 -10717.0093 1461.0142 0.0000 0.0000 1698.9117 -7545.0868 290.8424 -9243.9984 -7541.3165 300.2469 256.4852 261.4032 30197.0594 4.0776 4.0664
ENERGY: 1300000 2.1409 8.4610 6.3146 0.0000 -10496.9553 1407.4162 0.0000 0.0000 1738.9235 -7333.6991 297.6922 -9072.6226 -7328.8301 300.4722 -132.4349 -42.5596 30624.5155 2.6197 2.6484
ENERGY: 1500000 1.1620 7.9020 1.0262 0.0000 -10557.9475 1413.6292 0.0000 0.0000 1786.6455 -7347.5826 305.8619 -9134.2281 -7342.6709 300.4884 215.3675 288.3178 30113.9577 3.5020 3.6763
ENERGY: 1700000 5.3796 5.5548 2.0613 0.0000 -10579.5647 1390.8172 0.0000 0.0000 1769.6378 -7406.1140 302.9502 -9175.7518 -7403.6377 300.1593 -267.2239 -227.0977 30379.7955 3.8706 3.8041
ENERGY: 1900000 1.0550 5.7697 2.3454 0.0000 -10695.4575 1431.9171 0.0000 0.0000 1731.4613 -7522.9091 296.4147 -9254.3704 -7519.4405 300.1804 182.2237 226.8123 29864.0171 3.3383 3.4801
TCL: Exiting due to exit command.
