Info: SIMULATION PARAMETERS:
Info: TIMESTEP               2
Info: NUMBER OF STEPS        0
Info: STEPS PER CYCLE        10
Info: PERIODIC CELL BASIS 1  36.005 0 0
Info: PERIODIC CELL BASIS 2  0 35.779 0
Info: PERIODIC CELL BASIS 3  0 0 34.68
Info: PERIODIC CELL CENTER   0 0 0
Info: WRAPPING WATERS AROUND PERIODIC BOUNDARIES ON OUTPUT.
Info: WRAPPING ALL CLUSTERS AROUND PERIODIC BOUNDARIES ON OUTPUT.
Info: FIRST LDB TIMESTEP     50
Info: LAST LDB TIMESTEP     -1
Info: HOM BACKGROUND SCALING 1
Info: PME BACKGROUND SCALING 1
Info: MIN ATOMS PER PATCH    40
Info: EMPTY PATCH LOAD       40 ATOMS
Info: INITIAL TEMPERATURE    300
Info: CENTER OF MASS MOVING INITIALLY? NO
Info: DIELECTRIC             1
Info: EXCLUDE                SCALED ONE-FOUR
Info: 1-4 ELECTROSTATICS SCALED BY 0.833333
Info: MODIFIED 1-4 VDW PARAMETERS WILL BE USED
Info: DCD FILENAME           mobley_5286200_equil.dcd
Info: DCD FREQUENCY          100000
Info: DCD FIRST STEP         100000
Info: DCD FILE WILL CONTAIN UNIT CELL DATA
Info: XST FILENAME           mobley_5286200_equil.xst
Info: XST FREQUENCY          100000
Info: NO VELOCITY DCD OUTPUT
Info: NO FORCE DCD OUTPUT
Info: OUTPUT FILENAME        mobley_5286200_equil
Info: BINARY OUTPUT FILES WILL BE USED
Info: RESTART FILENAME       mobley_5286200_equil.restart
Info: RESTART FREQUENCY      100000
Info: BINARY RESTART FILES WILL BE USED
Info: CUTOFF                 9
Info: PAIRLIST DISTANCE      11
Info: PAIRLIST SHRINK RATE   0.01
Info: PAIRLIST GROW RATE     0.01
Info: PAIRLIST TRIGGER       0.3
Info: PAIRLISTS PER CYCLE    2
Info: PAIRLISTS ENABLED
Info: MARGIN                 8
Info: HYDROGEN GROUP CUTOFF  2.5
Info: PATCH DIMENSION        21.5
Info: ENERGY OUTPUT STEPS    100000
Info: ENERGY EVALUATION STEPS    100000
Info: OUTPUT ENERGY PRECISION 4
Info: CROSSTERM ENERGY INCLUDED IN DIHEDRAL
Info: TIMING OUTPUT STEPS    1000000
Info: PRESSURE OUTPUT STEPS  100000
Info: LANGEVIN DYNAMICS ACTIVE
Info: LANGEVIN TEMPERATURE   30
Info: LANGEVIN USING BBK INTEGRATOR
Info: LANGEVIN DAMPING COEFFICIENT IS 1 INVERSE PS
Info: LANGEVIN DYNAMICS APPLIED TO HYDROGENS
Info: LANGEVIN PISTON PRESSURE CONTROL ACTIVE
Info:        TARGET PRESSURE IS 1.01325 BAR
Info:     OSCILLATION PERIOD IS 50 FS
Info:             DECAY TIME IS 25 FS
Info:     PISTON TEMPERATURE IS 300 K
Info:       PRESSURE CONTROL IS GROUP-BASED
Info:    INITIAL STRAIN RATE IS 0 0 0
Info:       CELL FLUCTUATION IS ISOTROPIC
Info: PARTICLE MESH EWALD (PME) ACTIVE
Info: PME TOLERANCE               1e-06
Info: PME EWALD COEFFICIENT       0.348832
Info: PME INTERPOLATION ORDER     4
Info: PME GRID DIMENSIONS         40 36 36
Info: PME MAXIMUM GRID SPACING    1
Info: FULL ELECTROSTATIC EVALUATION FREQUENCY      2
Info: USING VERLET I (r-RESPA) MTS SCHEME.
Info: C1 SPLITTING OF LONG RANGE ELECTROSTATICS
Info: PLACING ATOMS IN PATCHES BY HYDROGEN GROUPS
Info: RIGID BONDS TO HYDROGEN : ALL
Info:         ERROR TOLERANCE : 1e-08
Info:          MAX ITERATIONS : 100
Info: RIGID WATER USING SETTLE ALGORITHM
Info: RANDOM NUMBER SEED     1743247406
Info: USE HYDROGEN BONDS?    NO
Info: Using AMBER format force field!
Info: AMBER PARM FILE        mobley_5286200.prmtop
Info: COORDINATE PDB         mobley_5286200.pdb
Info: Exclusions will be read from PARM file!
Info: SCNB (VDW SCALING)     2
Info: USING ARITHMETIC MEAN TO COMBINE L-J SIGMA PARAMETERS
Info: BINARY COORDINATES     mobley_5286200_min.coor
Info: SUMMARY OF PARAMETERS:
Info: 6 BONDS
Info: 7 ANGLES
Info: 8 DIHEDRAL
Info: 0 IMPROPER
Info: 0 CROSSTERM
Info: 0 VDW
Info: 21 VDW_PAIRS
Info: 0 NBTHOLE_PAIRS
Info: STRUCTURE SUMMARY:
Info: 2903 ATOMS
Info: 2902 BONDS
Info: 24 ANGLES
Info: 33 DIHEDRALS
Info: 0 IMPROPERS
Info: 0 CROSSTERMS
Info: 2953 EXCLUSIONS
Info: 2897 RIGID BONDS
Info: 5812 DEGREES OF FREEDOM
Info: 969 HYDROGEN GROUPS
Info: 3 ATOMS IN LARGEST HYDROGEN GROUP
Info: 969 MIGRATION GROUPS
Info: 3 ATOMS IN LARGEST MIGRATION GROUP
Info: TOTAL MASS = 17476.4 amu
Info: TOTAL CHARGE = 0.00029999 e
Info: MASS DENSITY = 0.649593 g/cm^3
Info: ATOM DENSITY = 0.0649796 atoms/A^3
Info: ADDED 0 IMPLICIT EXCLUSIONS
Info: NONBONDED TABLE R-SQUARED SPACING: 0.0625
Info: NONBONDED TABLE SIZE: 705 POINTS
Info: REMOVING COM VELOCITY -0.0610433 0.0693259 -0.0329955
TCL: Running for 100000 steps
ETITLE: TS BOND ANGLE DIHED IMPRP ELECT VDW BOUNDARY MISC KINETIC TOTAL TEMP POTENTIAL TOTAL3 TEMPAVG PRESSURE GPRESSURE VOLUME PRESSAVG GPRESSAVG
ENERGY: 0 0.0359 0.1724 1.9823 0.0000 -13405.1328 2408.6437 0.0000 0.0000 1809.9819 -9184.3166 313.4289 -10994.2986 -9183.9554 313.4289 830.0901 854.8764 44675.5700 830.0901 854.8764
ENERGY: 100000 0.1452 0.7492 2.0092 0.0000 -13887.1421 2372.3922 0.0000 0.0000 168.2120 -11343.6342 29.1287 -11511.8462 -11343.2505 30.9888 -380.1840 -313.8437 28997.9988 4.2815 4.2643
TCL: Running 100000 steps at 60 kelvin.
TCL: Setting parameter langevinTemp to 60
TCL: Running for 100000 steps
ETITLE: TS BOND ANGLE DIHED IMPRP ELECT VDW BOUNDARY MISC KINETIC TOTAL TEMP POTENTIAL TOTAL3 TEMPAVG PRESSURE GPRESSURE VOLUME PRESSAVG GPRESSAVG
ENERGY: 100000 0.1452 0.7492 2.0092 0.0000 -13887.1421 2372.3922 0.0000 0.0000 168.1262 -11343.7200 29.1139 -11511.8462 -11343.3222 29.1139 -374.6814 -313.8264 28997.9988 -374.6814 -313.8264
ENERGY: 200000 0.5141 0.9859 2.1661 0.0000 -13899.9525 2461.8693 0.0000 0.0000 343.1306 -11091.2865 59.4188 -11434.4171 -11090.4290 59.9262 540.0823 597.7349 29104.9519 3.3696 3.3948
TCL: Running 100000 steps at 90 kelvin.
TCL: Setting parameter langevinTemp to 90
TCL: Running for 100000 steps
ETITLE: TS BOND ANGLE DIHED IMPRP ELECT VDW BOUNDARY MISC KINETIC TOTAL TEMP POTENTIAL TOTAL3 TEMPAVG PRESSURE GPRESSURE VOLUME PRESSAVG GPRESSAVG
ENERGY: 200000 0.5141 0.9859 2.1661 0.0000 -13899.9525 2461.8693 0.0000 0.0000 342.9721 -11091.4450 59.3914 -11434.4171 -11091.0929 59.3914 545.6380 598.0529 29104.9519 545.6380 598.0529
ENERGY: 300000 0.9021 2.3220 1.9612 0.0000 -13730.5541 2352.4759 0.0000 0.0000 502.9030 -10869.9898 87.0861 -11372.8928 -10869.3383 90.1011 -35.3588 46.7499 28441.9752 4.0908 4.1347
TCL: Running 100000 steps at 120 kelvin.
TCL: Setting parameter langevinTemp to 120
TCL: Running for 100000 steps
ETITLE: TS BOND ANGLE DIHED IMPRP ELECT VDW BOUNDARY MISC KINETIC TOTAL TEMP POTENTIAL TOTAL3 TEMPAVG PRESSURE GPRESSURE VOLUME PRESSAVG GPRESSAVG
ENERGY: 300000 0.9021 2.3220 1.9612 0.0000 -13730.5541 2352.4759 0.0000 0.0000 502.6399 -10870.2529 87.0406 -11372.8928 -10869.3332 87.0406 -14.0591 46.2081 28441.9752 -14.0591 46.2081
ENERGY: 400000 1.1593 1.7239 2.0007 0.0000 -13561.2132 2289.0713 0.0000 0.0000 704.4889 -10562.7690 121.9941 -11267.2579 -10561.6216 119.8171 -189.2103 -178.9387 28571.6623 4.2225 4.1574
TCL: Running 100000 steps at 150 kelvin.
TCL: Setting parameter langevinTemp to 150
TCL: Running for 100000 steps
ETITLE: TS BOND ANGLE DIHED IMPRP ELECT VDW BOUNDARY MISC KINETIC TOTAL TEMP POTENTIAL TOTAL3 TEMPAVG PRESSURE GPRESSURE VOLUME PRESSAVG GPRESSAVG
ENERGY: 400000 1.1593 1.7239 2.0007 0.0000 -13561.2132 2289.0713 0.0000 0.0000 704.1271 -10563.1309 121.9315 -11267.2579 -10561.5236 121.9315 -205.9426 -179.3478 28571.6623 -205.9426 -179.3478
ENERGY: 500000 0.3247 3.5369 1.6994 0.0000 -13217.9278 2088.4453 0.0000 0.0000 873.1670 -10250.7544 151.2036 -11123.9214 -10245.9920 150.0212 -1194.7177 -1163.8523 28449.7025 4.2547 4.2593
TCL: Running 100000 steps at 180 kelvin.
TCL: Setting parameter langevinTemp to 180
TCL: Running for 100000 steps
ETITLE: TS BOND ANGLE DIHED IMPRP ELECT VDW BOUNDARY MISC KINETIC TOTAL TEMP POTENTIAL TOTAL3 TEMPAVG PRESSURE GPRESSURE VOLUME PRESSAVG GPRESSAVG
ENERGY: 500000 0.3247 3.5369 1.6994 0.0000 -13217.9278 2088.4453 0.0000 0.0000 872.7255 -10251.1959 151.1271 -11123.9214 -10249.2939 151.1271 -1208.6605 -1163.0135 28449.7025 -1208.6605 -1163.0135
ENERGY: 600000 0.1561 2.8171 2.7260 0.0000 -12990.2389 2100.4387 0.0000 0.0000 1045.3135 -9838.7874 181.0137 -10884.1009 -9837.7600 179.9773 -205.0008 -123.4618 28456.0617 3.2226 3.3992
TCL: Running 100000 steps at 210 kelvin.
TCL: Setting parameter langevinTemp to 210
TCL: Running for 100000 steps
ETITLE: TS BOND ANGLE DIHED IMPRP ELECT VDW BOUNDARY MISC KINETIC TOTAL TEMP POTENTIAL TOTAL3 TEMPAVG PRESSURE GPRESSURE VOLUME PRESSAVG GPRESSAVG
ENERGY: 600000 0.1561 2.8171 2.7260 0.0000 -12990.2389 2100.4387 0.0000 0.0000 1044.7517 -9839.3492 180.9164 -10884.1009 -9836.8922 180.9164 -193.2312 -126.1963 28456.0617 -193.2312 -126.1963
ENERGY: 700000 1.5478 4.9850 2.4926 0.0000 -12210.4879 1878.7212 0.0000 0.0000 1206.0919 -9116.6493 208.8551 -10322.7412 -9114.8662 209.8974 630.7878 764.1962 27626.6894 3.9354 4.0815
TCL: Running 100000 steps at 240 kelvin.
TCL: Setting parameter langevinTemp to 240
TCL: Running for 100000 steps
ETITLE: TS BOND ANGLE DIHED IMPRP ELECT VDW BOUNDARY MISC KINETIC TOTAL TEMP POTENTIAL TOTAL3 TEMPAVG PRESSURE GPRESSURE VOLUME PRESSAVG GPRESSAVG
ENERGY: 700000 1.5478 4.9850 2.4926 0.0000 -12210.4879 1878.7212 0.0000 0.0000 1205.4784 -9117.2628 208.7489 -10322.7412 -9115.0174 208.7489 675.7134 763.5566 27626.6894 675.7134 763.5566
ENERGY: 800000 3.8488 3.4850 2.4739 0.0000 -11617.3901 1711.8828 0.0000 0.0000 1351.2653 -8544.4344 233.9944 -9895.6997 -8541.8747 239.9510 92.5591 216.0904 28643.8109 2.2163 2.1839
TCL: Running 100000 steps at 270 kelvin.
TCL: Setting parameter langevinTemp to 270
TCL: Running for 100000 steps
ETITLE: TS BOND ANGLE DIHED IMPRP ELECT VDW BOUNDARY MISC KINETIC TOTAL TEMP POTENTIAL TOTAL3 TEMPAVG PRESSURE GPRESSURE VOLUME PRESSAVG GPRESSAVG
ENERGY: 800000 3.8488 3.4850 2.4739 0.0000 -11617.3901 1711.8828 0.0000 0.0000 1350.5923 -8545.1074 233.8778 -9895.6997 -8542.8140 233.8778 117.2978 212.2468 28643.8109 117.2978 212.2468
ENERGY: 900000 0.6332 3.7237 3.3753 0.0000 -11026.7873 1502.5003 0.0000 0.0000 1584.1103 -7932.4444 274.3154 -9516.5547 -7929.4487 270.1334 -463.4247 -427.4552 29402.2945 2.5617 2.6221
TCL: Running 1000000 steps at 300 kelvin.
TCL: Setting parameter langevinTemp to 300
TCL: Running for 1000000 steps
ETITLE: TS BOND ANGLE DIHED IMPRP ELECT VDW BOUNDARY MISC KINETIC TOTAL TEMP POTENTIAL TOTAL3 TEMPAVG PRESSURE GPRESSURE VOLUME PRESSAVG GPRESSAVG
ENERGY: 900000 0.6332 3.7237 3.3753 0.0000 -11026.7873 1502.5003 0.0000 0.0000 1583.3561 -7933.1987 274.1848 -9516.5547 -7930.6538 274.1848 -516.9849 -428.7409 29402.2945 -516.9849 -428.7409
ENERGY: 1100000 1.9807 2.7894 2.0190 0.0000 -10673.8657 1485.4548 0.0000 0.0000 1692.0638 -7489.5580 293.0094 -9181.6218 -7486.1024 299.9152 455.7601 542.8219 29733.1993 3.1277 3.1795
ENERGY: 1300000 3.3331 1.9190 2.7629 0.0000 -10601.9037 1394.3080 0.0000 0.0000 1716.7707 -7482.8099 297.2878 -9199.5807 -7480.6650 300.3606 -583.6502 -444.6141 30034.6400 2.7154 2.6693
ENERGY: 1500000 2.3055 4.6488 2.3456 0.0000 -10403.8236 1292.8631 0.0000 0.0000 1724.4826 -7377.1781 298.6232 -9101.6606 -7373.8828 300.2748 -941.6269 -855.2307 29780.0638 2.9210 2.9811
ENERGY: 1700000 1.2632 4.2953 2.0627 0.0000 -10423.8676 1339.0513 0.0000 0.0000 1765.4331 -7311.7620 305.7145 -9077.1952 -7305.9962 300.4386 -645.2732 -563.8202 30428.7031 3.5026 3.6686
ENERGY: 1900000 0.6360 5.1041 2.7224 0.0000 -10528.1591 1442.6287 0.0000 0.0000 1706.5103 -7370.5577 295.5110 -9077.0679 -7367.1669 300.0629 515.8168 595.4643 29715.8130 3.4777 3.4686
TCL: Exiting due to exit command.
