Info: SIMULATION PARAMETERS:
Info: TIMESTEP               2
Info: NUMBER OF STEPS        0
Info: STEPS PER CYCLE        10
Info: PERIODIC CELL BASIS 1  34.986 0 0
Info: PERIODIC CELL BASIS 2  0 34.26 0
Info: PERIODIC CELL BASIS 3  0 0 36.199
Info: PERIODIC CELL CENTER   0 0 0
Info: WRAPPING WATERS AROUND PERIODIC BOUNDARIES ON OUTPUT.
Info: WRAPPING ALL CLUSTERS AROUND PERIODIC BOUNDARIES ON OUTPUT.
Info: FIRST LDB TIMESTEP     50
Info: LAST LDB TIMESTEP     -1
Info: HOM BACKGROUND SCALING 1
Info: PME BACKGROUND SCALING 1
Info: MIN ATOMS PER PATCH    40
Info: EMPTY PATCH LOAD       40 ATOMS
Info: INITIAL TEMPERATURE    300
Info: CENTER OF MASS MOVING INITIALLY? NO
Info: DIELECTRIC             1
Info: EXCLUDE                SCALED ONE-FOUR
Info: 1-4 ELECTROSTATICS SCALED BY 0.833333
Info: MODIFIED 1-4 VDW PARAMETERS WILL BE USED
Info: DCD FILENAME           mobley_9246351_equil.dcd
Info: DCD FREQUENCY          100000
Info: DCD FIRST STEP         100000
Info: DCD FILE WILL CONTAIN UNIT CELL DATA
Info: XST FILENAME           mobley_9246351_equil.xst
Info: XST FREQUENCY          100000
Info: NO VELOCITY DCD OUTPUT
Info: NO FORCE DCD OUTPUT
Info: OUTPUT FILENAME        mobley_9246351_equil
Info: BINARY OUTPUT FILES WILL BE USED
Info: RESTART FILENAME       mobley_9246351_equil.restart
Info: RESTART FREQUENCY      100000
Info: BINARY RESTART FILES WILL BE USED
Info: CUTOFF                 9
Info: PAIRLIST DISTANCE      11
Info: PAIRLIST SHRINK RATE   0.01
Info: PAIRLIST GROW RATE     0.01
Info: PAIRLIST TRIGGER       0.3
Info: PAIRLISTS PER CYCLE    2
Info: PAIRLISTS ENABLED
Info: MARGIN                 8
Info: HYDROGEN GROUP CUTOFF  2.5
Info: PATCH DIMENSION        21.5
Info: ENERGY OUTPUT STEPS    100000
Info: ENERGY EVALUATION STEPS    100000
Info: OUTPUT ENERGY PRECISION 4
Info: CROSSTERM ENERGY INCLUDED IN DIHEDRAL
Info: TIMING OUTPUT STEPS    1000000
Info: PRESSURE OUTPUT STEPS  100000
Info: LANGEVIN DYNAMICS ACTIVE
Info: LANGEVIN TEMPERATURE   30
Info: LANGEVIN USING BBK INTEGRATOR
Info: LANGEVIN DAMPING COEFFICIENT IS 1 INVERSE PS
Info: LANGEVIN DYNAMICS APPLIED TO HYDROGENS
Info: LANGEVIN PISTON PRESSURE CONTROL ACTIVE
Info:        TARGET PRESSURE IS 1.01325 BAR
Info:     OSCILLATION PERIOD IS 50 FS
Info:             DECAY TIME IS 25 FS
Info:     PISTON TEMPERATURE IS 300 K
Info:       PRESSURE CONTROL IS GROUP-BASED
Info:    INITIAL STRAIN RATE IS 0 0 0
Info:       CELL FLUCTUATION IS ISOTROPIC
Info: PARTICLE MESH EWALD (PME) ACTIVE
Info: PME TOLERANCE               1e-06
Info: PME EWALD COEFFICIENT       0.348832
Info: PME INTERPOLATION ORDER     4
Info: PME GRID DIMENSIONS         36 36 40
Info: PME MAXIMUM GRID SPACING    1
Info: FULL ELECTROSTATIC EVALUATION FREQUENCY      2
Info: USING VERLET I (r-RESPA) MTS SCHEME.
Info: C1 SPLITTING OF LONG RANGE ELECTROSTATICS
Info: PLACING ATOMS IN PATCHES BY HYDROGEN GROUPS
Info: RIGID BONDS TO HYDROGEN : ALL
Info:         ERROR TOLERANCE : 1e-08
Info:          MAX ITERATIONS : 100
Info: RIGID WATER USING SETTLE ALGORITHM
Info: RANDOM NUMBER SEED     1743154869
Info: USE HYDROGEN BONDS?    NO
Info: Using AMBER format force field!
Info: AMBER PARM FILE        mobley_9246351.prmtop
Info: COORDINATE PDB         mobley_9246351.pdb
Info: Exclusions will be read from PARM file!
Info: SCNB (VDW SCALING)     2
Info: USING ARITHMETIC MEAN TO COMBINE L-J SIGMA PARAMETERS
Info: BINARY COORDINATES     mobley_9246351_min.coor
Info: SUMMARY OF PARAMETERS:
Info: 4 BONDS
Info: 3 ANGLES
Info:   3 HARMONIC
Info:   0 COSINE-BASED
Info: 0 DIHEDRAL
Info: 0 IMPROPER
Info: 0 CROSSTERM
Info: 0 VDW
Info: 15 VDW_PAIRS
Info: 0 NBTHOLE_PAIRS
Info: STRUCTURE SUMMARY:
Info: 2906 ATOMS
Info: 2905 BONDS
Info: 6 ANGLES
Info: 0 DIHEDRALS
Info: 0 IMPROPERS
Info: 0 CROSSTERMS
Info: 2911 EXCLUSIONS
Info: 2903 RIGID BONDS
Info: 5815 DEGREES OF FREEDOM
Info: 970 HYDROGEN GROUPS
Info: 3 ATOMS IN LARGEST HYDROGEN GROUP
Info: 970 MIGRATION GROUPS
Info: 3 ATOMS IN LARGEST MIGRATION GROUP
Info: TOTAL MASS = 17595.3 amu
Info: TOTAL CHARGE = -0.000100001 e
Info: MASS DENSITY = 0.673407 g/cm^3
Info: ATOM DENSITY = 0.0669757 atoms/A^3
Info: ADDED 0 IMPLICIT EXCLUSIONS
Info: NONBONDED TABLE R-SQUARED SPACING: 0.0625
Info: NONBONDED TABLE SIZE: 705 POINTS
Info: REMOVING COM VELOCITY -0.108647 0.0919125 0.172845
TCL: Running for 100000 steps
ETITLE: TS BOND ANGLE DIHED IMPRP ELECT VDW BOUNDARY MISC KINETIC TOTAL TEMP POTENTIAL TOTAL3 TEMPAVG PRESSURE GPRESSURE VOLUME PRESSAVG GPRESSAVG
ENERGY: 0 0.0019 0.2152 0.0000 0.0000 -13479.6673 2367.7720 0.0000 0.0000 1728.8445 -9382.8337 299.2241 -11111.6782 -9382.4953 299.2241 465.1534 502.0683 43388.8584 465.1534 502.0683
ENERGY: 100000 0.1652 0.2755 0.0000 0.0000 -14073.2176 2446.4151 0.0000 0.0000 172.4493 -11453.9126 29.8471 -11626.3619 -11453.5565 30.9586 81.3560 145.8236 27878.8094 3.1070 3.1357
TCL: Running 100000 steps at 60 kelvin.
TCL: Setting parameter langevinTemp to 60
TCL: Running for 100000 steps
ETITLE: TS BOND ANGLE DIHED IMPRP ELECT VDW BOUNDARY MISC KINETIC TOTAL TEMP POTENTIAL TOTAL3 TEMPAVG PRESSURE GPRESSURE VOLUME PRESSAVG GPRESSAVG
ENERGY: 100000 0.1652 0.2755 0.0000 0.0000 -14073.2176 2446.4151 0.0000 0.0000 172.3648 -11453.9971 29.8325 -11626.3619 -11453.6326 29.8325 75.0319 145.6541 27878.8094 75.0319 145.6541
ENERGY: 200000 0.0526 1.0672 0.0000 0.0000 -13902.6957 2355.3254 0.0000 0.0000 337.8929 -11208.3576 58.4817 -11546.2504 -11207.6047 59.8718 -492.7094 -411.9271 28090.2048 3.6762 3.6999
TCL: Running 100000 steps at 90 kelvin.
TCL: Setting parameter langevinTemp to 90
TCL: Running for 100000 steps
ETITLE: TS BOND ANGLE DIHED IMPRP ELECT VDW BOUNDARY MISC KINETIC TOTAL TEMP POTENTIAL TOTAL3 TEMPAVG PRESSURE GPRESSURE VOLUME PRESSAVG GPRESSAVG
ENERGY: 200000 0.0526 1.0672 0.0000 0.0000 -13902.6957 2355.3254 0.0000 0.0000 337.7218 -11208.5287 58.4520 -11546.2504 -11207.9873 58.4520 -476.0701 -412.4179 28090.2048 -476.0701 -412.4179
ENERGY: 300000 0.0462 0.3602 0.0000 0.0000 -13857.9231 2408.9491 0.0000 0.0000 517.5715 -10930.9962 89.5800 -11448.5677 -10930.3189 89.6673 400.4172 412.3198 28109.3568 2.6588 2.6283
TCL: Running 100000 steps at 120 kelvin.
TCL: Setting parameter langevinTemp to 120
TCL: Running for 100000 steps
ETITLE: TS BOND ANGLE DIHED IMPRP ELECT VDW BOUNDARY MISC KINETIC TOTAL TEMP POTENTIAL TOTAL3 TEMPAVG PRESSURE GPRESSURE VOLUME PRESSAVG GPRESSAVG
ENERGY: 300000 0.0462 0.3602 0.0000 0.0000 -13857.9231 2408.9491 0.0000 0.0000 517.2994 -10931.2683 89.5329 -11448.5677 -10930.2551 89.5329 358.0200 411.4061 28109.3568 358.0200 411.4061
ENERGY: 400000 0.5026 1.6170 0.0000 0.0000 -13539.7991 2229.9624 0.0000 0.0000 702.0608 -10605.6564 121.5109 -11307.7171 -10603.6644 119.7712 -603.8942 -498.5200 28240.1405 4.3785 4.2971
TCL: Running 100000 steps at 150 kelvin.
TCL: Setting parameter langevinTemp to 150
TCL: Running for 100000 steps
ETITLE: TS BOND ANGLE DIHED IMPRP ELECT VDW BOUNDARY MISC KINETIC TOTAL TEMP POTENTIAL TOTAL3 TEMPAVG PRESSURE GPRESSURE VOLUME PRESSAVG GPRESSAVG
ENERGY: 400000 0.5026 1.6170 0.0000 0.0000 -13539.7991 2229.9624 0.0000 0.0000 701.7096 -10606.0076 121.4502 -11307.7171 -10604.3632 121.4502 -563.2166 -498.8089 28240.1405 -563.2166 -498.8089
ENERGY: 500000 0.3373 0.4518 0.0000 0.0000 -13242.2911 2094.6761 0.0000 0.0000 866.5353 -10280.2905 149.9778 -11146.8259 -10278.0488 150.3072 -1185.0358 -1133.5084 28547.7191 4.3653 4.3243
TCL: Running 100000 steps at 180 kelvin.
TCL: Setting parameter langevinTemp to 180
TCL: Running for 100000 steps
ETITLE: TS BOND ANGLE DIHED IMPRP ELECT VDW BOUNDARY MISC KINETIC TOTAL TEMP POTENTIAL TOTAL3 TEMPAVG PRESSURE GPRESSURE VOLUME PRESSAVG GPRESSAVG
ENERGY: 500000 0.3373 0.4518 0.0000 0.0000 -13242.2911 2094.6761 0.0000 0.0000 866.1055 -10280.7204 149.9034 -11146.8259 -10278.8938 149.9034 -1186.8163 -1134.3078 28547.7191 -1186.8163 -1134.3078
ENERGY: 600000 0.2884 0.9587 0.0000 0.0000 -12885.1030 2036.0333 0.0000 0.0000 1046.5156 -9801.3070 181.1283 -10847.8226 -9798.8020 179.9017 -577.4885 -480.6238 28532.2272 4.4511 4.4165
TCL: Running 100000 steps at 210 kelvin.
TCL: Setting parameter langevinTemp to 210
TCL: Running for 100000 steps
ETITLE: TS BOND ANGLE DIHED IMPRP ELECT VDW BOUNDARY MISC KINETIC TOTAL TEMP POTENTIAL TOTAL3 TEMPAVG PRESSURE GPRESSURE VOLUME PRESSAVG GPRESSAVG
ENERGY: 600000 0.2884 0.9587 0.0000 0.0000 -12885.1030 2036.0333 0.0000 0.0000 1045.9959 -9801.8266 181.0384 -10847.8226 -9799.8462 181.0384 -551.3057 -480.4750 28532.2272 -551.3057 -480.4750
ENERGY: 700000 0.2946 1.2138 0.0000 0.0000 -12221.9895 1822.8837 0.0000 0.0000 1196.9847 -9200.6128 207.1711 -10397.5974 -9197.9266 209.8446 -621.9407 -545.1858 28616.5439 4.1444 4.1232
TCL: Running 100000 steps at 240 kelvin.
TCL: Setting parameter langevinTemp to 240
TCL: Running for 100000 steps
ETITLE: TS BOND ANGLE DIHED IMPRP ELECT VDW BOUNDARY MISC KINETIC TOTAL TEMP POTENTIAL TOTAL3 TEMPAVG PRESSURE GPRESSURE VOLUME PRESSAVG GPRESSAVG
ENERGY: 700000 0.2946 1.2138 0.0000 0.0000 -12221.9895 1822.8837 0.0000 0.0000 1196.3720 -9201.2254 207.0651 -10397.5974 -9199.2741 207.0651 -628.0330 -542.0964 28616.5439 -628.0330 -542.0964
ENERGY: 800000 0.3253 1.5103 0.0000 0.0000 -11721.0235 1795.3657 0.0000 0.0000 1429.1867 -8494.6355 247.3601 -9923.8221 -8491.5760 239.5679 777.2733 866.3235 28847.2391 2.8929 2.9077
TCL: Running 100000 steps at 270 kelvin.
TCL: Setting parameter langevinTemp to 270
TCL: Running for 100000 steps
ETITLE: TS BOND ANGLE DIHED IMPRP ELECT VDW BOUNDARY MISC KINETIC TOTAL TEMP POTENTIAL TOTAL3 TEMPAVG PRESSURE GPRESSURE VOLUME PRESSAVG GPRESSAVG
ENERGY: 800000 0.3253 1.5103 0.0000 0.0000 -11721.0235 1795.3657 0.0000 0.0000 1428.5216 -8495.3006 247.2450 -9923.8221 -8493.1268 247.2450 774.1454 865.1570 28847.2391 774.1454 865.1570
ENERGY: 900000 0.4096 1.5441 0.0000 0.0000 -11143.4040 1509.5286 0.0000 0.0000 1530.4883 -8101.4335 264.8931 -9631.9218 -8099.1238 269.7154 -601.6085 -529.4285 29149.4008 4.0787 3.9437
TCL: Running 1000000 steps at 300 kelvin.
TCL: Setting parameter langevinTemp to 300
TCL: Running for 1000000 steps
ETITLE: TS BOND ANGLE DIHED IMPRP ELECT VDW BOUNDARY MISC KINETIC TOTAL TEMP POTENTIAL TOTAL3 TEMPAVG PRESSURE GPRESSURE VOLUME PRESSAVG GPRESSAVG
ENERGY: 900000 0.4096 1.5441 0.0000 0.0000 -11143.4040 1509.5286 0.0000 0.0000 1529.7734 -8102.1484 264.7694 -9631.9218 -8100.0261 264.7694 -607.2556 -529.7489 29149.4008 -607.2556 -529.7489
ENERGY: 1100000 0.1054 1.1036 0.0000 0.0000 -10539.0060 1418.4729 0.0000 0.0000 1707.2931 -7412.0310 295.4941 -9119.3241 -7409.7843 300.5630 -68.9426 59.8266 30067.9785 2.8357 2.9423
ENERGY: 1300000 0.0095 1.4651 0.0000 0.0000 -10408.8041 1330.2081 0.0000 0.0000 1820.9389 -7256.1826 315.1636 -9077.1215 -7253.1627 300.5896 -427.4258 -357.0030 29954.8345 3.4732 3.3768
ENERGY: 1500000 0.1064 2.4243 0.0000 0.0000 -10617.7566 1422.0261 0.0000 0.0000 1701.9765 -7491.2234 294.5739 -9193.1999 -7488.4423 299.8716 -118.8964 -34.3025 29935.9913 3.4463 3.2451
ENERGY: 1700000 0.2173 1.1412 0.0000 0.0000 -10576.4588 1454.9940 0.0000 0.0000 1728.3961 -7391.7103 299.1465 -9120.1064 -7387.8527 300.8295 357.5130 341.6111 30204.2527 2.7663 2.8066
ENERGY: 1900000 2.1222 0.5913 0.0000 0.0000 -10578.7906 1420.0793 0.0000 0.0000 1702.5704 -7453.4275 294.6767 -9155.9979 -7450.2763 300.5855 -536.0817 -427.8561 30899.3706 3.0820 3.0382
TCL: Exiting due to exit command.
