Info: SIMULATION PARAMETERS:
Info: TIMESTEP               2
Info: NUMBER OF STEPS        0
Info: STEPS PER CYCLE        10
Info: PERIODIC CELL BASIS 1  30.9414 0 0
Info: PERIODIC CELL BASIS 2  0 31.2958 0
Info: PERIODIC CELL BASIS 3  0 0 31.4328
Info: PERIODIC CELL CENTER   0 0 0
Info: WRAPPING WATERS AROUND PERIODIC BOUNDARIES ON OUTPUT.
Info: WRAPPING ALL CLUSTERS AROUND PERIODIC BOUNDARIES ON OUTPUT.
Info: FIRST LDB TIMESTEP     50
Info: LAST LDB TIMESTEP     -1
Info: HOM BACKGROUND SCALING 1
Info: PME BACKGROUND SCALING 1
Info: MIN ATOMS PER PATCH    40
Info: EMPTY PATCH LOAD       40 ATOMS
Info: VELOCITY FILE          mobley_1636752_equil.vel
Info: CENTER OF MASS MOVING INITIALLY? NO
Info: DIELECTRIC             1
Info: EXCLUDE                SCALED ONE-FOUR
Info: 1-4 ELECTROSTATICS SCALED BY 0.833333
Info: MODIFIED 1-4 VDW PARAMETERS WILL BE USED
Info: DCD FILENAME           mobley_1636752_prod.dcd
Info: DCD FREQUENCY          100000
Info: DCD FIRST STEP         100000
Info: DCD FILE WILL CONTAIN UNIT CELL DATA
Info: XST FILENAME           mobley_1636752_prod.xst
Info: XST FREQUENCY          100000
Info: NO VELOCITY DCD OUTPUT
Info: NO FORCE DCD OUTPUT
Info: OUTPUT FILENAME        mobley_1636752_prod
Info: BINARY OUTPUT FILES WILL BE USED
Info: RESTART FILENAME       mobley_1636752_prod.restart
Info: RESTART FREQUENCY      100000
Info: BINARY RESTART FILES WILL BE USED
Info: CUTOFF                 9
Info: PAIRLIST DISTANCE      11
Info: PAIRLIST SHRINK RATE   0.01
Info: PAIRLIST GROW RATE     0.01
Info: PAIRLIST TRIGGER       0.3
Info: PAIRLISTS PER CYCLE    2
Info: PAIRLISTS ENABLED
Info: MARGIN                 2
Info: HYDROGEN GROUP CUTOFF  2.5
Info: PATCH DIMENSION        15.5
Info: ENERGY OUTPUT STEPS    100000
Info: ENERGY EVALUATION STEPS    100000
Info: OUTPUT ENERGY PRECISION 4
Info: CROSSTERM ENERGY INCLUDED IN DIHEDRAL
Info: TIMING OUTPUT STEPS    1000000
Info: PRESSURE OUTPUT STEPS  100000
Info: ALCHEMICAL FEP ON
Info: FEP CURRENT LAMBDA VALUE     0
Info: FEP COMPARISON LAMBDA VALUE  0.05
Info: FEP INTRA-ALCHEMICAL NON-BONDED INTERACTIONS WILL BE RETAINED
Info: FEP INTRA-ALCHEMICAL BONDED INTERACTIONS WILL BE RETAINED
Info: FEP VDW SHIFTING COEFFICIENT 5
Info: FEP ELEC. ACTIVE FOR ANNIHILATED PARTICLES BETWEEN LAMBDA = 0 AND LAMBDA = 0.5
Info: FEP ELEC. ACTIVE FOR EXNIHILATED PARTICLES BETWEEN LAMBDA = 0.5 AND LAMBDA = 1
Info: FEP VDW ACTIVE FOR ANNIHILATED PARTICLES BETWEEN LAMBDA = 0 AND LAMBDA = 1
Info: FEP VDW ACTIVE FOR EXNIHILATED PARTICLES BETWEEN LAMBDA = 0 AND LAMBDA = 1
Info: FEP BOND ACTIVE FOR ANNIHILATED PARTICLES BETWEEN LAMBDA = 1 AND LAMBDA = 1
Info: FEP BOND ACTIVE FOR EXNIHILATED PARTICLES BETWEEN LAMBDA = 0 AND LAMBDA = 0
Info: LANGEVIN DYNAMICS ACTIVE
Info: LANGEVIN TEMPERATURE   300
Info: LANGEVIN USING BBK INTEGRATOR
Info: LANGEVIN DAMPING COEFFICIENT IS 1 INVERSE PS
Info: LANGEVIN DYNAMICS APPLIED TO HYDROGENS
Info: LANGEVIN PISTON PRESSURE CONTROL ACTIVE
Info:        TARGET PRESSURE IS 1.01325 BAR
Info:     OSCILLATION PERIOD IS 50 FS
Info:             DECAY TIME IS 25 FS
Info:     PISTON TEMPERATURE IS 300 K
Info:       PRESSURE CONTROL IS GROUP-BASED
Info:    INITIAL STRAIN RATE IS -0.00029223 -0.00029223 -0.00029223
Info:       CELL FLUCTUATION IS ISOTROPIC
Info: PARTICLE MESH EWALD (PME) ACTIVE
Info: PME TOLERANCE               1e-06
Info: PME EWALD COEFFICIENT       0.348832
Info: PME INTERPOLATION ORDER     4
Info: PME GRID DIMENSIONS         32 32 32
Info: PME MAXIMUM GRID SPACING    1
Info: PME CALCULATION WILL BE PERFORMED ON GPU
Info: FULL ELECTROSTATIC EVALUATION FREQUENCY      2
Info: USING VERLET I (r-RESPA) MTS SCHEME.
Info: C1 SPLITTING OF LONG RANGE ELECTROSTATICS
Info: PLACING ATOMS IN PATCHES BY HYDROGEN GROUPS
Info: RIGID BONDS TO HYDROGEN : ALL
Info:         ERROR TOLERANCE : 1e-08
Info:          MAX ITERATIONS : 100
Info: RIGID WATER USING SETTLE ALGORITHM
Info: RANDOM NUMBER SEED     1743465263
Info: USE HYDROGEN BONDS?    NO
Info: Using AMBER format force field!
Info: AMBER PARM FILE        mobley_1636752.prmtop
Info: COORDINATE PDB         mobley_1636752.pdb
Info: Exclusions will be read from PARM file!
Info: SCNB (VDW SCALING)     2
Info: USING ARITHMETIC MEAN TO COMBINE L-J SIGMA PARAMETERS
Info: BINARY COORDINATES     mobley_1636752_equil.coor
Info: SUMMARY OF PARAMETERS:
Info: 5 BONDS
Info: 3 ANGLES
Info:   3 HARMONIC
Info:   0 COSINE-BASED
Info: 1 DIHEDRAL
Info: 0 IMPROPER
Info: 0 CROSSTERM
Info: 0 VDW
Info: 15 VDW_PAIRS
Info: 0 NBTHOLE_PAIRS
Info: To read alchdata from file: mobley_1636752.pdb
Info: To read alchflag data from column: 5
Info: STRUCTURE SUMMARY:
Info: 2964 ATOMS
Info: 2963 BONDS
Info: 7 ANGLES
Info: 3 DIHEDRALS
Info: 0 IMPROPERS
Info: 0 CROSSTERMS
Info: 2973 EXCLUSIONS
Info: 2962 RIGID BONDS
Info: ALCH: 0 ATOMS TO DISAPPEAR IN FINAL STATE
Info: ALCH: 6 ATOMS TO APPEAR IN FINAL STATE
Info: 5930 DEGREES OF FREEDOM
Info: 988 HYDROGEN GROUPS
Info: 4 ATOMS IN LARGEST HYDROGEN GROUP
Info: 988 MIGRATION GROUPS
Info: 4 ATOMS IN LARGEST MIGRATION GROUP
Info: TOTAL MASS = 17795.8 amu
Info: TOTAL CHARGE = 9.99756e-05 e
Info: MASS DENSITY = 0.970889 g/cm^3
Info: ATOM DENSITY = 0.0973802 atoms/A^3
Info: ADDED 0 IMPLICIT EXCLUSIONS
Info: NONBONDED TABLE R-SQUARED SPACING: 0.0625
Info: NONBONDED TABLE SIZE: 705 POINTS
Info: REMOVING COM VELOCITY -0.0208947 -0.0822285 -0.0640555
Info: Use 3D box decompostion in PME FFT.
Info: Updated CUDA force table with 4096 elements.
Info: Updated CUDA LJ table with 5 x 5 elements.
Info: Found 9 unique exclusion lists needing 12 bytes
TCL: Running for 1500000 steps
ETITLE: TS BOND ANGLE DIHED IMPRP ELECT VDW BOUNDARY MISC KINETIC TOTAL TEMP POTENTIAL TOTALAVG TEMPAVG PRESSURE GPRESSURE VOLUME PRESSAVG GPRESSAVG
ENERGY: 0 0.1799 0.4744 0.4733 0.0000 -10668.0849 1426.3437 0.0000 0.0000 1744.7734 -7495.8401 296.1248 -9240.6136 -7495.8401 296.1248 -42.8061 43.3891 30437.4054 -42.8061 43.3891
ENERGY: 300000 0.4116 0.9046 0.0199 0.0000 -10779.9323 1465.9924 0.0000 0.0000 1738.2928 -7574.3110 295.0249 -9312.6038 -7557.9299 296.3186 3.9387 97.7860 30578.8389 188.7918 256.4873
ENERGY: 600000 0.1535 0.6445 0.3250 0.0000 -10713.8118 1393.2063 0.0000 0.0000 1734.9900 -7584.4925 294.4643 -9319.4825 -7559.1589 296.5781 -380.6335 -325.2174 30059.9443 -94.8032 -39.4905
ENERGY: 900000 0.0055 1.2260 0.1056 0.0000 -10776.9765 1463.2264 0.0000 0.0000 1750.5043 -7561.9087 297.0974 -9312.4131 -7547.2837 298.4790 81.7117 121.3274 30563.7652 11.3306 69.9737
ENERGY: 1200000 1.5494 0.7241 0.9832 0.0000 -10696.8468 1446.1737 0.0000 0.0000 1807.2100 -7440.2064 306.7216 -9247.4164 -7541.5988 298.0300 220.5678 287.0683 30244.4498 167.2664 230.3918
ENERGY: 1500000 0.6281 1.8026 0.5509 0.0000 -10826.2125 1468.7174 0.0000 0.0000 1766.0723 -7588.4411 299.7396 -9354.5134 -7542.0889 297.9472 -303.9701 -247.8356 30841.4945 212.3083 267.2662
TCL: Running FEP window   2: Lambda1 0.05   Lambda2 0.1    [dLambda 0.05  ]
TCL: Setting parameter firsttimestep to 0
TCL: Setting parameter alchLambda to 0.05
Info: NONBONDED TABLE R-SQUARED SPACING: 0.0625
Info: NONBONDED TABLE SIZE: 705 POINTS
TCL: Setting parameter alchLambda2 to 0.1
Info: NONBONDED TABLE R-SQUARED SPACING: 0.0625
Info: NONBONDED TABLE SIZE: 705 POINTS
TCL: Running for 1500000 steps
ETITLE: TS BOND ANGLE DIHED IMPRP ELECT VDW BOUNDARY MISC KINETIC TOTAL TEMP POTENTIAL TOTALAVG TEMPAVG PRESSURE GPRESSURE VOLUME PRESSAVG GPRESSAVG
ENERGY: 0 0.6281 1.8026 0.5509 0.0000 -10826.2131 1468.6542 0.0000 0.0000 1765.1792 -7589.3980 299.5881 -9354.5773 -7589.3980 299.5881 -326.6514 -247.6658 30841.4945 -326.6514 -247.6658
ENERGY: 300000 0.2983 0.5628 0.4782 0.0000 -10901.8903 1528.0262 0.0000 0.0000 1740.1294 -7632.3954 295.3366 -9372.5248 -7579.6811 299.4117 468.6773 588.4111 30171.3065 176.9436 278.8311
ENERGY: 600000 0.3164 2.1028 0.1377 0.0000 -10750.1728 1435.4518 0.0000 0.0000 1684.5573 -7627.6068 285.9048 -9312.1641 -7576.3808 298.9926 -303.3588 -215.3719 30753.1433 17.2631 86.5563
ENERGY: 900000 0.0032 4.5991 0.6600 0.0000 -10635.2435 1410.9433 0.0000 0.0000 1768.1151 -7450.9228 300.0863 -9219.0379 -7556.0593 300.0134 -438.4637 -314.7181 30996.6149 -41.5005 40.8059
ENERGY: 1200000 0.0121 0.3946 0.9836 0.0000 -10729.2851 1441.0038 0.0000 0.0000 1731.5209 -7555.3701 293.8755 -9286.8910 -7569.9019 298.1864 -0.6598 15.0107 30374.9275 -55.2738 7.9418
ENERGY: 1500000 0.6842 3.0499 0.0968 0.0000 -10819.8520 1482.6230 0.0000 0.0000 1806.4525 -7526.9457 306.5930 -9333.3981 -7566.0395 298.2071 200.2778 268.8504 30416.0711 19.7699 79.7728
TCL: Running FEP window   3: Lambda1 0.1    Lambda2 0.15000000000000002 [dLambda 0.05000000000000002]
TCL: Setting parameter firsttimestep to 0
TCL: Setting parameter alchLambda to 0.1
Info: NONBONDED TABLE R-SQUARED SPACING: 0.0625
Info: NONBONDED TABLE SIZE: 705 POINTS
TCL: Setting parameter alchLambda2 to 0.15000000000000002
Info: NONBONDED TABLE R-SQUARED SPACING: 0.0625
Info: NONBONDED TABLE SIZE: 705 POINTS
TCL: Running for 1500000 steps
ETITLE: TS BOND ANGLE DIHED IMPRP ELECT VDW BOUNDARY MISC KINETIC TOTAL TEMP POTENTIAL TOTALAVG TEMPAVG PRESSURE GPRESSURE VOLUME PRESSAVG GPRESSAVG
ENERGY: 0 0.6842 3.0499 0.0968 0.0000 -10819.8507 1482.4363 0.0000 0.0000 1805.5633 -7528.0201 306.4421 -9333.5835 -7528.0201 306.4421 186.4058 271.7013 30416.0711 186.4058 271.7013
ENERGY: 300000 0.0654 1.0916 0.0244 0.0000 -10671.3486 1404.8495 0.0000 0.0000 1754.0894 -7511.2283 297.7059 -9265.3178 -7505.3439 301.3205 -169.0900 -71.0287 30363.8618 -302.8603 -209.1961
ENERGY: 600000 0.0008 1.7056 0.2763 0.0000 -10870.0059 1492.2795 0.0000 0.0000 1714.3502 -7661.3935 290.9613 -9375.7437 -7539.7239 300.5206 46.6159 56.4506 30361.0082 -256.0249 -192.3563
ENERGY: 900000 0.4909 1.4604 0.3920 0.0000 -10681.1689 1429.3035 0.0000 0.0000 1823.9378 -7425.5842 309.5606 -9249.5220 -7533.9225 301.0221 61.1946 79.0795 30528.2520 -195.8018 -138.2729
ENERGY: 1200000 0.2464 3.7304 0.1446 0.0000 -10831.2556 1532.9925 0.0000 0.0000 1784.3300 -7509.8117 302.8383 -9294.1416 -7527.1963 301.2837 833.2360 863.4367 30228.2279 -84.7695 -27.7868
ENERGY: 1500000 0.2186 0.4441 0.5867 0.0000 -10701.0106 1406.3302 0.0000 0.0000 1708.7603 -7584.6707 290.0126 -9293.4310 -7536.9496 299.8881 -592.3615 -453.4851 30763.2859 -143.1301 -77.3822
TCL: Running FEP window   4: Lambda1 0.15000000000000002 Lambda2 0.2    [dLambda 0.04999999999999999]
TCL: Setting parameter firsttimestep to 0
TCL: Setting parameter alchLambda to 0.15000000000000002
Info: NONBONDED TABLE R-SQUARED SPACING: 0.0625
Info: NONBONDED TABLE SIZE: 705 POINTS
TCL: Setting parameter alchLambda2 to 0.2
Info: NONBONDED TABLE R-SQUARED SPACING: 0.0625
Info: NONBONDED TABLE SIZE: 705 POINTS
TCL: Running for 1500000 steps
ETITLE: TS BOND ANGLE DIHED IMPRP ELECT VDW BOUNDARY MISC KINETIC TOTAL TEMP POTENTIAL TOTALAVG TEMPAVG PRESSURE GPRESSURE VOLUME PRESSAVG GPRESSAVG
ENERGY: 0 0.2186 0.4441 0.5867 0.0000 -10701.0090 1406.4171 0.0000 0.0000 1707.8580 -7585.4846 289.8594 -9293.3426 -7585.4846 289.8594 -528.7872 -450.7237 30763.2859 -528.7872 -450.7237
ENERGY: 300000 0.3060 2.9697 0.3278 0.0000 -10691.5001 1385.1536 0.0000 0.0000 1755.4135 -7547.3295 297.9306 -9302.7430 -7567.8653 295.8522 -376.3120 -346.2260 30256.5966 -600.0406 -537.8658
ENERGY: 600000 0.6050 1.5893 0.9904 0.0000 -10874.0327 1504.2441 0.0000 0.0000 1754.4130 -7612.1910 297.7608 -9366.6039 -7565.3589 297.9184 261.0588 360.7359 30198.2153 -205.2329 -141.1788
ENERGY: 900000 0.1435 1.6053 0.3711 0.0000 -10667.6174 1368.7585 0.0000 0.0000 1752.0057 -7544.7333 297.3522 -9296.7390 -7552.1091 300.0528 -674.1554 -614.7264 30621.8938 -300.6301 -231.5605
ENERGY: 1200000 0.3012 0.9018 0.0282 0.0000 -10700.5870 1405.6402 0.0000 0.0000 1822.8343 -7470.8813 309.3733 -9293.7156 -7546.0308 301.3339 -166.5181 -105.1336 30348.3695 -236.5209 -168.9329
ENERGY: 1500000 3.7263 0.8756 0.1710 0.0000 -10769.2039 1438.5753 0.0000 0.0000 1809.8268 -7516.0289 307.1657 -9325.8557 -7555.1070 300.6641 41.6778 157.1377 30138.1551 -224.5425 -151.8473
TCL: Running FEP window   5: Lambda1 0.2    Lambda2 0.25   [dLambda 0.04999999999999999]
TCL: Setting parameter firsttimestep to 0
TCL: Setting parameter alchLambda to 0.2
Info: NONBONDED TABLE R-SQUARED SPACING: 0.0625
Info: NONBONDED TABLE SIZE: 705 POINTS
TCL: Setting parameter alchLambda2 to 0.25
Info: NONBONDED TABLE R-SQUARED SPACING: 0.0625
Info: NONBONDED TABLE SIZE: 705 POINTS
TCL: Running for 1500000 steps
ETITLE: TS BOND ANGLE DIHED IMPRP ELECT VDW BOUNDARY MISC KINETIC TOTAL TEMP POTENTIAL TOTALAVG TEMPAVG PRESSURE GPRESSURE VOLUME PRESSAVG GPRESSAVG
ENERGY: 0 3.7263 0.8756 0.1710 0.0000 -10769.2051 1438.3668 0.0000 0.0000 1808.9394 -7517.1259 307.0151 -9326.0653 -7517.1259 307.0151 79.6052 157.6677 30138.1551 79.6052 157.6677
ENERGY: 300000 0.2274 3.0287 0.9194 0.0000 -10801.0843 1486.3994 0.0000 0.0000 1778.1545 -7532.3550 301.7902 -9310.5095 -7562.7681 301.5234 201.1283 220.3039 30792.2196 431.3758 478.3104
ENERGY: 600000 0.3910 0.4787 0.2026 0.0000 -10751.4703 1396.8157 0.0000 0.0000 1675.3596 -7678.2227 284.3438 -9353.5824 -7574.5294 299.0452 -398.4435 -328.1813 29993.5938 292.7623 343.2842
ENERGY: 900000 0.1290 3.0305 0.0260 0.0000 -10744.2698 1432.0144 0.0000 0.0000 1767.7441 -7541.3257 300.0234 -9309.0698 -7557.1568 300.8408 -158.8795 -65.1514 30536.6906 300.2917 358.1026
ENERGY: 1200000 0.3025 1.4830 0.9794 0.0000 -10845.9663 1504.6437 0.0000 0.0000 1745.1409 -7593.4167 296.1871 -9338.5576 -7563.5625 300.2448 391.0745 407.7761 30345.7862 275.2984 328.4682
ENERGY: 1500000 0.8925 1.0876 0.8219 0.0000 -10724.4058 1434.2956 0.0000 0.0000 1776.1169 -7511.1913 301.4444 -9287.3082 -7551.7456 299.9881 -332.0755 -251.2458 31103.3332 169.2493 226.1251
TCL: Running FEP window   6: Lambda1 0.25   Lambda2 0.3    [dLambda 0.04999999999999999]
TCL: Setting parameter firsttimestep to 0
TCL: Setting parameter alchLambda to 0.25
Info: NONBONDED TABLE R-SQUARED SPACING: 0.0625
Info: NONBONDED TABLE SIZE: 705 POINTS
TCL: Setting parameter alchLambda2 to 0.3
Info: NONBONDED TABLE R-SQUARED SPACING: 0.0625
Info: NONBONDED TABLE SIZE: 705 POINTS
TCL: Running for 1500000 steps
ETITLE: TS BOND ANGLE DIHED IMPRP ELECT VDW BOUNDARY MISC KINETIC TOTAL TEMP POTENTIAL TOTALAVG TEMPAVG PRESSURE GPRESSURE VOLUME PRESSAVG GPRESSAVG
ENERGY: 0 0.8925 1.0876 0.8219 0.0000 -10724.4055 1435.0189 0.0000 0.0000 1775.2678 -7511.3169 301.3003 -9286.5846 -7511.3169 301.3003 -321.6191 -244.5959 31103.3332 -321.6191 -244.5959
ENERGY: 300000 0.0002 4.3837 0.0684 0.0000 -10862.1420 1471.5984 0.0000 0.0000 1748.0944 -7637.9969 296.6884 -9386.0913 -7542.8029 296.6066 -202.8892 -113.0668 30536.0079 -92.6580 -24.3121
ENERGY: 600000 0.0948 1.5034 0.8707 0.0000 -10866.2737 1508.8714 0.0000 0.0000 1743.1993 -7611.7341 295.8576 -9354.9335 -7555.0106 298.2830 349.0611 426.1143 30394.1268 31.6261 96.0064
ENERGY: 900000 0.0001 1.7340 0.7969 0.0000 -10757.1125 1448.4097 0.0000 0.0000 1768.2555 -7537.9163 300.1102 -9306.1718 -7555.0570 299.0940 -192.6200 -110.2818 30560.6728 99.5023 171.5420
ENERGY: 1200000 0.8168 3.7488 0.5845 0.0000 -10740.2688 1458.7150 0.0000 0.0000 1745.0588 -7531.3449 296.1732 -9276.4037 -7555.6174 298.4563 -202.9080 -148.3162 31065.7573 -12.3508 56.3124
ENERGY: 1500000 0.0441 1.0625 0.0255 0.0000 -10859.3999 1489.2588 0.0000 0.0000 1785.8274 -7583.1816 303.0925 -9369.0090 -7555.8213 298.9322 467.2774 539.9016 29823.7423 52.8458 120.6724
TCL: Running FEP window   7: Lambda1 0.3    Lambda2 0.35   [dLambda 0.04999999999999999]
TCL: Setting parameter firsttimestep to 0
TCL: Setting parameter alchLambda to 0.3
Info: NONBONDED TABLE R-SQUARED SPACING: 0.0625
Info: NONBONDED TABLE SIZE: 705 POINTS
TCL: Setting parameter alchLambda2 to 0.35
Info: NONBONDED TABLE R-SQUARED SPACING: 0.0625
Info: NONBONDED TABLE SIZE: 705 POINTS
TCL: Running for 1500000 steps
ETITLE: TS BOND ANGLE DIHED IMPRP ELECT VDW BOUNDARY MISC KINETIC TOTAL TEMP POTENTIAL TOTALAVG TEMPAVG PRESSURE GPRESSURE VOLUME PRESSAVG GPRESSAVG
ENERGY: 0 0.0441 1.0625 0.0255 0.0000 -10859.4001 1489.7262 0.0000 0.0000 1784.9932 -7583.5484 302.9509 -9368.5417 -7583.5484 302.9509 457.2649 543.8573 29823.7423 457.2649 543.8573
ENERGY: 300000 0.1404 1.0754 0.2898 0.0000 -10811.3277 1516.7797 0.0000 0.0000 1755.3200 -7537.7224 297.9147 -9293.0424 -7564.3649 299.2453 716.4654 860.9801 30017.0426 73.8149 152.8237
ENERGY: 600000 0.3529 2.2714 0.7598 0.0000 -10665.8022 1378.9426 0.0000 0.0000 1691.3985 -7592.0770 287.0659 -9283.4755 -7549.8057 298.3924 -995.9219 -925.2961 31342.6497 -274.2044 -205.6499
ENERGY: 900000 0.1741 0.9611 0.5681 0.0000 -10885.8399 1555.7236 0.0000 0.0000 1762.5885 -7565.8245 299.1484 -9328.4130 -7561.1217 298.7081 847.9401 883.3270 30378.2458 -218.4436 -154.0643
ENERGY: 1200000 0.2690 3.2220 0.9294 0.0000 -10679.7662 1367.8666 0.0000 0.0000 1791.7076 -7515.7716 304.0905 -9307.4792 -7555.0086 299.7243 -731.8467 -640.8992 30809.3890 -245.3784 -175.1382
ENERGY: 1500000 0.0279 2.2814 0.3236 0.0000 -10651.8616 1377.3252 0.0000 0.0000 1763.7884 -7508.1152 299.3520 -9271.9035 -7552.6585 299.5515 -315.5012 -280.4904 30382.3805 -228.7860 -160.6275
TCL: Running FEP window   8: Lambda1 0.35   Lambda2 0.39999999999999997 [dLambda 0.04999999999999999]
TCL: Setting parameter firsttimestep to 0
TCL: Setting parameter alchLambda to 0.35
Info: NONBONDED TABLE R-SQUARED SPACING: 0.0625
Info: NONBONDED TABLE SIZE: 705 POINTS
TCL: Setting parameter alchLambda2 to 0.39999999999999997
Info: NONBONDED TABLE R-SQUARED SPACING: 0.0625
Info: NONBONDED TABLE SIZE: 705 POINTS
TCL: Running for 1500000 steps
ETITLE: TS BOND ANGLE DIHED IMPRP ELECT VDW BOUNDARY MISC KINETIC TOTAL TEMP POTENTIAL TOTALAVG TEMPAVG PRESSURE GPRESSURE VOLUME PRESSAVG GPRESSAVG
ENERGY: 0 0.0279 2.2814 0.3236 0.0000 -10651.8608 1377.0809 0.0000 0.0000 1762.9157 -7509.2313 299.2039 -9272.1470 -7509.2313 299.2039 -373.5111 -279.3598 30382.3805 -373.5111 -279.3598
ENERGY: 300000 0.3916 1.1382 0.9992 0.0000 -10727.1994 1402.0073 0.0000 0.0000 1716.1919 -7606.4712 291.2739 -9322.6632 -7558.1254 296.7175 -225.8875 -168.4369 30103.4317 -338.5788 -247.5323
ENERGY: 600000 0.5380 0.9575 0.2003 0.0000 -10720.1985 1431.1131 0.0000 0.0000 1789.3963 -7497.9933 303.6982 -9287.3896 -7543.8237 299.7359 -234.4878 -129.3205 30794.7097 -247.3733 -154.9248
ENERGY: 900000 0.0179 3.4442 0.0299 0.0000 -10789.8410 1407.4080 0.0000 0.0000 1754.9890 -7623.9519 297.8586 -9378.9409 -7541.0996 300.6929 -420.8301 -377.8857 30380.7127 -85.2336 -5.1741
ENERGY: 1200000 0.4510 0.5907 0.1073 0.0000 -10792.5873 1410.0125 0.0000 0.0000 1761.7796 -7619.6462 299.0111 -9381.4258 -7546.6870 301.2070 -637.6379 -543.1611 30832.9240 -107.0022 -36.2726
ENERGY: 1500000 0.0540 0.8235 0.0345 0.0000 -10773.5355 1440.1931 0.0000 0.0000 1810.9246 -7521.5057 307.3520 -9332.4304 -7539.4921 302.2740 -192.1326 -127.2530 30465.1871 -73.3136 -6.5140
TCL: Running FEP window   9: Lambda1 0.39999999999999997 Lambda2 0.44999999999999996 [dLambda 0.04999999999999999]
TCL: Setting parameter firsttimestep to 0
TCL: Setting parameter alchLambda to 0.39999999999999997
Info: NONBONDED TABLE R-SQUARED SPACING: 0.0625
Info: NONBONDED TABLE SIZE: 705 POINTS
TCL: Setting parameter alchLambda2 to 0.44999999999999996
Info: NONBONDED TABLE R-SQUARED SPACING: 0.0625
Info: NONBONDED TABLE SIZE: 705 POINTS
TCL: Running for 1500000 steps
ETITLE: TS BOND ANGLE DIHED IMPRP ELECT VDW BOUNDARY MISC KINETIC TOTAL TEMP POTENTIAL TOTALAVG TEMPAVG PRESSURE GPRESSURE VOLUME PRESSAVG GPRESSAVG
ENERGY: 0 0.0540 0.8235 0.0345 0.0000 -10773.5337 1440.1034 0.0000 0.0000 1810.0383 -7522.4800 307.2016 -9332.5183 -7522.4800 307.2016 -195.3841 -123.8797 30465.1871 -195.3841 -123.8797
ENERGY: 300000 0.2653 0.9399 0.0905 0.0000 -10741.8197 1407.6185 0.0000 0.0000 1749.9362 -7582.9693 297.0010 -9332.9055 -7577.9400 299.5422 -364.1699 -292.1084 30303.3067 -8.9192 64.3381
ENERGY: 600000 0.1030 1.2464 0.0420 0.0000 -10631.3795 1370.5159 0.0000 0.0000 1729.7741 -7529.6982 293.5791 -9259.4723 -7560.0813 299.1014 -354.0942 -298.8277 30402.4842 -74.6444 -7.2891
ENERGY: 900000 0.2520 1.1206 0.0297 0.0000 -10675.0566 1349.1197 0.0000 0.0000 1750.2332 -7574.3014 297.0514 -9324.5346 -7564.1123 298.8312 -895.2511 -792.1708 30569.9676 -192.7498 -121.7697
ENERGY: 1200000 0.1040 0.9536 0.1192 0.0000 -10807.6378 1455.0429 0.0000 0.0000 1755.3452 -7596.0729 297.9190 -9351.4181 -7567.2036 298.3844 -169.9005 -48.9281 30503.7619 -171.1237 -100.1862
ENERGY: 1500000 0.0620 2.0716 0.5919 0.0000 -10763.2329 1486.0171 0.0000 0.0000 1736.3710 -7538.1193 294.6987 -9274.4903 -7555.9018 298.3338 116.0842 199.9753 31019.3519 -91.6208 -25.0708
TCL: Running FEP window  10: Lambda1 0.44999999999999996 Lambda2 0.49999999999999994 [dLambda 0.04999999999999999]
TCL: Setting parameter firsttimestep to 0
TCL: Setting parameter alchLambda to 0.44999999999999996
Info: NONBONDED TABLE R-SQUARED SPACING: 0.0625
Info: NONBONDED TABLE SIZE: 705 POINTS
TCL: Setting parameter alchLambda2 to 0.49999999999999994
Info: NONBONDED TABLE R-SQUARED SPACING: 0.0625
Info: NONBONDED TABLE SIZE: 705 POINTS
TCL: Running for 1500000 steps
ETITLE: TS BOND ANGLE DIHED IMPRP ELECT VDW BOUNDARY MISC KINETIC TOTAL TEMP POTENTIAL TOTALAVG TEMPAVG PRESSURE GPRESSURE VOLUME PRESSAVG GPRESSAVG
ENERGY: 0 0.0620 2.0716 0.5919 0.0000 -10763.2344 1485.8058 0.0000 0.0000 1735.4178 -7539.2853 294.5369 -9274.7031 -7539.2853 294.5369 119.1664 197.4617 31019.3519 119.1664 197.4617
ENERGY: 300000 0.0446 0.7482 0.1390 0.0000 -10703.9810 1493.2210 0.0000 0.0000 1772.3569 -7437.4713 300.8063 -9209.8282 -7521.4884 299.6657 496.6697 511.8184 30780.9424 -37.5395 26.0554
ENERGY: 600000 0.6088 1.2587 0.0134 0.0000 -10881.1136 1470.2663 0.0000 0.0000 1733.8995 -7675.0668 294.2792 -9408.9663 -7560.3299 299.9554 -185.7511 -164.3171 30490.5125 -121.0729 -68.7796
ENERGY: 900000 0.0001 3.3421 0.0848 0.0000 -10813.9953 1454.6400 0.0000 0.0000 1798.5581 -7557.3703 305.2532 -9355.9284 -7543.4390 301.5946 -43.4107 52.5033 30323.8164 -143.2142 -89.9560
ENERGY: 1200000 0.1390 1.4842 0.2516 0.0000 -10820.8075 1456.3357 0.0000 0.0000 1708.1257 -7654.4713 289.9049 -9362.5970 -7548.4525 300.2986 -213.6775 -161.4111 30466.0981 -125.1713 -72.7335
ENERGY: 1500000 0.0123 2.6091 0.0541 0.0000 -10700.5436 1400.8672 0.0000 0.0000 1773.8312 -7523.1696 301.0565 -9297.0008 -7549.5277 300.2926 -265.7985 -219.7825 30479.7074 -153.7611 -101.5385
TCL: Running FEP window  11: Lambda1 0.49999999999999994 Lambda2 0.5499999999999999 [dLambda 0.04999999999999999]
TCL: Setting parameter firsttimestep to 0
TCL: Setting parameter alchLambda to 0.49999999999999994
Info: NONBONDED TABLE R-SQUARED SPACING: 0.0625
Info: NONBONDED TABLE SIZE: 705 POINTS
TCL: Setting parameter alchLambda2 to 0.5499999999999999
Info: NONBONDED TABLE R-SQUARED SPACING: 0.0625
Info: NONBONDED TABLE SIZE: 705 POINTS
TCL: Running for 1500000 steps
ETITLE: TS BOND ANGLE DIHED IMPRP ELECT VDW BOUNDARY MISC KINETIC TOTAL TEMP POTENTIAL TOTALAVG TEMPAVG PRESSURE GPRESSURE VOLUME PRESSAVG GPRESSAVG
ENERGY: 0 0.0123 2.6091 0.0541 0.0000 -10700.5444 1401.2014 0.0000 0.0000 1772.9328 -7523.7346 300.9040 -9296.6674 -7523.7346 300.9040 -298.5575 -212.0387 30479.7074 -298.5575 -212.0387
ENERGY: 300000 0.7266 0.9496 0.8115 0.0000 -10766.1024 1489.4412 0.0000 0.0000 1756.1127 -7518.0606 298.0493 -9274.1733 -7522.6681 299.9340 384.2706 498.2471 30665.8399 -18.7677 46.8022
ENERGY: 600000 0.0558 2.3545 0.1740 0.0000 -10648.4774 1411.8142 0.0000 0.0000 1741.8036 -7492.2754 295.6207 -9234.0790 -7537.9902 298.4766 -110.9699 -44.3977 30575.6394 -6.8102 66.6489
ENERGY: 900000 0.9451 1.3333 0.0291 0.0000 -10817.4397 1467.7103 0.0000 0.0000 1770.3783 -7577.0435 300.4705 -9347.4218 -7544.7726 299.3832 -43.8671 43.5773 30558.5009 -16.0570 52.5526
ENERGY: 1200000 0.4651 1.6563 0.6628 0.0000 -10687.4441 1387.6377 0.0000 0.0000 1791.4681 -7505.5541 304.0498 -9297.0222 -7541.2930 300.2723 -511.5179 -399.5811 30511.6013 -110.0464 -42.1590
ENERGY: 1500000 0.0417 1.0775 0.0105 0.0000 -10692.6268 1380.0173 0.0000 0.0000 1765.6355 -7545.8443 299.6655 -9311.4798 -7547.0797 299.8576 -384.4442 -362.5980 30320.1881 -138.0374 -73.8232
TCL: Running FEP window  12: Lambda1 0.5499999999999999 Lambda2 0.6    [dLambda 0.050000000000000044]
TCL: Setting parameter firsttimestep to 0
TCL: Setting parameter alchLambda to 0.5499999999999999
Info: NONBONDED TABLE R-SQUARED SPACING: 0.0625
Info: NONBONDED TABLE SIZE: 705 POINTS
TCL: Setting parameter alchLambda2 to 0.6
Info: NONBONDED TABLE R-SQUARED SPACING: 0.0625
Info: NONBONDED TABLE SIZE: 705 POINTS
TCL: Running for 1500000 steps
ETITLE: TS BOND ANGLE DIHED IMPRP ELECT VDW BOUNDARY MISC KINETIC TOTAL TEMP POTENTIAL TOTALAVG TEMPAVG PRESSURE GPRESSURE VOLUME PRESSAVG GPRESSAVG
ENERGY: 0 0.0417 1.0775 0.0105 0.0000 -10692.5995 1380.3886 0.0000 0.0000 1764.7408 -7546.3404 299.5137 -9311.0812 -7546.3404 299.5137 -441.8617 -356.1584 30320.1881 -441.8617 -356.1584
ENERGY: 300000 0.6758 3.4718 0.0196 0.0000 -10641.1291 1398.4072 0.0000 0.0000 1778.2926 -7460.2621 301.8137 -9238.5547 -7516.7034 302.7205 -321.2539 -174.3028 30482.6438 -0.0019 95.3915
ENERGY: 600000 0.0141 0.9432 0.6991 0.0000 -10612.1360 1399.0794 0.0000 0.0000 1825.4031 -7385.9972 309.8093 -9211.4003 -7530.0910 302.2722 -116.6010 -40.9581 30638.7931 30.5730 119.0231
ENERGY: 900000 0.0139 1.6392 0.0388 0.0000 -10584.3490 1334.7525 0.0000 0.0000 1773.8166 -7474.0880 301.0540 -9247.9046 -7519.4710 301.5206 -865.5022 -813.5225 31021.1425 -90.2805 -12.5251
ENERGY: 1200000 0.0097 1.6827 0.9230 0.0000 -10600.8634 1356.9874 0.0000 0.0000 1770.1512 -7471.1093 300.4319 -9241.2606 -7529.2557 300.6067 -547.5873 -497.7397 30676.7079 -157.7552 -87.9673
ENERGY: 1500000 0.7269 1.3476 0.1155 0.0000 -10757.3254 1442.4561 0.0000 0.0000 1763.4136 -7549.2656 299.2884 -9312.6792 -7527.9705 299.7504 97.8532 115.3824 30490.9962 -141.9552 -75.1792
TCL: Running FEP window  13: Lambda1 0.6    Lambda2 0.65   [dLambda 0.050000000000000044]
TCL: Setting parameter firsttimestep to 0
TCL: Setting parameter alchLambda to 0.6
Info: NONBONDED TABLE R-SQUARED SPACING: 0.0625
Info: NONBONDED TABLE SIZE: 705 POINTS
TCL: Setting parameter alchLambda2 to 0.65
Info: NONBONDED TABLE R-SQUARED SPACING: 0.0625
Info: NONBONDED TABLE SIZE: 705 POINTS
TCL: Running for 1500000 steps
ETITLE: TS BOND ANGLE DIHED IMPRP ELECT VDW BOUNDARY MISC KINETIC TOTAL TEMP POTENTIAL TOTALAVG TEMPAVG PRESSURE GPRESSURE VOLUME PRESSAVG GPRESSAVG
ENERGY: 0 0.7269 1.3476 0.1155 0.0000 -10756.9196 1442.3904 0.0000 0.0000 1762.5393 -7549.7997 299.1400 -9312.3390 -7549.7997 299.1400 45.0603 119.3323 30490.9962 45.0603 119.3323
ENERGY: 300000 0.2203 1.7065 0.1904 0.0000 -10725.0481 1438.9968 0.0000 0.0000 1779.7420 -7504.1922 302.0597 -9283.9342 -7511.1484 304.7211 -45.8157 13.5713 30725.1128 -59.1574 -6.4940
ENERGY: 600000 0.1187 2.5037 0.0701 0.0000 -10663.7642 1397.6751 0.0000 0.0000 1795.8086 -7467.5879 304.7865 -9263.3966 -7529.2396 303.0643 -365.4556 -326.3329 30701.7456 -158.9091 -111.4927
ENERGY: 900000 0.3078 0.9135 0.2553 0.0000 -10758.2400 1370.6654 0.0000 0.0000 1797.4139 -7588.6841 305.0590 -9386.0980 -7518.2604 303.5564 -482.5354 -396.9633 29900.7055 -123.5205 -69.1048
ENERGY: 1200000 0.2968 3.5295 0.0233 0.0000 -10663.3238 1431.2902 0.0000 0.0000 1795.1690 -7433.0150 304.6780 -9228.1840 -7523.1570 301.8565 218.8299 225.0287 30533.1529 -28.5406 20.7221
ENERGY: 1500000 0.9436 1.4926 0.7563 0.0000 -10713.4025 1437.4610 0.0000 0.0000 1766.1111 -7506.6379 299.7462 -9272.7490 -7529.2338 301.5750 32.3161 48.8576 30399.0518 -56.9355 -1.3719
TCL: Running FEP window  14: Lambda1 0.65   Lambda2 0.7000000000000001 [dLambda 0.050000000000000044]
TCL: Setting parameter firsttimestep to 0
TCL: Setting parameter alchLambda to 0.65
Info: NONBONDED TABLE R-SQUARED SPACING: 0.0625
Info: NONBONDED TABLE SIZE: 705 POINTS
TCL: Setting parameter alchLambda2 to 0.7000000000000001
Info: NONBONDED TABLE R-SQUARED SPACING: 0.0625
Info: NONBONDED TABLE SIZE: 705 POINTS
TCL: Running for 1500000 steps
ETITLE: TS BOND ANGLE DIHED IMPRP ELECT VDW BOUNDARY MISC KINETIC TOTAL TEMP POTENTIAL TOTALAVG TEMPAVG PRESSURE GPRESSURE VOLUME PRESSAVG GPRESSAVG
ENERGY: 0 0.9436 1.4926 0.7563 0.0000 -10713.4338 1438.3621 0.0000 0.0000 1765.2784 -7506.6008 299.6049 -9271.8792 -7506.6008 299.6049 -11.2414 59.2707 30399.0518 -11.2414 59.2707
ENERGY: 300000 0.0572 3.8978 0.0005 0.0000 -10822.6070 1478.1478 0.0000 0.0000 1807.6525 -7532.8511 306.7967 -9340.5036 -7562.6138 299.0044 -137.3558 -104.8910 31048.3974 28.3619 85.3210
ENERGY: 600000 1.2525 0.7775 0.2021 0.0000 -10924.6823 1524.7846 0.0000 0.0000 1903.0804 -7494.5851 322.9928 -9397.6655 -7549.0898 302.6737 426.4749 479.5614 30439.7964 63.8122 122.4965
ENERGY: 900000 0.1259 0.9260 0.5283 0.0000 -10814.1253 1533.5493 0.0000 0.0000 1760.5277 -7518.4680 298.7986 -9278.9958 -7532.6522 301.4304 373.7453 449.1395 31053.7076 90.7445 143.0164
ENERGY: 1200000 0.9049 1.9784 0.9539 0.0000 -10811.7067 1483.6336 0.0000 0.0000 1777.6797 -7546.5563 301.7096 -9324.2360 -7536.9065 302.5735 447.2875 552.8408 29803.1335 38.9514 96.7659
ENERGY: 1500000 0.0026 0.7541 0.4730 0.0000 -10802.0476 1419.9901 0.0000 0.0000 1770.7681 -7610.0597 300.5366 -9380.8278 -7538.9850 302.5035 -461.4806 -400.6698 30346.8991 -15.3387 52.6530
TCL: Running FEP window  15: Lambda1 0.7000000000000001 Lambda2 0.7500000000000001 [dLambda 0.050000000000000044]
TCL: Setting parameter firsttimestep to 0
TCL: Setting parameter alchLambda to 0.7000000000000001
Info: NONBONDED TABLE R-SQUARED SPACING: 0.0625
Info: NONBONDED TABLE SIZE: 705 POINTS
TCL: Setting parameter alchLambda2 to 0.7500000000000001
Info: NONBONDED TABLE R-SQUARED SPACING: 0.0625
Info: NONBONDED TABLE SIZE: 705 POINTS
TCL: Running for 1500000 steps
ETITLE: TS BOND ANGLE DIHED IMPRP ELECT VDW BOUNDARY MISC KINETIC TOTAL TEMP POTENTIAL TOTALAVG TEMPAVG PRESSURE GPRESSURE VOLUME PRESSAVG GPRESSAVG
ENERGY: 0 0.0026 0.7541 0.4730 0.0000 -10802.2384 1420.4511 0.0000 0.0000 1769.8815 -7610.6761 300.3861 -9380.5576 -7610.6761 300.3861 -476.1912 -391.8594 30346.8991 -476.1912 -391.8594
ENERGY: 300000 0.1510 1.9433 0.8182 0.0000 -10553.1081 1327.2649 0.0000 0.0000 1780.4418 -7442.4888 302.1784 -9222.9306 -7539.0787 299.3017 -853.4229 -816.2388 30899.3072 -328.5663 -255.5272
ENERGY: 600000 0.0093 4.0572 0.1735 0.0000 -10833.7344 1480.0701 0.0000 0.0000 1766.1585 -7583.2658 299.7543 -9349.4243 -7538.7878 300.2552 331.9859 322.9897 30076.9340 -116.4017 -73.0061
ENERGY: 900000 0.0225 1.2913 0.0025 0.0000 -10708.4462 1421.2698 0.0000 0.0000 1754.6987 -7531.1614 297.8093 -9285.8601 -7548.5950 300.4907 -201.0935 -178.6571 30700.8910 -195.8188 -146.6673
ENERGY: 1200000 0.0771 0.8174 0.1104 0.0000 -10699.8583 1412.3183 0.0000 0.0000 1783.9098 -7502.6253 302.7670 -9286.5351 -7534.5339 301.1595 -262.4510 -163.1579 30793.9913 -136.0390 -77.1828
ENERGY: 1500000 0.0794 1.7046 0.9633 0.0000 -10789.7316 1401.2848 0.0000 0.0000 1771.8606 -7613.8390 300.7220 -9385.6995 -7539.6498 301.2800 -270.2974 -243.9246 30021.0422 -106.2100 -51.7495
TCL: Running FEP window  16: Lambda1 0.7500000000000001 Lambda2 0.8000000000000002 [dLambda 0.050000000000000044]
TCL: Setting parameter firsttimestep to 0
TCL: Setting parameter alchLambda to 0.7500000000000001
Info: NONBONDED TABLE R-SQUARED SPACING: 0.0625
Info: NONBONDED TABLE SIZE: 705 POINTS
TCL: Setting parameter alchLambda2 to 0.8000000000000002
Info: NONBONDED TABLE R-SQUARED SPACING: 0.0625
Info: NONBONDED TABLE SIZE: 705 POINTS
TCL: Running for 1500000 steps
ETITLE: TS BOND ANGLE DIHED IMPRP ELECT VDW BOUNDARY MISC KINETIC TOTAL TEMP POTENTIAL TOTALAVG TEMPAVG PRESSURE GPRESSURE VOLUME PRESSAVG GPRESSAVG
ENERGY: 0 0.0794 1.7046 0.9633 0.0000 -10790.9098 1401.2327 0.0000 0.0000 1770.9775 -7615.9523 300.5722 -9386.9298 -7615.9523 300.5722 -323.6731 -242.3444 30021.0422 -323.6731 -242.3444
ENERGY: 300000 0.9222 1.7531 0.7202 0.0000 -10759.3892 1516.2060 0.0000 0.0000 1753.1225 -7486.6653 297.5418 -9239.7878 -7520.7353 301.6800 305.3719 395.4559 30952.2533 29.0232 107.2804
ENERGY: 600000 0.1818 1.9977 0.0015 0.0000 -10635.9483 1372.9829 0.0000 0.0000 1750.1211 -7510.6633 297.0324 -9260.7844 -7526.5289 299.6219 -648.2212 -599.9738 30916.4949 -79.6541 -3.3102
ENERGY: 900000 0.2478 1.1718 0.0029 0.0000 -10792.5377 1446.3703 0.0000 0.0000 1766.4643 -7578.2808 299.8062 -9344.7450 -7540.9116 299.6095 32.8787 58.2278 30182.7885 -112.4063 -37.2230
ENERGY: 1200000 0.2222 1.1364 0.7858 0.0000 -10838.5223 1552.0880 0.0000 0.0000 1705.9787 -7578.3112 289.5405 -9284.2899 -7549.4314 298.4971 994.2110 1025.7799 30480.9187 12.9029 84.9477
ENERGY: 1500000 0.9404 1.6127 0.0182 0.0000 -10739.8649 1418.3305 0.0000 0.0000 1809.6916 -7509.2716 307.1428 -9318.9632 -7541.9330 299.3400 -153.0264 -105.1476 30225.1787 28.0439 92.9331
TCL: Running FEP window  17: Lambda1 0.8000000000000002 Lambda2 0.8500000000000002 [dLambda 0.050000000000000044]
TCL: Setting parameter firsttimestep to 0
TCL: Setting parameter alchLambda to 0.8000000000000002
Info: NONBONDED TABLE R-SQUARED SPACING: 0.0625
Info: NONBONDED TABLE SIZE: 705 POINTS
TCL: Setting parameter alchLambda2 to 0.8500000000000002
Info: NONBONDED TABLE R-SQUARED SPACING: 0.0625
Info: NONBONDED TABLE SIZE: 705 POINTS
TCL: Running for 1500000 steps
ETITLE: TS BOND ANGLE DIHED IMPRP ELECT VDW BOUNDARY MISC KINETIC TOTAL TEMP POTENTIAL TOTALAVG TEMPAVG PRESSURE GPRESSURE VOLUME PRESSAVG GPRESSAVG
ENERGY: 0 0.9404 1.6127 0.0182 0.0000 -10740.1475 1418.3987 0.0000 0.0000 1808.8021 -7510.3754 306.9918 -9319.1775 -7510.3754 306.9918 -182.7632 -98.7391 30225.1787 -182.7632 -98.7391
ENERGY: 300000 0.0005 4.5127 0.0712 0.0000 -10819.0348 1453.3493 0.0000 0.0000 1757.7965 -7603.3045 298.3351 -9361.1011 -7567.1604 299.6162 -294.4516 -261.8647 30741.4157 -307.7397 -243.0715
ENERGY: 600000 0.2317 0.7861 0.6676 0.0000 -10828.5518 1482.4962 0.0000 0.0000 1805.6808 -7538.6894 306.4620 -9344.3702 -7549.7285 300.8605 400.7301 500.4762 30059.7292 -180.1346 -106.5773
ENERGY: 900000 0.7814 1.0404 0.1075 0.0000 -10689.8428 1400.2023 0.0000 0.0000 1734.7933 -7552.9179 294.4309 -9287.7112 -7552.7368 300.8660 -302.7909 -277.2471 30580.4448 -243.7207 -176.8728
ENERGY: 1200000 0.0130 3.8310 0.7596 0.0000 -10807.6687 1447.5112 0.0000 0.0000 1765.6100 -7589.9440 299.6612 -9355.5540 -7550.3868 300.9292 -52.8791 32.7797 29985.9916 -157.6634 -90.6050
ENERGY: 1500000 0.1925 2.5710 0.1663 0.0000 -10862.7333 1520.0402 0.0000 0.0000 1751.7478 -7588.0155 297.3085 -9339.7633 -7548.6491 300.8572 284.0430 342.3153 30708.7655 -60.2157 3.1312
TCL: Running FEP window  18: Lambda1 0.8500000000000002 Lambda2 0.9000000000000002 [dLambda 0.050000000000000044]
TCL: Setting parameter firsttimestep to 0
TCL: Setting parameter alchLambda to 0.8500000000000002
Info: NONBONDED TABLE R-SQUARED SPACING: 0.0625
Info: NONBONDED TABLE SIZE: 705 POINTS
TCL: Setting parameter alchLambda2 to 0.9000000000000002
Info: NONBONDED TABLE R-SQUARED SPACING: 0.0625
Info: NONBONDED TABLE SIZE: 705 POINTS
TCL: Running for 1500000 steps
ETITLE: TS BOND ANGLE DIHED IMPRP ELECT VDW BOUNDARY MISC KINETIC TOTAL TEMP POTENTIAL TOTALAVG TEMPAVG PRESSURE GPRESSURE VOLUME PRESSAVG GPRESSAVG
ENERGY: 0 0.1925 2.5710 0.1663 0.0000 -10863.0338 1520.4176 0.0000 0.0000 1750.8814 -7588.8050 297.1614 -9339.6864 -7588.8050 297.1614 267.4984 351.0606 30708.7655 267.4984 351.0606
ENERGY: 300000 0.0246 1.5437 0.4263 0.0000 -10970.7072 1571.8036 0.0000 0.0000 1779.0803 -7617.8287 301.9474 -9396.9090 -7571.7750 299.5977 709.7256 763.8615 30398.7320 407.2636 482.3699
ENERGY: 600000 0.1431 0.5577 0.1663 0.0000 -10803.0403 1504.1911 0.0000 0.0000 1742.5960 -7555.3860 295.7552 -9297.9820 -7579.7968 298.5595 377.4558 376.3171 30796.4615 270.6732 326.5336
ENERGY: 900000 0.0000 2.4511 0.3064 0.0000 -10638.3979 1342.0681 0.0000 0.0000 1755.9097 -7537.6625 298.0148 -9293.5723 -7556.8316 299.7236 -991.7053 -876.5292 30669.3152 81.2944 139.4023
ENERGY: 1200000 1.0013 4.2812 0.0957 0.0000 -10614.1033 1332.8062 0.0000 0.0000 1765.0605 -7510.8584 299.5679 -9275.9189 -7551.2964 299.9951 -959.7174 -966.7147 30903.4333 -86.4485 -35.9031
ENERGY: 1500000 0.4675 2.8718 0.1029 0.0000 -10909.1076 1469.6423 0.0000 0.0000 1758.5735 -7677.4495 298.4669 -9436.0231 -7560.5323 299.3213 -127.7399 -76.5465 30225.1537 -116.2611 -66.3773
TCL: Running FEP window  19: Lambda1 0.9000000000000002 Lambda2 0.9500000000000003 [dLambda 0.050000000000000044]
TCL: Setting parameter firsttimestep to 0
TCL: Setting parameter alchLambda to 0.9000000000000002
Info: NONBONDED TABLE R-SQUARED SPACING: 0.0625
Info: NONBONDED TABLE SIZE: 705 POINTS
TCL: Setting parameter alchLambda2 to 0.9500000000000003
Info: NONBONDED TABLE R-SQUARED SPACING: 0.0625
Info: NONBONDED TABLE SIZE: 705 POINTS
TCL: Running for 1500000 steps
ETITLE: TS BOND ANGLE DIHED IMPRP ELECT VDW BOUNDARY MISC KINETIC TOTAL TEMP POTENTIAL TOTALAVG TEMPAVG PRESSURE GPRESSURE VOLUME PRESSAVG GPRESSAVG
ENERGY: 0 0.4675 2.8718 0.1029 0.0000 -10910.6482 1470.1014 0.0000 0.0000 1757.6982 -7679.4063 298.3184 -9437.1045 -7679.4063 298.3184 -141.1871 -73.1712 30225.1537 -141.1871 -73.1712
ENERGY: 300000 0.1208 1.8870 0.8620 0.0000 -10699.4516 1401.8048 0.0000 0.0000 1759.4098 -7535.3672 298.6089 -9294.7769 -7578.1654 301.1855 -341.5565 -256.1093 30641.7361 80.6506 153.2218
ENERGY: 600000 0.5451 1.5828 0.0263 0.0000 -10733.3188 1414.9947 0.0000 0.0000 1828.2563 -7487.9137 310.2936 -9316.1700 -7557.5810 302.9882 -108.7041 -126.5019 30249.7067 218.8471 285.7596
ENERGY: 900000 0.0477 3.6320 0.0307 0.0000 -10738.4220 1488.1682 0.0000 0.0000 1826.8386 -7419.7048 310.0530 -9246.5434 -7534.1220 303.3293 398.0305 440.8394 30744.7874 231.5797 303.1266
ENERGY: 1200000 0.0000 2.1340 0.9458 0.0000 -10704.2063 1460.4249 0.0000 0.0000 1788.9151 -7451.7866 303.6165 -9240.7017 -7525.5849 303.4364 -70.4023 -7.8118 31009.0708 221.2061 290.5218
ENERGY: 1500000 0.1655 1.0073 0.1628 0.0000 -10830.4767 1430.8147 0.0000 0.0000 1744.7868 -7653.5394 296.1270 -9398.3263 -7539.2390 302.1641 -148.8614 -44.5055 29764.8255 132.2502 207.5817
TCL: Running FEP window  20: Lambda1 0.9500000000000003 Lambda2 1.0    [dLambda 0.04999999999999971]
TCL: Setting parameter firsttimestep to 0
TCL: Setting parameter alchLambda to 0.9500000000000003
Info: NONBONDED TABLE R-SQUARED SPACING: 0.0625
Info: NONBONDED TABLE SIZE: 705 POINTS
TCL: Setting parameter alchLambda2 to 1.0
Info: NONBONDED TABLE R-SQUARED SPACING: 0.0625
Info: NONBONDED TABLE SIZE: 705 POINTS
TCL: Running for 1500000 steps
ETITLE: TS BOND ANGLE DIHED IMPRP ELECT VDW BOUNDARY MISC KINETIC TOTAL TEMP POTENTIAL TOTALAVG TEMPAVG PRESSURE GPRESSURE VOLUME PRESSAVG GPRESSAVG
ENERGY: 0 0.1655 1.0073 0.1628 0.0000 -10832.6966 1433.1490 0.0000 0.0000 1743.9334 -7654.2786 295.9822 -9398.2119 -7654.2786 295.9822 -118.1223 -20.2312 29764.8255 -118.1223 -20.2312
ENERGY: 300000 0.0416 2.5880 0.1610 0.0000 -10817.8407 1456.8464 0.0000 0.0000 1770.2034 -7588.0003 300.4408 -9358.2037 -7565.6791 299.7070 20.1613 46.3547 30297.9666 -133.4897 -55.5488
ENERGY: 600000 0.8089 1.8196 0.0689 0.0000 -10712.7854 1426.1816 0.0000 0.0000 1768.1729 -7515.7335 300.0961 -9283.9064 -7557.6186 300.4281 -67.7739 -54.3745 30814.6999 15.9021 92.1467
ENERGY: 900000 0.4426 1.9833 0.4544 0.0000 -10755.0071 1462.3692 0.0000 0.0000 1733.6379 -7556.1197 294.2348 -9289.7576 -7552.2423 300.1511 282.2177 337.8872 30362.3501 11.1702 84.9047
ENERGY: 1200000 0.0153 2.4730 0.9764 0.0000 -10890.1076 1492.6113 0.0000 0.0000 1785.9172 -7608.1144 303.1077 -9394.0316 -7551.8682 300.5723 308.3028 301.5123 30279.7733 149.7614 211.6170
ENERGY: 1500000 0.0014 1.4399 0.3480 0.0000 -10789.6814 1426.7433 0.0000 0.0000 1746.5131 -7614.6356 296.4200 -9361.1488 -7559.4876 299.9325 -260.9913 -180.4588 30567.6963 72.2732 139.1274
TCL: Exiting due to exit command.
