Info: SIMULATION PARAMETERS:
Info: TIMESTEP               2
Info: NUMBER OF STEPS        0
Info: STEPS PER CYCLE        10
Info: PERIODIC CELL BASIS 1  36.005 0 0
Info: PERIODIC CELL BASIS 2  0 35.847 0
Info: PERIODIC CELL BASIS 3  0 0 34.68
Info: PERIODIC CELL CENTER   0 0 0
Info: WRAPPING WATERS AROUND PERIODIC BOUNDARIES ON OUTPUT.
Info: WRAPPING ALL CLUSTERS AROUND PERIODIC BOUNDARIES ON OUTPUT.
Info: FIRST LDB TIMESTEP     50
Info: LAST LDB TIMESTEP     -1
Info: HOM BACKGROUND SCALING 1
Info: PME BACKGROUND SCALING 1
Info: MIN ATOMS PER PATCH    40
Info: EMPTY PATCH LOAD       40 ATOMS
Info: INITIAL TEMPERATURE    300
Info: CENTER OF MASS MOVING INITIALLY? NO
Info: DIELECTRIC             1
Info: EXCLUDE                SCALED ONE-FOUR
Info: 1-4 ELECTROSTATICS SCALED BY 0.833333
Info: MODIFIED 1-4 VDW PARAMETERS WILL BE USED
Info: DCD FILENAME           mobley_2493732_equil.dcd
Info: DCD FREQUENCY          100000
Info: DCD FIRST STEP         100000
Info: DCD FILE WILL CONTAIN UNIT CELL DATA
Info: XST FILENAME           mobley_2493732_equil.xst
Info: XST FREQUENCY          100000
Info: NO VELOCITY DCD OUTPUT
Info: NO FORCE DCD OUTPUT
Info: OUTPUT FILENAME        mobley_2493732_equil
Info: BINARY OUTPUT FILES WILL BE USED
Info: RESTART FILENAME       mobley_2493732_equil.restart
Info: RESTART FREQUENCY      100000
Info: BINARY RESTART FILES WILL BE USED
Info: CUTOFF                 9
Info: PAIRLIST DISTANCE      11
Info: PAIRLIST SHRINK RATE   0.01
Info: PAIRLIST GROW RATE     0.01
Info: PAIRLIST TRIGGER       0.3
Info: PAIRLISTS PER CYCLE    2
Info: PAIRLISTS ENABLED
Info: MARGIN                 8
Info: HYDROGEN GROUP CUTOFF  2.5
Info: PATCH DIMENSION        21.5
Info: ENERGY OUTPUT STEPS    100000
Info: ENERGY EVALUATION STEPS    100000
Info: OUTPUT ENERGY PRECISION 4
Info: CROSSTERM ENERGY INCLUDED IN DIHEDRAL
Info: TIMING OUTPUT STEPS    1000000
Info: PRESSURE OUTPUT STEPS  100000
Info: LANGEVIN DYNAMICS ACTIVE
Info: LANGEVIN TEMPERATURE   30
Info: LANGEVIN USING BBK INTEGRATOR
Info: LANGEVIN DAMPING COEFFICIENT IS 1 INVERSE PS
Info: LANGEVIN DYNAMICS APPLIED TO HYDROGENS
Info: LANGEVIN PISTON PRESSURE CONTROL ACTIVE
Info:        TARGET PRESSURE IS 1.01325 BAR
Info:     OSCILLATION PERIOD IS 50 FS
Info:             DECAY TIME IS 25 FS
Info:     PISTON TEMPERATURE IS 300 K
Info:       PRESSURE CONTROL IS GROUP-BASED
Info:    INITIAL STRAIN RATE IS 0 0 0
Info:       CELL FLUCTUATION IS ISOTROPIC
Info: PARTICLE MESH EWALD (PME) ACTIVE
Info: PME TOLERANCE               1e-06
Info: PME EWALD COEFFICIENT       0.348832
Info: PME INTERPOLATION ORDER     4
Info: PME GRID DIMENSIONS         40 36 36
Info: PME MAXIMUM GRID SPACING    1
Info: FULL ELECTROSTATIC EVALUATION FREQUENCY      2
Info: USING VERLET I (r-RESPA) MTS SCHEME.
Info: C1 SPLITTING OF LONG RANGE ELECTROSTATICS
Info: PLACING ATOMS IN PATCHES BY HYDROGEN GROUPS
Info: RIGID BONDS TO HYDROGEN : ALL
Info:         ERROR TOLERANCE : 1e-08
Info:          MAX ITERATIONS : 100
Info: RIGID WATER USING SETTLE ALGORITHM
Info: RANDOM NUMBER SEED     1743155205
Info: USE HYDROGEN BONDS?    NO
Info: Using AMBER format force field!
Info: AMBER PARM FILE        mobley_2493732.prmtop
Info: COORDINATE PDB         mobley_2493732.pdb
Info: Exclusions will be read from PARM file!
Info: SCNB (VDW SCALING)     2
Info: USING ARITHMETIC MEAN TO COMBINE L-J SIGMA PARAMETERS
Info: BINARY COORDINATES     mobley_2493732_min.coor
Info: SUMMARY OF PARAMETERS:
Info: 5 BONDS
Info: 4 ANGLES
Info:   4 HARMONIC
Info:   0 COSINE-BASED
Info: 2 DIHEDRAL
Info: 0 IMPROPER
Info: 0 CROSSTERM
Info: 0 VDW
Info: 15 VDW_PAIRS
Info: 0 NBTHOLE_PAIRS
Info: STRUCTURE SUMMARY:
Info: 2940 ATOMS
Info: 2939 BONDS
Info: 6 ANGLES
Info: 6 DIHEDRALS
Info: 0 IMPROPERS
Info: 0 CROSSTERMS
Info: 2949 EXCLUSIONS
Info: 2936 RIGID BONDS
Info: 5884 DEGREES OF FREEDOM
Info: 982 HYDROGEN GROUPS
Info: 3 ATOMS IN LARGEST HYDROGEN GROUP
Info: 982 MIGRATION GROUPS
Info: 3 ATOMS IN LARGEST MIGRATION GROUP
Info: TOTAL MASS = 17716.6 amu
Info: TOTAL CHARGE = 0.000100017 e
Info: MASS DENSITY = 0.657271 g/cm^3
Info: ATOM DENSITY = 0.0656829 atoms/A^3
Info: ADDED 0 IMPLICIT EXCLUSIONS
Info: NONBONDED TABLE R-SQUARED SPACING: 0.0625
Info: NONBONDED TABLE SIZE: 705 POINTS
Info: REMOVING COM VELOCITY -0.179822 -0.193329 0.00826767
TCL: Running for 100000 steps
ETITLE: TS BOND ANGLE DIHED IMPRP ELECT VDW BOUNDARY MISC KINETIC TOTAL TEMP POTENTIAL TOTAL3 TEMPAVG PRESSURE GPRESSURE VOLUME PRESSAVG GPRESSAVG
ENERGY: 0 0.0005 0.0299 0.0007 0.0000 -13647.2440 2426.7672 0.0000 0.0000 1743.6078 -9476.8380 298.2404 -11220.4457 -9476.4827 298.2404 544.7453 578.9081 44760.4784 544.7453 578.9081
ENERGY: 100000 0.1897 0.2183 0.0880 0.0000 -14317.6875 2567.0705 0.0000 0.0000 172.9456 -11577.1753 29.5820 -11750.1210 -11576.6647 30.9937 735.2196 770.7183 28485.2670 3.7081 3.6999
TCL: Running 100000 steps at 60 kelvin.
TCL: Setting parameter langevinTemp to 60
TCL: Running for 100000 steps
ETITLE: TS BOND ANGLE DIHED IMPRP ELECT VDW BOUNDARY MISC KINETIC TOTAL TEMP POTENTIAL TOTAL3 TEMPAVG PRESSURE GPRESSURE VOLUME PRESSAVG GPRESSAVG
ENERGY: 100000 0.1897 0.2183 0.0880 0.0000 -14317.6875 2567.0705 0.0000 0.0000 172.8576 -11577.2634 29.5669 -11750.1210 -11576.9103 29.5669 712.9675 770.8355 28485.2670 712.9675 770.8355
ENERGY: 200000 0.1143 0.6827 0.1254 0.0000 -13930.8426 2272.8020 0.0000 0.0000 342.9374 -11314.1809 58.6587 -11657.1183 -11312.7187 59.9433 -1595.1482 -1546.5449 29046.1947 4.4783 4.3205
TCL: Running 100000 steps at 90 kelvin.
TCL: Setting parameter langevinTemp to 90
TCL: Running for 100000 steps
ETITLE: TS BOND ANGLE DIHED IMPRP ELECT VDW BOUNDARY MISC KINETIC TOTAL TEMP POTENTIAL TOTAL3 TEMPAVG PRESSURE GPRESSURE VOLUME PRESSAVG GPRESSAVG
ENERGY: 200000 0.1143 0.6827 0.1254 0.0000 -13930.8426 2272.8020 0.0000 0.0000 342.7606 -11314.3576 58.6285 -11657.1183 -11313.5500 58.6285 -1596.6108 -1545.9619 29046.1947 -1596.6108 -1545.9619
ENERGY: 300000 0.1211 0.1672 0.0511 0.0000 -14008.7262 2443.3997 0.0000 0.0000 521.6845 -11043.3025 89.2330 -11564.9870 -11042.6295 89.7733 620.1719 652.6233 28392.7346 5.0632 4.9375
TCL: Running 100000 steps at 120 kelvin.
TCL: Setting parameter langevinTemp to 120
TCL: Running for 100000 steps
ETITLE: TS BOND ANGLE DIHED IMPRP ELECT VDW BOUNDARY MISC KINETIC TOTAL TEMP POTENTIAL TOTAL3 TEMPAVG PRESSURE GPRESSURE VOLUME PRESSAVG GPRESSAVG
ENERGY: 300000 0.1211 0.1672 0.0511 0.0000 -14008.7262 2443.3997 0.0000 0.0000 521.4276 -11043.5594 89.1891 -11564.9870 -11042.5943 89.1891 617.1790 651.9988 28392.7346 617.1790 651.9988
ENERGY: 400000 0.1716 1.2391 0.0603 0.0000 -13832.5290 2364.1221 0.0000 0.0000 701.3114 -10765.6246 119.9578 -11466.9360 -10763.5644 120.2394 250.2925 364.0019 28512.3220 4.4628 4.4547
TCL: Running 100000 steps at 150 kelvin.
TCL: Setting parameter langevinTemp to 150
TCL: Running for 100000 steps
ETITLE: TS BOND ANGLE DIHED IMPRP ELECT VDW BOUNDARY MISC KINETIC TOTAL TEMP POTENTIAL TOTAL3 TEMPAVG PRESSURE GPRESSURE VOLUME PRESSAVG GPRESSAVG
ENERGY: 400000 0.1716 1.2391 0.0603 0.0000 -13832.5290 2364.1221 0.0000 0.0000 700.9649 -10765.9711 119.8986 -11466.9360 -10764.5221 119.8986 289.0799 364.1333 28512.3220 289.0799 364.1333
ENERGY: 500000 0.4309 1.3808 0.3900 0.0000 -13584.8489 2302.8518 0.0000 0.0000 899.4819 -10380.3134 153.8545 -11279.7953 -10377.8476 150.3286 171.3913 233.3671 28978.1754 3.6713 3.6300
TCL: Running 100000 steps at 180 kelvin.
TCL: Setting parameter langevinTemp to 180
TCL: Running for 100000 steps
ETITLE: TS BOND ANGLE DIHED IMPRP ELECT VDW BOUNDARY MISC KINETIC TOTAL TEMP POTENTIAL TOTAL3 TEMPAVG PRESSURE GPRESSURE VOLUME PRESSAVG GPRESSAVG
ENERGY: 500000 0.4309 1.3808 0.3900 0.0000 -13584.8489 2302.8518 0.0000 0.0000 899.0585 -10380.7368 153.7821 -11279.7953 -10378.7819 153.7821 179.9440 233.7909 28978.1754 179.9440 233.7909
ENERGY: 600000 0.1488 0.4778 0.1459 0.0000 -13136.0535 2142.4187 0.0000 0.0000 1046.5570 -9946.3053 179.0114 -10992.8623 -9944.9787 179.5516 130.7699 179.7765 28905.6064 4.6157 4.5840
TCL: Running 100000 steps at 210 kelvin.
TCL: Setting parameter langevinTemp to 210
TCL: Running for 100000 steps
ETITLE: TS BOND ANGLE DIHED IMPRP ELECT VDW BOUNDARY MISC KINETIC TOTAL TEMP POTENTIAL TOTAL3 TEMPAVG PRESSURE GPRESSURE VOLUME PRESSAVG GPRESSAVG
ENERGY: 600000 0.1488 0.4778 0.1459 0.0000 -13136.0535 2142.4187 0.0000 0.0000 1046.0467 -9946.8157 178.9241 -10992.8623 -9944.8447 178.9241 125.2738 179.5693 28905.6064 125.2738 179.5693
ENERGY: 700000 0.7005 0.7792 0.4258 0.0000 -12438.6122 1938.7647 0.0000 0.0000 1244.7034 -9253.2386 212.9039 -10497.9419 -9253.9938 209.8927 532.9978 658.4244 28365.5231 3.1253 3.0589
TCL: Running 100000 steps at 240 kelvin.
TCL: Setting parameter langevinTemp to 240
TCL: Running for 100000 steps
ETITLE: TS BOND ANGLE DIHED IMPRP ELECT VDW BOUNDARY MISC KINETIC TOTAL TEMP POTENTIAL TOTAL3 TEMPAVG PRESSURE GPRESSURE VOLUME PRESSAVG GPRESSAVG
ENERGY: 700000 0.7005 0.7792 0.4258 0.0000 -12438.6122 1938.7647 0.0000 0.0000 1244.0910 -9253.8510 212.7991 -10497.9419 -9251.3438 212.7991 581.8460 654.6991 28365.5231 581.8460 654.6991
ENERGY: 800000 0.4870 0.5446 0.1593 0.0000 -11827.0110 1713.9966 0.0000 0.0000 1394.7537 -8717.0698 238.5697 -10111.8235 -8715.2957 240.1266 -120.0217 -21.1624 28976.3353 2.8649 2.8536
TCL: Running 100000 steps at 270 kelvin.
TCL: Setting parameter langevinTemp to 270
TCL: Running for 100000 steps
ETITLE: TS BOND ANGLE DIHED IMPRP ELECT VDW BOUNDARY MISC KINETIC TOTAL TEMP POTENTIAL TOTAL3 TEMPAVG PRESSURE GPRESSURE VOLUME PRESSAVG GPRESSAVG
ENERGY: 800000 0.4870 0.5446 0.1593 0.0000 -11827.0110 1713.9966 0.0000 0.0000 1394.0522 -8717.7713 238.4497 -10111.8235 -8715.6502 238.4497 -93.5290 -22.2485 28976.3353 -93.5290 -22.2485
ENERGY: 900000 0.3383 1.0064 3.0531 0.0000 -11205.9210 1590.7076 0.0000 0.0000 1590.1493 -8020.6663 271.9917 -9610.8156 -8018.2703 269.8234 228.9239 291.5800 29782.1131 3.6257 3.6188
TCL: Running 1000000 steps at 300 kelvin.
TCL: Setting parameter langevinTemp to 300
TCL: Running for 1000000 steps
ETITLE: TS BOND ANGLE DIHED IMPRP ELECT VDW BOUNDARY MISC KINETIC TOTAL TEMP POTENTIAL TOTAL3 TEMPAVG PRESSURE GPRESSURE VOLUME PRESSAVG GPRESSAVG
ENERGY: 900000 0.3383 1.0064 3.0531 0.0000 -11205.9210 1590.7076 0.0000 0.0000 1589.3636 -8021.4520 271.8573 -9610.8156 -8019.3120 271.8573 192.2832 289.7012 29782.1131 192.2832 289.7012
ENERGY: 1100000 0.9777 1.5767 1.6534 0.0000 -10551.4931 1360.5850 0.0000 0.0000 1809.7630 -7376.9372 309.5561 -9186.7003 -7374.1391 300.5978 -282.1322 -239.4528 30166.0752 3.6231 3.6134
ENERGY: 1300000 1.3976 1.0618 0.7589 0.0000 -10559.3795 1344.4350 0.0000 0.0000 1734.8386 -7476.8877 296.7405 -9211.7262 -7471.0933 299.3167 -839.8906 -788.8591 30691.2383 4.0133 4.1093
ENERGY: 1500000 0.3267 0.3743 0.9293 0.0000 -10775.3621 1454.8833 0.0000 0.0000 1695.2251 -7623.6236 289.9647 -9318.8487 -7621.0357 299.7665 -114.6259 -44.5203 30348.2246 2.1566 1.9518
ENERGY: 1700000 0.9163 0.1854 1.3531 0.0000 -10630.4877 1390.5638 0.0000 0.0000 1745.3046 -7492.1644 298.5307 -9237.4690 -7489.6234 299.9084 -136.7731 -14.3036 29902.4561 2.6622 2.7799
ENERGY: 1900000 1.4279 0.3894 0.3999 0.0000 -10594.2858 1390.5512 0.0000 0.0000 1728.4728 -7473.0446 295.6516 -9201.5174 -7470.4942 300.2522 -373.4817 -303.7595 30583.1047 3.8901 3.9615
TCL: Exiting due to exit command.
