Info: SIMULATION PARAMETERS:
Info: TIMESTEP               2
Info: NUMBER OF STEPS        0
Info: STEPS PER CYCLE        10
Info: PERIODIC CELL BASIS 1  34.207 0 0
Info: PERIODIC CELL BASIS 2  0 35.779 0
Info: PERIODIC CELL BASIS 3  0 0 35.723
Info: PERIODIC CELL CENTER   0 0 0
Info: WRAPPING WATERS AROUND PERIODIC BOUNDARIES ON OUTPUT.
Info: WRAPPING ALL CLUSTERS AROUND PERIODIC BOUNDARIES ON OUTPUT.
Info: FIRST LDB TIMESTEP     50
Info: LAST LDB TIMESTEP     -1
Info: HOM BACKGROUND SCALING 1
Info: PME BACKGROUND SCALING 1
Info: MIN ATOMS PER PATCH    40
Info: EMPTY PATCH LOAD       40 ATOMS
Info: INITIAL TEMPERATURE    300
Info: CENTER OF MASS MOVING INITIALLY? NO
Info: DIELECTRIC             1
Info: EXCLUDE                SCALED ONE-FOUR
Info: 1-4 ELECTROSTATICS SCALED BY 0.833333
Info: MODIFIED 1-4 VDW PARAMETERS WILL BE USED
Info: DCD FILENAME           mobley_9705941_equil.dcd
Info: DCD FREQUENCY          100000
Info: DCD FIRST STEP         100000
Info: DCD FILE WILL CONTAIN UNIT CELL DATA
Info: XST FILENAME           mobley_9705941_equil.xst
Info: XST FREQUENCY          100000
Info: NO VELOCITY DCD OUTPUT
Info: NO FORCE DCD OUTPUT
Info: OUTPUT FILENAME        mobley_9705941_equil
Info: BINARY OUTPUT FILES WILL BE USED
Info: RESTART FILENAME       mobley_9705941_equil.restart
Info: RESTART FREQUENCY      100000
Info: BINARY RESTART FILES WILL BE USED
Info: CUTOFF                 9
Info: PAIRLIST DISTANCE      11
Info: PAIRLIST SHRINK RATE   0.01
Info: PAIRLIST GROW RATE     0.01
Info: PAIRLIST TRIGGER       0.3
Info: PAIRLISTS PER CYCLE    2
Info: PAIRLISTS ENABLED
Info: MARGIN                 8
Info: HYDROGEN GROUP CUTOFF  2.5
Info: PATCH DIMENSION        21.5
Info: ENERGY OUTPUT STEPS    100000
Info: ENERGY EVALUATION STEPS    100000
Info: OUTPUT ENERGY PRECISION 4
Info: CROSSTERM ENERGY INCLUDED IN DIHEDRAL
Info: TIMING OUTPUT STEPS    1000000
Info: PRESSURE OUTPUT STEPS  100000
Info: LANGEVIN DYNAMICS ACTIVE
Info: LANGEVIN TEMPERATURE   30
Info: LANGEVIN USING BBK INTEGRATOR
Info: LANGEVIN DAMPING COEFFICIENT IS 1 INVERSE PS
Info: LANGEVIN DYNAMICS APPLIED TO HYDROGENS
Info: LANGEVIN PISTON PRESSURE CONTROL ACTIVE
Info:        TARGET PRESSURE IS 1.01325 BAR
Info:     OSCILLATION PERIOD IS 50 FS
Info:             DECAY TIME IS 25 FS
Info:     PISTON TEMPERATURE IS 300 K
Info:       PRESSURE CONTROL IS GROUP-BASED
Info:    INITIAL STRAIN RATE IS 0 0 0
Info:       CELL FLUCTUATION IS ISOTROPIC
Info: PARTICLE MESH EWALD (PME) ACTIVE
Info: PME TOLERANCE               1e-06
Info: PME EWALD COEFFICIENT       0.348832
Info: PME INTERPOLATION ORDER     4
Info: PME GRID DIMENSIONS         36 36 36
Info: PME MAXIMUM GRID SPACING    1
Info: FULL ELECTROSTATIC EVALUATION FREQUENCY      2
Info: USING VERLET I (r-RESPA) MTS SCHEME.
Info: C1 SPLITTING OF LONG RANGE ELECTROSTATICS
Info: PLACING ATOMS IN PATCHES BY HYDROGEN GROUPS
Info: RIGID BONDS TO HYDROGEN : ALL
Info:         ERROR TOLERANCE : 1e-08
Info:          MAX ITERATIONS : 100
Info: RIGID WATER USING SETTLE ALGORITHM
Info: RANDOM NUMBER SEED     1743164514
Info: USE HYDROGEN BONDS?    NO
Info: Using AMBER format force field!
Info: AMBER PARM FILE        mobley_9705941.prmtop
Info: COORDINATE PDB         mobley_9705941.pdb
Info: Exclusions will be read from PARM file!
Info: SCNB (VDW SCALING)     2
Info: USING ARITHMETIC MEAN TO COMBINE L-J SIGMA PARAMETERS
Info: BINARY COORDINATES     mobley_9705941_min.coor
Info: SUMMARY OF PARAMETERS:
Info: 9 BONDS
Info: 11 ANGLES
Info:   11 HARMONIC
Info:   0 COSINE-BASED
Info: 4 DIHEDRAL
Info: 0 IMPROPER
Info: 0 CROSSTERM
Info: 0 VDW
Info: 36 VDW_PAIRS
Info: 0 NBTHOLE_PAIRS
Info: STRUCTURE SUMMARY:
Info: 2937 ATOMS
Info: 2937 BONDS
Info: 19 ANGLES
Info: 26 DIHEDRALS
Info: 0 IMPROPERS
Info: 0 CROSSTERMS
Info: 2973 EXCLUSIONS
Info: 2931 RIGID BONDS
Info: 5880 DEGREES OF FREEDOM
Info: 981 HYDROGEN GROUPS
Info: 4 ATOMS IN LARGEST HYDROGEN GROUP
Info: 981 MIGRATION GROUPS
Info: 4 ATOMS IN LARGEST MIGRATION GROUP
Info: TOTAL MASS = 17663.8 amu
Info: TOTAL CHARGE = 3.72529e-09 e
Info: MASS DENSITY = 0.67089 g/cm^3
Info: ATOM DENSITY = 0.0671758 atoms/A^3
Info: ADDED 0 IMPLICIT EXCLUSIONS
Info: NONBONDED TABLE R-SQUARED SPACING: 0.0625
Info: NONBONDED TABLE SIZE: 705 POINTS
Info: REMOVING COM VELOCITY -0.0429308 -0.0706971 0.072701
TCL: Running for 100000 steps
ETITLE: TS BOND ANGLE DIHED IMPRP ELECT VDW BOUNDARY MISC KINETIC TOTAL TEMP POTENTIAL TOTAL3 TEMPAVG PRESSURE GPRESSURE VOLUME PRESSAVG GPRESSAVG
ENERGY: 0 0.0063 0.8180 0.0456 0.0000 -13594.7696 2404.0814 0.0000 0.0000 1738.1541 -9451.6641 297.5098 -11189.8182 -9451.3260 297.5098 564.3409 604.4206 43721.1030 564.3409 604.4206
ENERGY: 100000 0.2437 1.5668 0.0598 0.0000 -14164.5939 2442.8607 0.0000 0.0000 174.1732 -11545.6898 29.8122 -11719.8630 -11545.5225 30.9504 -15.3963 21.8387 28207.1086 4.0351 4.0483
TCL: Running 100000 steps at 60 kelvin.
TCL: Setting parameter langevinTemp to 60
TCL: Running for 100000 steps
ETITLE: TS BOND ANGLE DIHED IMPRP ELECT VDW BOUNDARY MISC KINETIC TOTAL TEMP POTENTIAL TOTAL3 TEMPAVG PRESSURE GPRESSURE VOLUME PRESSAVG GPRESSAVG
ENERGY: 100000 0.2437 1.5668 0.0598 0.0000 -14164.5939 2442.8607 0.0000 0.0000 174.0845 -11545.7784 29.7971 -11719.8630 -11545.4312 29.7971 -42.4584 21.6158 28207.1086 -42.4584 21.6158
ENERGY: 200000 0.8069 1.6174 0.1429 0.0000 -14294.6856 2608.0967 0.0000 0.0000 348.2679 -11335.7537 59.6110 -11684.0216 -11334.5414 60.0733 1646.1292 1714.3542 27768.8671 4.4303 4.5478
TCL: Running 100000 steps at 90 kelvin.
TCL: Setting parameter langevinTemp to 90
TCL: Running for 100000 steps
ETITLE: TS BOND ANGLE DIHED IMPRP ELECT VDW BOUNDARY MISC KINETIC TOTAL TEMP POTENTIAL TOTAL3 TEMPAVG PRESSURE GPRESSURE VOLUME PRESSAVG GPRESSAVG
ENERGY: 200000 0.8069 1.6174 0.1429 0.0000 -14294.6856 2608.0967 0.0000 0.0000 348.0908 -11335.9309 59.5807 -11684.0216 -11335.2749 59.5807 1656.9592 1714.8403 27768.8671 1656.9592 1714.8403
ENERGY: 300000 1.1166 1.4409 0.5678 0.0000 -13935.4537 2376.6627 0.0000 0.0000 517.7884 -11037.8772 88.6269 -11555.6656 -11036.7483 89.6899 84.4486 134.6077 28046.8668 5.6003 5.6436
TCL: Running 100000 steps at 120 kelvin.
TCL: Setting parameter langevinTemp to 120
TCL: Running for 100000 steps
ETITLE: TS BOND ANGLE DIHED IMPRP ELECT VDW BOUNDARY MISC KINETIC TOTAL TEMP POTENTIAL TOTAL3 TEMPAVG PRESSURE GPRESSURE VOLUME PRESSAVG GPRESSAVG
ENERGY: 300000 1.1166 1.4409 0.5678 0.0000 -13935.4537 2376.6627 0.0000 0.0000 517.5246 -11038.1410 88.5817 -11555.6656 -11037.1880 88.5817 85.2829 134.2728 28046.8668 85.2829 134.2728
ENERGY: 400000 1.5445 1.4318 1.4589 0.0000 -13731.0981 2313.7962 0.0000 0.0000 700.5589 -10712.3077 119.9106 -11412.8667 -10710.2738 120.0751 -101.4676 -128.8289 28646.6528 3.1467 3.0558
TCL: Running 100000 steps at 150 kelvin.
TCL: Setting parameter langevinTemp to 150
TCL: Running for 100000 steps
ETITLE: TS BOND ANGLE DIHED IMPRP ELECT VDW BOUNDARY MISC KINETIC TOTAL TEMP POTENTIAL TOTAL3 TEMPAVG PRESSURE GPRESSURE VOLUME PRESSAVG GPRESSAVG
ENERGY: 400000 1.5445 1.4318 1.4589 0.0000 -13731.0981 2313.7962 0.0000 0.0000 700.2033 -10712.6634 119.8498 -11412.8667 -10711.0515 119.8498 -178.5723 -128.3337 28646.6528 -178.5723 -128.3337
ENERGY: 500000 0.9678 2.8326 1.6538 0.0000 -13424.5258 2176.1218 0.0000 0.0000 868.7663 -10374.1834 148.7017 -11242.9497 -10372.0521 149.7970 -711.2490 -658.8302 28817.5056 4.6899 4.7214
TCL: Running 100000 steps at 180 kelvin.
TCL: Setting parameter langevinTemp to 180
TCL: Running for 100000 steps
ETITLE: TS BOND ANGLE DIHED IMPRP ELECT VDW BOUNDARY MISC KINETIC TOTAL TEMP POTENTIAL TOTAL3 TEMPAVG PRESSURE GPRESSURE VOLUME PRESSAVG GPRESSAVG
ENERGY: 500000 0.9678 2.8326 1.6538 0.0000 -13424.5258 2176.1218 0.0000 0.0000 868.3266 -10374.6232 148.6265 -11242.9497 -10373.1008 148.6265 -713.3668 -658.0312 28817.5056 -713.3668 -658.0312
ENERGY: 600000 2.0031 2.3833 0.4483 0.0000 -13099.9584 2149.6682 0.0000 0.0000 1054.8488 -9890.6067 180.5524 -10945.4555 -9890.3426 179.7746 430.4559 474.5921 28677.4165 6.0042 6.1513
TCL: Running 100000 steps at 210 kelvin.
TCL: Setting parameter langevinTemp to 210
TCL: Running for 100000 steps
ETITLE: TS BOND ANGLE DIHED IMPRP ELECT VDW BOUNDARY MISC KINETIC TOTAL TEMP POTENTIAL TOTAL3 TEMPAVG PRESSURE GPRESSURE VOLUME PRESSAVG GPRESSAVG
ENERGY: 600000 2.0031 2.3833 0.4483 0.0000 -13099.9584 2149.6682 0.0000 0.0000 1054.3215 -9891.1340 180.4621 -10945.4555 -9889.0039 180.4621 419.7018 471.6375 28677.4165 419.7018 471.6375
ENERGY: 700000 1.4143 4.3828 0.7286 0.0000 -12430.1108 1906.4629 0.0000 0.0000 1194.4394 -9322.6828 204.4453 -10517.1222 -9319.6740 209.2045 26.0385 105.5031 28584.0202 2.9140 2.8903
TCL: Running 100000 steps at 240 kelvin.
TCL: Setting parameter langevinTemp to 240
TCL: Running for 100000 steps
ETITLE: TS BOND ANGLE DIHED IMPRP ELECT VDW BOUNDARY MISC KINETIC TOTAL TEMP POTENTIAL TOTAL3 TEMPAVG PRESSURE GPRESSURE VOLUME PRESSAVG GPRESSAVG
ENERGY: 700000 1.4143 4.3828 0.7286 0.0000 -12430.1108 1906.4629 0.0000 0.0000 1193.8369 -9323.2853 204.3422 -10517.1222 -9321.1818 204.3422 21.8725 104.4185 28584.0202 21.8725 104.4185
ENERGY: 800000 2.3675 4.1024 0.6560 0.0000 -11756.9913 1738.2631 0.0000 0.0000 1383.2325 -8628.3699 236.7599 -10011.6024 -8625.5788 239.7205 341.2314 372.6854 28933.8367 1.4644 1.5235
TCL: Running 100000 steps at 270 kelvin.
TCL: Setting parameter langevinTemp to 270
TCL: Running for 100000 steps
ETITLE: TS BOND ANGLE DIHED IMPRP ELECT VDW BOUNDARY MISC KINETIC TOTAL TEMP POTENTIAL TOTAL3 TEMPAVG PRESSURE GPRESSURE VOLUME PRESSAVG GPRESSAVG
ENERGY: 800000 2.3675 4.1024 0.6560 0.0000 -11756.9913 1738.2631 0.0000 0.0000 1382.5443 -8629.0581 236.6422 -10011.6024 -8626.9759 236.6422 292.9111 374.0120 28933.8367 292.9111 374.0120
ENERGY: 900000 1.2436 4.5566 1.9906 0.0000 -11341.3204 1688.1815 0.0000 0.0000 1573.2273 -8072.1209 269.2803 -9645.3481 -8071.3579 271.0066 1029.6739 1134.7272 29227.1206 3.9485 3.9500
TCL: Running 1000000 steps at 300 kelvin.
TCL: Setting parameter langevinTemp to 300
TCL: Running for 1000000 steps
ETITLE: TS BOND ANGLE DIHED IMPRP ELECT VDW BOUNDARY MISC KINETIC TOTAL TEMP POTENTIAL TOTAL3 TEMPAVG PRESSURE GPRESSURE VOLUME PRESSAVG GPRESSAVG
ENERGY: 900000 1.2436 4.5566 1.9906 0.0000 -11341.3204 1688.1815 0.0000 0.0000 1572.4290 -8072.9191 269.1436 -9645.3481 -8070.7446 269.1436 1055.0199 1133.6427 29227.1206 1055.0199 1133.6427
ENERGY: 1100000 3.2671 4.5863 2.6822 0.0000 -10758.4457 1480.6406 0.0000 0.0000 1805.1401 -7462.1294 308.9755 -9267.2695 -7461.2937 300.5513 361.3364 451.5360 29897.9480 3.9538 3.8727
ENERGY: 1300000 2.7506 6.1904 2.6627 0.0000 -10543.9141 1393.9007 0.0000 0.0000 1770.0548 -7368.3549 302.9701 -9138.4097 -7364.3025 300.5696 53.5458 100.5604 30117.8612 2.9866 3.1051
ENERGY: 1500000 1.5328 3.7029 2.6821 0.0000 -10646.2072 1419.5563 0.0000 0.0000 1762.5154 -7456.2176 301.6796 -9218.7330 -7452.5319 300.1701 -243.4948 -109.6505 30292.8747 2.5062 2.7102
ENERGY: 1700000 1.0942 5.3995 2.2492 0.0000 -10653.5390 1404.3231 0.0000 0.0000 1766.4862 -7473.9868 302.3593 -9240.4730 -7469.1335 299.5570 -326.5108 -213.4289 30321.2225 2.9807 3.1716
ENERGY: 1900000 2.1131 4.9841 0.9018 0.0000 -10695.5897 1390.3734 0.0000 0.0000 1730.9306 -7566.2866 296.2734 -9297.2172 -7564.9495 299.9538 -602.2617 -538.3355 30216.4249 3.7169 3.4271
TCL: Exiting due to exit command.
