Info: SIMULATION PARAMETERS:
Info: TIMESTEP               2
Info: NUMBER OF STEPS        0
Info: STEPS PER CYCLE        10
Info: PERIODIC CELL BASIS 1  34.207 0 0
Info: PERIODIC CELL BASIS 2  0 33.399 0
Info: PERIODIC CELL BASIS 3  0 0 37.451
Info: PERIODIC CELL CENTER   0 0 0
Info: WRAPPING WATERS AROUND PERIODIC BOUNDARIES ON OUTPUT.
Info: WRAPPING ALL CLUSTERS AROUND PERIODIC BOUNDARIES ON OUTPUT.
Info: FIRST LDB TIMESTEP     50
Info: LAST LDB TIMESTEP     -1
Info: HOM BACKGROUND SCALING 1
Info: PME BACKGROUND SCALING 1
Info: MIN ATOMS PER PATCH    40
Info: EMPTY PATCH LOAD       40 ATOMS
Info: INITIAL TEMPERATURE    300
Info: CENTER OF MASS MOVING INITIALLY? NO
Info: DIELECTRIC             1
Info: EXCLUDE                SCALED ONE-FOUR
Info: 1-4 ELECTROSTATICS SCALED BY 0.833333
Info: MODIFIED 1-4 VDW PARAMETERS WILL BE USED
Info: DCD FILENAME           mobley_2859600_equil.dcd
Info: DCD FREQUENCY          100000
Info: DCD FIRST STEP         100000
Info: DCD FILE WILL CONTAIN UNIT CELL DATA
Info: XST FILENAME           mobley_2859600_equil.xst
Info: XST FREQUENCY          100000
Info: NO VELOCITY DCD OUTPUT
Info: NO FORCE DCD OUTPUT
Info: OUTPUT FILENAME        mobley_2859600_equil
Info: BINARY OUTPUT FILES WILL BE USED
Info: RESTART FILENAME       mobley_2859600_equil.restart
Info: RESTART FREQUENCY      100000
Info: BINARY RESTART FILES WILL BE USED
Info: CUTOFF                 9
Info: PAIRLIST DISTANCE      11
Info: PAIRLIST SHRINK RATE   0.01
Info: PAIRLIST GROW RATE     0.01
Info: PAIRLIST TRIGGER       0.3
Info: PAIRLISTS PER CYCLE    2
Info: PAIRLISTS ENABLED
Info: MARGIN                 8
Info: HYDROGEN GROUP CUTOFF  2.5
Info: PATCH DIMENSION        21.5
Info: ENERGY OUTPUT STEPS    100000
Info: ENERGY EVALUATION STEPS    100000
Info: OUTPUT ENERGY PRECISION 4
Info: CROSSTERM ENERGY INCLUDED IN DIHEDRAL
Info: TIMING OUTPUT STEPS    1000000
Info: PRESSURE OUTPUT STEPS  100000
Info: LANGEVIN DYNAMICS ACTIVE
Info: LANGEVIN TEMPERATURE   30
Info: LANGEVIN USING BBK INTEGRATOR
Info: LANGEVIN DAMPING COEFFICIENT IS 1 INVERSE PS
Info: LANGEVIN DYNAMICS APPLIED TO HYDROGENS
Info: LANGEVIN PISTON PRESSURE CONTROL ACTIVE
Info:        TARGET PRESSURE IS 1.01325 BAR
Info:     OSCILLATION PERIOD IS 50 FS
Info:             DECAY TIME IS 25 FS
Info:     PISTON TEMPERATURE IS 300 K
Info:       PRESSURE CONTROL IS GROUP-BASED
Info:    INITIAL STRAIN RATE IS 0 0 0
Info:       CELL FLUCTUATION IS ISOTROPIC
Info: PARTICLE MESH EWALD (PME) ACTIVE
Info: PME TOLERANCE               1e-06
Info: PME EWALD COEFFICIENT       0.348832
Info: PME INTERPOLATION ORDER     4
Info: PME GRID DIMENSIONS         36 36 40
Info: PME MAXIMUM GRID SPACING    1
Info: FULL ELECTROSTATIC EVALUATION FREQUENCY      2
Info: USING VERLET I (r-RESPA) MTS SCHEME.
Info: C1 SPLITTING OF LONG RANGE ELECTROSTATICS
Info: PLACING ATOMS IN PATCHES BY HYDROGEN GROUPS
Info: RIGID BONDS TO HYDROGEN : ALL
Info:         ERROR TOLERANCE : 1e-08
Info:          MAX ITERATIONS : 100
Info: RIGID WATER USING SETTLE ALGORITHM
Info: RANDOM NUMBER SEED     1743229559
Info: USE HYDROGEN BONDS?    NO
Info: Using AMBER format force field!
Info: AMBER PARM FILE        mobley_2859600.prmtop
Info: COORDINATE PDB         mobley_2859600.pdb
Info: Exclusions will be read from PARM file!
Info: SCNB (VDW SCALING)     2
Info: USING ARITHMETIC MEAN TO COMBINE L-J SIGMA PARAMETERS
Info: BINARY COORDINATES     mobley_2859600_min.coor
Info: SUMMARY OF PARAMETERS:
Info: 8 BONDS
Info: 8 ANGLES
Info:   8 HARMONIC
Info:   0 COSINE-BASED
Info: 4 DIHEDRAL
Info: 0 IMPROPER
Info: 0 CROSSTERM
Info: 0 VDW
Info: 10 VDW_PAIRS
Info: 0 NBTHOLE_PAIRS
Info: STRUCTURE SUMMARY:
Info: 2908 ATOMS
Info: 2908 BONDS
Info: 24 ANGLES
Info: 40 DIHEDRALS
Info: 0 IMPROPERS
Info: 0 CROSSTERMS
Info: 2961 EXCLUSIONS
Info: 2900 RIGID BONDS
Info: 5824 DEGREES OF FREEDOM
Info: 972 HYDROGEN GROUPS
Info: 3 ATOMS IN LARGEST HYDROGEN GROUP
Info: 972 MIGRATION GROUPS
Info: 3 ATOMS IN LARGEST MIGRATION GROUP
Info: TOTAL MASS = 17471.6 amu
Info: TOTAL CHARGE = 9.9998e-05 e
Info: MASS DENSITY = 0.678077 g/cm^3
Info: ATOM DENSITY = 0.0679646 atoms/A^3
Info: ADDED 0 IMPLICIT EXCLUSIONS
Info: NONBONDED TABLE R-SQUARED SPACING: 0.0625
Info: NONBONDED TABLE SIZE: 705 POINTS
Info: REMOVING COM VELOCITY 0.152019 0.0241085 0.275004
TCL: Running for 100000 steps
ETITLE: TS BOND ANGLE DIHED IMPRP ELECT VDW BOUNDARY MISC KINETIC TOTAL TEMP POTENTIAL TOTAL3 TEMPAVG PRESSURE GPRESSURE VOLUME PRESSAVG GPRESSAVG
ENERGY: 0 0.1871 0.6881 0.1032 0.0000 -13452.4929 2347.4149 0.0000 0.0000 1686.6952 -9417.4043 291.4779 -11104.0996 -9417.0749 291.4779 242.4773 280.1537 42787.0032 242.4773 280.1537
ENERGY: 100000 0.3022 0.8307 0.8361 0.0000 -13969.0005 2398.4583 0.0000 0.0000 175.1800 -11393.3932 30.2729 -11568.5732 -11392.8631 30.9076 -304.1677 -240.7997 28067.0837 5.1520 5.2264
TCL: Running 100000 steps at 60 kelvin.
TCL: Setting parameter langevinTemp to 60
TCL: Running for 100000 steps
ETITLE: TS BOND ANGLE DIHED IMPRP ELECT VDW BOUNDARY MISC KINETIC TOTAL TEMP POTENTIAL TOTAL3 TEMPAVG PRESSURE GPRESSURE VOLUME PRESSAVG GPRESSAVG
ENERGY: 100000 0.3022 0.8307 0.8361 0.0000 -13969.0005 2398.4583 0.0000 0.0000 175.0940 -11393.4792 30.2580 -11568.5732 -11393.0694 30.2580 -303.8475 -240.7865 28067.0837 -303.8475 -240.7865
ENERGY: 200000 0.8510 1.4143 1.0583 0.0000 -13813.6501 2307.5325 0.0000 0.0000 350.7002 -11152.0938 60.6045 -11502.7940 -11151.3983 59.9543 -760.7312 -722.1793 28161.1903 4.5152 4.5205
TCL: Running 100000 steps at 90 kelvin.
TCL: Setting parameter langevinTemp to 90
TCL: Running for 100000 steps
ETITLE: TS BOND ANGLE DIHED IMPRP ELECT VDW BOUNDARY MISC KINETIC TOTAL TEMP POTENTIAL TOTAL3 TEMPAVG PRESSURE GPRESSURE VOLUME PRESSAVG GPRESSAVG
ENERGY: 200000 0.8510 1.4143 1.0583 0.0000 -13813.6501 2307.5325 0.0000 0.0000 350.5258 -11152.2682 60.5744 -11502.7940 -11151.4250 60.5744 -762.0625 -722.4117 28161.1903 -762.0625 -722.4117
ENERGY: 300000 1.0399 1.2384 2.4673 0.0000 -13582.2362 2154.2451 0.0000 0.0000 499.0169 -10924.2286 86.2351 -11423.2456 -10923.5738 89.9518 -1937.6546 -1899.9639 28412.2014 4.8442 4.7791
TCL: Running 100000 steps at 120 kelvin.
TCL: Setting parameter langevinTemp to 120
TCL: Running for 100000 steps
ETITLE: TS BOND ANGLE DIHED IMPRP ELECT VDW BOUNDARY MISC KINETIC TOTAL TEMP POTENTIAL TOTAL3 TEMPAVG PRESSURE GPRESSURE VOLUME PRESSAVG GPRESSAVG
ENERGY: 300000 1.0399 1.2384 2.4673 0.0000 -13582.2362 2154.2451 0.0000 0.0000 498.7510 -10924.4946 86.1892 -11423.2456 -10923.4437 86.1892 -1934.8735 -1900.3880 28412.2014 -1934.8735 -1900.3880
ENERGY: 400000 1.5544 2.0079 3.8145 0.0000 -13690.9602 2412.4149 0.0000 0.0000 688.2717 -10582.8968 118.9403 -11271.1685 -10582.2454 120.3001 1046.2700 1079.1293 27958.5460 4.3849 4.3320
TCL: Running 100000 steps at 150 kelvin.
TCL: Setting parameter langevinTemp to 150
TCL: Running for 100000 steps
ETITLE: TS BOND ANGLE DIHED IMPRP ELECT VDW BOUNDARY MISC KINETIC TOTAL TEMP POTENTIAL TOTAL3 TEMPAVG PRESSURE GPRESSURE VOLUME PRESSAVG GPRESSAVG
ENERGY: 400000 1.5544 2.0079 3.8145 0.0000 -13690.9602 2412.4149 0.0000 0.0000 687.9223 -10583.2462 118.8799 -11271.1685 -10581.9605 118.8799 1021.3764 1078.7644 27958.5460 1021.3764 1078.7644
ENERGY: 500000 2.6550 1.6776 2.6481 0.0000 -13320.4784 2204.9192 0.0000 0.0000 884.8654 -10223.7131 152.9136 -11108.5785 -10220.7668 149.9701 -49.6556 20.8922 28052.9297 4.8387 4.8256
TCL: Running 100000 steps at 180 kelvin.
TCL: Setting parameter langevinTemp to 180
TCL: Running for 100000 steps
ETITLE: TS BOND ANGLE DIHED IMPRP ELECT VDW BOUNDARY MISC KINETIC TOTAL TEMP POTENTIAL TOTAL3 TEMPAVG PRESSURE GPRESSURE VOLUME PRESSAVG GPRESSAVG
ENERGY: 500000 2.6550 1.6776 2.6481 0.0000 -13320.4784 2204.9192 0.0000 0.0000 884.4252 -10224.1533 152.8376 -11108.5785 -10221.9849 152.8376 -58.8967 19.8022 28052.9297 -58.8967 19.8022
ENERGY: 600000 0.7832 1.5503 3.1728 0.0000 -13050.0312 2205.5702 0.0000 0.0000 1013.4453 -9825.5094 175.1335 -10838.9547 -9822.6356 179.6713 756.8871 814.9078 28490.0222 3.0913 2.9707
TCL: Running 100000 steps at 210 kelvin.
TCL: Setting parameter langevinTemp to 210
TCL: Running for 100000 steps
ETITLE: TS BOND ANGLE DIHED IMPRP ELECT VDW BOUNDARY MISC KINETIC TOTAL TEMP POTENTIAL TOTAL3 TEMPAVG PRESSURE GPRESSURE VOLUME PRESSAVG GPRESSAVG
ENERGY: 600000 0.7832 1.5503 3.1728 0.0000 -13050.0312 2205.5702 0.0000 0.0000 1012.9201 -9826.0346 175.0428 -10838.9547 -9823.6961 175.0428 749.1598 816.2243 28490.0222 749.1598 816.2243
ENERGY: 700000 0.6907 1.4839 3.0659 0.0000 -12360.3690 2029.0318 0.0000 0.0000 1169.2464 -9156.8502 202.0575 -10326.0966 -9155.7659 210.1569 1795.4678 1879.8329 27773.9861 3.7408 3.7082
TCL: Running 100000 steps at 240 kelvin.
TCL: Setting parameter langevinTemp to 240
TCL: Running for 100000 steps
ETITLE: TS BOND ANGLE DIHED IMPRP ELECT VDW BOUNDARY MISC KINETIC TOTAL TEMP POTENTIAL TOTAL3 TEMPAVG PRESSURE GPRESSURE VOLUME PRESSAVG GPRESSAVG
ENERGY: 700000 0.6907 1.4839 3.0659 0.0000 -12360.3690 2029.0318 0.0000 0.0000 1168.6578 -9157.4388 201.9558 -10326.0966 -9156.1210 201.9558 1807.3071 1878.6421 27773.9861 1807.3071 1878.6421
ENERGY: 800000 2.0570 3.5095 4.3737 0.0000 -11503.1990 1573.4949 0.0000 0.0000 1412.1256 -8507.6383 244.0295 -9919.7639 -8504.3299 239.7761 -1216.2924 -1146.0774 29057.2624 2.7486 2.9490
TCL: Running 100000 steps at 270 kelvin.
TCL: Setting parameter langevinTemp to 270
TCL: Running for 100000 steps
ETITLE: TS BOND ANGLE DIHED IMPRP ELECT VDW BOUNDARY MISC KINETIC TOTAL TEMP POTENTIAL TOTAL3 TEMPAVG PRESSURE GPRESSURE VOLUME PRESSAVG GPRESSAVG
ENERGY: 800000 2.0570 3.5095 4.3737 0.0000 -11503.1990 1573.4949 0.0000 0.0000 1411.4448 -8508.3190 243.9119 -9919.7639 -8505.8788 243.9119 -1222.8986 -1144.6269 29057.2624 -1222.8986 -1144.6269
ENERGY: 900000 3.9041 3.7729 3.9439 0.0000 -10996.7519 1527.9013 0.0000 0.0000 1528.9088 -7928.3211 264.2108 -9457.2298 -7923.6672 269.8193 -287.3074 -78.0748 29393.0269 2.9910 2.9930
TCL: Running 1000000 steps at 300 kelvin.
TCL: Setting parameter langevinTemp to 300
TCL: Running for 1000000 steps
ETITLE: TS BOND ANGLE DIHED IMPRP ELECT VDW BOUNDARY MISC KINETIC TOTAL TEMP POTENTIAL TOTAL3 TEMPAVG PRESSURE GPRESSURE VOLUME PRESSAVG GPRESSAVG
ENERGY: 900000 3.9041 3.7729 3.9439 0.0000 -10996.7519 1527.9013 0.0000 0.0000 1528.1380 -7929.0918 264.0776 -9457.2298 -7926.3260 264.0776 -161.1556 -77.4156 29393.0269 -161.1556 -77.4156
ENERGY: 1100000 0.3761 3.2343 6.3612 0.0000 -10407.8338 1388.9107 0.0000 0.0000 1683.8260 -7325.1255 290.9821 -9008.9515 -7321.0174 301.1589 -341.5224 -215.3724 30828.6781 2.0989 2.2706
ENERGY: 1300000 1.4687 3.2199 3.7586 0.0000 -10576.6678 1409.9542 0.0000 0.0000 1758.8197 -7399.4468 303.9417 -9158.2665 -7397.9517 300.4729 -76.7684 -69.9648 29960.5044 2.4781 2.5143
ENERGY: 1500000 3.1311 4.6201 5.6944 0.0000 -10506.7162 1420.1890 0.0000 0.0000 1767.2831 -7305.7986 305.4043 -9073.0816 -7303.6909 300.3172 33.4617 178.6908 30436.1019 3.8039 3.8351
ENERGY: 1700000 2.4860 3.0386 3.8972 0.0000 -10406.5668 1359.3333 0.0000 0.0000 1785.1996 -7252.6120 308.5004 -9037.8116 -7248.4144 300.9812 -229.0057 -296.1384 30355.4438 3.1495 3.3214
ENERGY: 1900000 2.1451 4.6877 2.8265 0.0000 -10616.9528 1451.4744 0.0000 0.0000 1736.2728 -7419.5464 300.0454 -9155.8192 -7419.2444 299.9533 105.5002 191.9937 29668.7711 4.8132 4.7550
TCL: Exiting due to exit command.
