Info: SIMULATION PARAMETERS:
Info: TIMESTEP               2
Info: NUMBER OF STEPS        0
Info: STEPS PER CYCLE        10
Info: PERIODIC CELL BASIS 1  34.207 0 0
Info: PERIODIC CELL BASIS 2  0 33.314 0
Info: PERIODIC CELL BASIS 3  0 0 38.617
Info: PERIODIC CELL CENTER   0 0 0
Info: WRAPPING WATERS AROUND PERIODIC BOUNDARIES ON OUTPUT.
Info: WRAPPING ALL CLUSTERS AROUND PERIODIC BOUNDARIES ON OUTPUT.
Info: FIRST LDB TIMESTEP     50
Info: LAST LDB TIMESTEP     -1
Info: HOM BACKGROUND SCALING 1
Info: PME BACKGROUND SCALING 1
Info: MIN ATOMS PER PATCH    40
Info: EMPTY PATCH LOAD       40 ATOMS
Info: INITIAL TEMPERATURE    300
Info: CENTER OF MASS MOVING INITIALLY? NO
Info: DIELECTRIC             1
Info: EXCLUDE                SCALED ONE-FOUR
Info: 1-4 ELECTROSTATICS SCALED BY 0.833333
Info: MODIFIED 1-4 VDW PARAMETERS WILL BE USED
Info: DCD FILENAME           mobley_4683624_equil.dcd
Info: DCD FREQUENCY          100000
Info: DCD FIRST STEP         100000
Info: DCD FILE WILL CONTAIN UNIT CELL DATA
Info: XST FILENAME           mobley_4683624_equil.xst
Info: XST FREQUENCY          100000
Info: NO VELOCITY DCD OUTPUT
Info: NO FORCE DCD OUTPUT
Info: OUTPUT FILENAME        mobley_4683624_equil
Info: BINARY OUTPUT FILES WILL BE USED
Info: RESTART FILENAME       mobley_4683624_equil.restart
Info: RESTART FREQUENCY      100000
Info: BINARY RESTART FILES WILL BE USED
Info: CUTOFF                 9
Info: PAIRLIST DISTANCE      11
Info: PAIRLIST SHRINK RATE   0.01
Info: PAIRLIST GROW RATE     0.01
Info: PAIRLIST TRIGGER       0.3
Info: PAIRLISTS PER CYCLE    2
Info: PAIRLISTS ENABLED
Info: MARGIN                 8
Info: HYDROGEN GROUP CUTOFF  2.5
Info: PATCH DIMENSION        21.5
Info: ENERGY OUTPUT STEPS    100000
Info: ENERGY EVALUATION STEPS    100000
Info: OUTPUT ENERGY PRECISION 4
Info: CROSSTERM ENERGY INCLUDED IN DIHEDRAL
Info: TIMING OUTPUT STEPS    1000000
Info: PRESSURE OUTPUT STEPS  100000
Info: LANGEVIN DYNAMICS ACTIVE
Info: LANGEVIN TEMPERATURE   30
Info: LANGEVIN USING BBK INTEGRATOR
Info: LANGEVIN DAMPING COEFFICIENT IS 1 INVERSE PS
Info: LANGEVIN DYNAMICS APPLIED TO HYDROGENS
Info: LANGEVIN PISTON PRESSURE CONTROL ACTIVE
Info:        TARGET PRESSURE IS 1.01325 BAR
Info:     OSCILLATION PERIOD IS 50 FS
Info:             DECAY TIME IS 25 FS
Info:     PISTON TEMPERATURE IS 300 K
Info:       PRESSURE CONTROL IS GROUP-BASED
Info:    INITIAL STRAIN RATE IS 0 0 0
Info:       CELL FLUCTUATION IS ISOTROPIC
Info: PARTICLE MESH EWALD (PME) ACTIVE
Info: PME TOLERANCE               1e-06
Info: PME EWALD COEFFICIENT       0.348832
Info: PME INTERPOLATION ORDER     4
Info: PME GRID DIMENSIONS         36 36 40
Info: PME MAXIMUM GRID SPACING    1
Info: FULL ELECTROSTATIC EVALUATION FREQUENCY      2
Info: USING VERLET I (r-RESPA) MTS SCHEME.
Info: C1 SPLITTING OF LONG RANGE ELECTROSTATICS
Info: PLACING ATOMS IN PATCHES BY HYDROGEN GROUPS
Info: RIGID BONDS TO HYDROGEN : ALL
Info:         ERROR TOLERANCE : 1e-08
Info:          MAX ITERATIONS : 100
Info: RIGID WATER USING SETTLE ALGORITHM
Info: RANDOM NUMBER SEED     1743244874
Info: USE HYDROGEN BONDS?    NO
Info: Using AMBER format force field!
Info: AMBER PARM FILE        mobley_4683624.prmtop
Info: COORDINATE PDB         mobley_4683624.pdb
Info: Exclusions will be read from PARM file!
Info: SCNB (VDW SCALING)     2
Info: USING ARITHMETIC MEAN TO COMBINE L-J SIGMA PARAMETERS
Info: BINARY COORDINATES     mobley_4683624_min.coor
Info: SUMMARY OF PARAMETERS:
Info: 9 BONDS
Info: 10 ANGLES
Info:   10 HARMONIC
Info:   0 COSINE-BASED
Info: 7 DIHEDRAL
Info: 0 IMPROPER
Info: 0 CROSSTERM
Info: 0 VDW
Info: 28 VDW_PAIRS
Info: 0 NBTHOLE_PAIRS
Info: STRUCTURE SUMMARY:
Info: 2965 ATOMS
Info: 2965 BONDS
Info: 37 ANGLES
Info: 56 DIHEDRALS
Info: 0 IMPROPERS
Info: 0 CROSSTERMS
Info: 3049 EXCLUSIONS
Info: 2955 RIGID BONDS
Info: 5940 DEGREES OF FREEDOM
Info: 991 HYDROGEN GROUPS
Info: 4 ATOMS IN LARGEST HYDROGEN GROUP
Info: 991 MIGRATION GROUPS
Info: 4 ATOMS IN LARGEST MIGRATION GROUP
Info: TOTAL MASS = 17809.9 amu
Info: TOTAL CHARGE = 0.000199992 e
Info: MASS DENSITY = 0.672048 g/cm^3
Info: ATOM DENSITY = 0.0673759 atoms/A^3
Info: ADDED 0 IMPLICIT EXCLUSIONS
Info: NONBONDED TABLE R-SQUARED SPACING: 0.0625
Info: NONBONDED TABLE SIZE: 705 POINTS
Info: REMOVING COM VELOCITY -0.0856406 0.141717 -0.126416
TCL: Running for 100000 steps
ETITLE: TS BOND ANGLE DIHED IMPRP ELECT VDW BOUNDARY MISC KINETIC TOTAL TEMP POTENTIAL TOTAL3 TEMPAVG PRESSURE GPRESSURE VOLUME PRESSAVG GPRESSAVG
ENERGY: 0 0.1807 0.2114 0.1510 0.0000 -13756.4368 2425.5896 0.0000 0.0000 1850.7077 -9479.5963 313.5752 -11330.3040 -9479.2395 313.5752 432.3249 471.9431 44006.8518 432.3249 471.9431
ENERGY: 100000 0.5673 1.1798 0.4128 0.0000 -14341.4317 2532.1794 0.0000 0.0000 177.7907 -11629.3016 30.1240 -11807.0923 -11628.9578 30.9264 255.3287 320.8883 28862.0298 4.2283 4.3285
TCL: Running 100000 steps at 60 kelvin.
TCL: Setting parameter langevinTemp to 60
TCL: Running for 100000 steps
ETITLE: TS BOND ANGLE DIHED IMPRP ELECT VDW BOUNDARY MISC KINETIC TOTAL TEMP POTENTIAL TOTAL3 TEMPAVG PRESSURE GPRESSURE VOLUME PRESSAVG GPRESSAVG
ENERGY: 100000 0.5673 1.1798 0.4128 0.0000 -14341.4317 2532.1794 0.0000 0.0000 177.7045 -11629.3878 30.1094 -11807.0923 -11628.9946 30.1094 260.8913 320.7930 28862.0298 260.8913 320.7930
ENERGY: 200000 0.5766 2.0116 1.3347 0.0000 -14193.2310 2450.4352 0.0000 0.0000 355.6249 -11383.2481 60.2554 -11738.8729 -11382.4604 59.8952 -213.3453 -143.6125 29157.3770 5.5853 5.5556
TCL: Running 100000 steps at 90 kelvin.
TCL: Setting parameter langevinTemp to 90
TCL: Running for 100000 steps
ETITLE: TS BOND ANGLE DIHED IMPRP ELECT VDW BOUNDARY MISC KINETIC TOTAL TEMP POTENTIAL TOTAL3 TEMPAVG PRESSURE GPRESSURE VOLUME PRESSAVG GPRESSAVG
ENERGY: 200000 0.5766 2.0116 1.3347 0.0000 -14193.2310 2450.4352 0.0000 0.0000 355.4571 -11383.4158 60.2270 -11738.8729 -11382.7577 60.2270 -203.8527 -143.4745 29157.3770 -203.8527 -143.4745
ENERGY: 300000 1.2563 2.1948 0.9254 0.0000 -14115.1849 2491.9037 0.0000 0.0000 514.5285 -11104.3762 87.1793 -11618.9047 -11103.5025 89.6750 659.9556 744.4797 28945.5661 5.1973 5.1699
TCL: Running 100000 steps at 120 kelvin.
TCL: Setting parameter langevinTemp to 120
TCL: Running for 100000 steps
ETITLE: TS BOND ANGLE DIHED IMPRP ELECT VDW BOUNDARY MISC KINETIC TOTAL TEMP POTENTIAL TOTAL3 TEMPAVG PRESSURE GPRESSURE VOLUME PRESSAVG GPRESSAVG
ENERGY: 300000 1.2563 2.1948 0.9254 0.0000 -14115.1849 2491.9037 0.0000 0.0000 514.2599 -11104.6448 87.1338 -11618.9047 -11103.6638 87.1338 691.6198 744.3012 28945.5661 691.6198 744.3012
ENERGY: 400000 1.1187 1.7291 0.7685 0.0000 -13839.1525 2340.2525 0.0000 0.0000 729.1764 -10766.1074 123.5482 -11495.2838 -10762.9361 119.9135 102.7953 108.6777 28948.2825 4.7653 4.8329
TCL: Running 100000 steps at 150 kelvin.
TCL: Setting parameter langevinTemp to 150
TCL: Running for 100000 steps
ETITLE: TS BOND ANGLE DIHED IMPRP ELECT VDW BOUNDARY MISC KINETIC TOTAL TEMP POTENTIAL TOTAL3 TEMPAVG PRESSURE GPRESSURE VOLUME PRESSAVG GPRESSAVG
ENERGY: 400000 1.1187 1.7291 0.7685 0.0000 -13839.1525 2340.2525 0.0000 0.0000 728.8417 -10766.4421 123.4915 -11495.2838 -10764.8125 123.4915 58.3104 109.4474 28948.2825 58.3104 109.4474
ENERGY: 500000 2.6703 2.4884 1.6833 0.0000 -13724.0027 2381.1210 0.0000 0.0000 883.8291 -10452.2105 149.7519 -11336.0396 -10450.5555 149.8471 1029.4312 1092.3938 28828.2182 2.5182 2.6131
TCL: Running 100000 steps at 180 kelvin.
TCL: Setting parameter langevinTemp to 180
TCL: Running for 100000 steps
ETITLE: TS BOND ANGLE DIHED IMPRP ELECT VDW BOUNDARY MISC KINETIC TOTAL TEMP POTENTIAL TOTAL3 TEMPAVG PRESSURE GPRESSURE VOLUME PRESSAVG GPRESSAVG
ENERGY: 500000 2.6703 2.4884 1.6833 0.0000 -13724.0027 2381.1210 0.0000 0.0000 883.3838 -10452.6558 149.6764 -11336.0397 -10450.9738 149.6764 1051.6227 1092.4810 28828.2182 1051.6227 1092.4810
ENERGY: 600000 0.5603 2.4364 2.0671 0.0000 -13046.0824 2059.2173 0.0000 0.0000 1065.1309 -9916.6704 180.4708 -10981.8013 -9913.7055 180.2543 -287.4189 -241.4758 28837.1149 3.3196 3.1660
TCL: Running 100000 steps at 210 kelvin.
TCL: Setting parameter langevinTemp to 210
TCL: Running for 100000 steps
ETITLE: TS BOND ANGLE DIHED IMPRP ELECT VDW BOUNDARY MISC KINETIC TOTAL TEMP POTENTIAL TOTAL3 TEMPAVG PRESSURE GPRESSURE VOLUME PRESSAVG GPRESSAVG
ENERGY: 600000 0.5603 2.4364 2.0671 0.0000 -13046.0824 2059.2173 0.0000 0.0000 1064.6345 -9917.1668 180.3867 -10981.8013 -9915.1112 180.3867 -314.9789 -242.2340 28837.1149 -314.9789 -242.2340
ENERGY: 700000 2.5514 3.6124 2.1842 0.0000 -12480.8213 1916.2887 0.0000 0.0000 1258.4144 -9297.7702 213.2198 -10556.1846 -9296.5707 210.1244 222.3179 336.2004 28768.6904 3.6251 3.8510
TCL: Running 100000 steps at 240 kelvin.
TCL: Setting parameter langevinTemp to 240
TCL: Running for 100000 steps
ETITLE: TS BOND ANGLE DIHED IMPRP ELECT VDW BOUNDARY MISC KINETIC TOTAL TEMP POTENTIAL TOTAL3 TEMPAVG PRESSURE GPRESSURE VOLUME PRESSAVG GPRESSAVG
ENERGY: 700000 2.5514 3.6124 2.1842 0.0000 -12480.8213 1916.2887 0.0000 0.0000 1257.7848 -9298.3998 213.1132 -10556.1846 -9296.3678 213.1132 238.0522 334.7213 28768.6904 238.0522 334.7213
ENERGY: 800000 3.3934 8.2863 1.7447 0.0000 -11832.7254 1741.5207 0.0000 0.0000 1409.7279 -8668.0525 238.8577 -10077.7804 -8665.7119 240.0262 448.9352 532.1513 28952.2639 2.1830 2.2170
TCL: Running 100000 steps at 270 kelvin.
TCL: Setting parameter langevinTemp to 270
TCL: Running for 100000 steps
ETITLE: TS BOND ANGLE DIHED IMPRP ELECT VDW BOUNDARY MISC KINETIC TOTAL TEMP POTENTIAL TOTAL3 TEMPAVG PRESSURE GPRESSURE VOLUME PRESSAVG GPRESSAVG
ENERGY: 800000 3.3934 8.2863 1.7447 0.0000 -11832.7254 1741.5207 0.0000 0.0000 1409.0208 -8668.7596 238.7379 -10077.7804 -8666.2933 238.7379 445.5337 531.6256 28952.2639 445.5337 531.6256
ENERGY: 900000 3.6231 10.0089 3.2494 0.0000 -11358.9542 1661.8856 0.0000 0.0000 1594.1721 -8086.0150 270.1091 -9680.1871 -8080.3167 270.4899 586.0167 729.5281 29669.6385 1.9683 1.8831
TCL: Running 1000000 steps at 300 kelvin.
TCL: Setting parameter langevinTemp to 300
TCL: Running for 1000000 steps
ETITLE: TS BOND ANGLE DIHED IMPRP ELECT VDW BOUNDARY MISC KINETIC TOTAL TEMP POTENTIAL TOTAL3 TEMPAVG PRESSURE GPRESSURE VOLUME PRESSAVG GPRESSAVG
ENERGY: 900000 3.6231 10.0089 3.2494 0.0000 -11358.9542 1661.8856 0.0000 0.0000 1593.3869 -8086.8003 269.9760 -9680.1871 -8084.5637 269.9760 642.6564 730.2180 29669.6385 642.6564 730.2180
ENERGY: 1100000 3.5609 7.7641 7.2847 0.0000 -10590.0411 1349.9339 0.0000 0.0000 1773.2472 -7448.2504 300.4507 -9221.4976 -7443.7339 300.0757 -550.7490 -518.0888 30902.5040 3.0978 3.1310
ENERGY: 1300000 2.2753 5.4586 4.2056 0.0000 -10648.4213 1376.4558 0.0000 0.0000 1800.7064 -7459.3195 305.1033 -9260.0259 -7454.1052 300.4913 -436.9791 -383.5793 30630.6963 2.9211 2.9041
ENERGY: 1500000 0.8197 9.5714 6.1102 0.0000 -10688.1006 1440.3902 0.0000 0.0000 1782.3904 -7448.8187 301.9999 -9231.2090 -7444.6051 300.5820 -16.6767 117.5113 30888.4038 4.6015 4.8165
ENERGY: 1700000 4.1994 6.8974 4.5303 0.0000 -10596.1975 1383.1571 0.0000 0.0000 1796.9229 -7400.4904 304.4622 -9197.4132 -7398.7705 300.2126 -329.3026 -257.8875 30756.7903 1.4152 1.5709
ENERGY: 1900000 4.7622 7.6772 5.5148 0.0000 -10714.9005 1447.1073 0.0000 0.0000 1752.1814 -7497.6577 296.8814 -9249.8391 -7493.2429 299.9455 66.3957 178.1523 30429.5839 3.1478 3.2053
TCL: Exiting due to exit command.
