Info: SIMULATION PARAMETERS:
Info: TIMESTEP               2
Info: NUMBER OF STEPS        0
Info: STEPS PER CYCLE        10
Info: PERIODIC CELL BASIS 1  31.03 0 0
Info: PERIODIC CELL BASIS 2  0 30.3861 0
Info: PERIODIC CELL BASIS 3  0 0 32.1059
Info: PERIODIC CELL CENTER   0 0 0
Info: WRAPPING WATERS AROUND PERIODIC BOUNDARIES ON OUTPUT.
Info: WRAPPING ALL CLUSTERS AROUND PERIODIC BOUNDARIES ON OUTPUT.
Info: FIRST LDB TIMESTEP     50
Info: LAST LDB TIMESTEP     -1
Info: HOM BACKGROUND SCALING 1
Info: PME BACKGROUND SCALING 1
Info: MIN ATOMS PER PATCH    40
Info: EMPTY PATCH LOAD       40 ATOMS
Info: VELOCITY FILE          mobley_3762186_equil.vel
Info: CENTER OF MASS MOVING INITIALLY? NO
Info: DIELECTRIC             1
Info: EXCLUDE                SCALED ONE-FOUR
Info: 1-4 ELECTROSTATICS SCALED BY 0.833333
Info: MODIFIED 1-4 VDW PARAMETERS WILL BE USED
Info: DCD FILENAME           mobley_3762186_prod.dcd
Info: DCD FREQUENCY          100000
Info: DCD FIRST STEP         100000
Info: DCD FILE WILL CONTAIN UNIT CELL DATA
Info: XST FILENAME           mobley_3762186_prod.xst
Info: XST FREQUENCY          100000
Info: NO VELOCITY DCD OUTPUT
Info: NO FORCE DCD OUTPUT
Info: OUTPUT FILENAME        mobley_3762186_prod
Info: BINARY OUTPUT FILES WILL BE USED
Info: RESTART FILENAME       mobley_3762186_prod.restart
Info: RESTART FREQUENCY      100000
Info: BINARY RESTART FILES WILL BE USED
Info: CUTOFF                 9
Info: PAIRLIST DISTANCE      11
Info: PAIRLIST SHRINK RATE   0.01
Info: PAIRLIST GROW RATE     0.01
Info: PAIRLIST TRIGGER       0.3
Info: PAIRLISTS PER CYCLE    2
Info: PAIRLISTS ENABLED
Info: MARGIN                 2
Info: HYDROGEN GROUP CUTOFF  2.5
Info: PATCH DIMENSION        15.5
Info: ENERGY OUTPUT STEPS    100000
Info: ENERGY EVALUATION STEPS    100000
Info: OUTPUT ENERGY PRECISION 4
Info: CROSSTERM ENERGY INCLUDED IN DIHEDRAL
Info: TIMING OUTPUT STEPS    1000000
Info: PRESSURE OUTPUT STEPS  100000
Info: ALCHEMICAL FEP ON
Info: FEP CURRENT LAMBDA VALUE     0
Info: FEP COMPARISON LAMBDA VALUE  0.05
Info: FEP INTRA-ALCHEMICAL NON-BONDED INTERACTIONS WILL BE RETAINED
Info: FEP INTRA-ALCHEMICAL BONDED INTERACTIONS WILL BE RETAINED
Info: FEP VDW SHIFTING COEFFICIENT 5
Info: FEP ELEC. ACTIVE FOR ANNIHILATED PARTICLES BETWEEN LAMBDA = 0 AND LAMBDA = 0.5
Info: FEP ELEC. ACTIVE FOR EXNIHILATED PARTICLES BETWEEN LAMBDA = 0.5 AND LAMBDA = 1
Info: FEP VDW ACTIVE FOR ANNIHILATED PARTICLES BETWEEN LAMBDA = 0 AND LAMBDA = 1
Info: FEP VDW ACTIVE FOR EXNIHILATED PARTICLES BETWEEN LAMBDA = 0 AND LAMBDA = 1
Info: FEP BOND ACTIVE FOR ANNIHILATED PARTICLES BETWEEN LAMBDA = 1 AND LAMBDA = 1
Info: FEP BOND ACTIVE FOR EXNIHILATED PARTICLES BETWEEN LAMBDA = 0 AND LAMBDA = 0
Info: LANGEVIN DYNAMICS ACTIVE
Info: LANGEVIN TEMPERATURE   300
Info: LANGEVIN USING BBK INTEGRATOR
Info: LANGEVIN DAMPING COEFFICIENT IS 1 INVERSE PS
Info: LANGEVIN DYNAMICS APPLIED TO HYDROGENS
Info: LANGEVIN PISTON PRESSURE CONTROL ACTIVE
Info:        TARGET PRESSURE IS 1.01325 BAR
Info:     OSCILLATION PERIOD IS 50 FS
Info:             DECAY TIME IS 25 FS
Info:     PISTON TEMPERATURE IS 300 K
Info:       PRESSURE CONTROL IS GROUP-BASED
Info:    INITIAL STRAIN RATE IS 2.34053e-05 2.34053e-05 2.34053e-05
Info:       CELL FLUCTUATION IS ISOTROPIC
Info: PARTICLE MESH EWALD (PME) ACTIVE
Info: PME TOLERANCE               1e-06
Info: PME EWALD COEFFICIENT       0.348832
Info: PME INTERPOLATION ORDER     4
Info: PME GRID DIMENSIONS         32 32 36
Info: PME MAXIMUM GRID SPACING    1
Info: PME CALCULATION WILL BE PERFORMED ON GPU
Info: FULL ELECTROSTATIC EVALUATION FREQUENCY      2
Info: USING VERLET I (r-RESPA) MTS SCHEME.
Info: C1 SPLITTING OF LONG RANGE ELECTROSTATICS
Info: PLACING ATOMS IN PATCHES BY HYDROGEN GROUPS
Info: RIGID BONDS TO HYDROGEN : ALL
Info:         ERROR TOLERANCE : 1e-08
Info:          MAX ITERATIONS : 100
Info: RIGID WATER USING SETTLE ALGORITHM
Info: RANDOM NUMBER SEED     1743390449
Info: USE HYDROGEN BONDS?    NO
Info: Using AMBER format force field!
Info: AMBER PARM FILE        mobley_3762186.prmtop
Info: COORDINATE PDB         mobley_3762186.pdb
Info: Exclusions will be read from PARM file!
Info: SCNB (VDW SCALING)     2
Info: USING ARITHMETIC MEAN TO COMBINE L-J SIGMA PARAMETERS
Info: BINARY COORDINATES     mobley_3762186_equil.coor
Info: SUMMARY OF PARAMETERS:
Info: 4 BONDS
Info: 3 ANGLES
Info:   3 HARMONIC
Info:   0 COSINE-BASED
Info: 0 DIHEDRAL
Info: 0 IMPROPER
Info: 0 CROSSTERM
Info: 0 VDW
Info: 15 VDW_PAIRS
Info: 0 NBTHOLE_PAIRS
Info: To read alchdata from file: mobley_3762186.pdb
Info: To read alchflag data from column: 5
Info: STRUCTURE SUMMARY:
Info: 2909 ATOMS
Info: 2908 BONDS
Info: 6 ANGLES
Info: 0 DIHEDRALS
Info: 0 IMPROPERS
Info: 0 CROSSTERMS
Info: 2914 EXCLUSIONS
Info: 2906 RIGID BONDS
Info: ALCH: 0 ATOMS TO DISAPPEAR IN FINAL STATE
Info: ALCH: 5 ATOMS TO APPEAR IN FINAL STATE
Info: 5821 DEGREES OF FREEDOM
Info: 971 HYDROGEN GROUPS
Info: 3 ATOMS IN LARGEST HYDROGEN GROUP
Info: 971 MIGRATION GROUPS
Info: 3 ATOMS IN LARGEST MIGRATION GROUP
Info: TOTAL MASS = 17524.4 amu
Info: TOTAL CHARGE = 1.49012e-08 e
Info: MASS DENSITY = 0.961305 g/cm^3
Info: ATOM DENSITY = 0.0960953 atoms/A^3
Info: ADDED 0 IMPLICIT EXCLUSIONS
Info: NONBONDED TABLE R-SQUARED SPACING: 0.0625
Info: NONBONDED TABLE SIZE: 705 POINTS
Info: REMOVING COM VELOCITY -0.0100665 0.303044 -0.0664064
Info: Use 3D box decompostion in PME FFT.
Info: Updated CUDA force table with 4096 elements.
Info: Updated CUDA LJ table with 5 x 5 elements.
Info: Found 8 unique exclusion lists needing 8 bytes
TCL: Running for 1500000 steps
ETITLE: TS BOND ANGLE DIHED IMPRP ELECT VDW BOUNDARY MISC KINETIC TOTAL TEMP POTENTIAL TOTALAVG TEMPAVG PRESSURE GPRESSURE VOLUME PRESSAVG GPRESSAVG
ENERGY: 0 0.2040 2.7482 0.0000 0.0000 -10566.9442 1422.2651 0.0000 0.0000 1692.8912 -7448.8357 292.6994 -9141.7270 -7448.8357 292.6994 -273.4614 -199.9618 30272.0389 -273.4614 -199.9618
ENERGY: 300000 0.0078 1.6532 0.0000 0.0000 -10751.3291 1575.3753 0.0000 0.0000 1718.0061 -7456.2867 297.0417 -9174.2928 -7417.1978 299.5448 1161.5338 1238.2688 29547.7579 249.4189 334.7200
ENERGY: 600000 0.7734 1.9275 0.0000 0.0000 -10628.5635 1404.8550 0.0000 0.0000 1796.5113 -7424.4964 310.6152 -9221.0077 -7421.2431 300.7627 -409.5645 -370.1233 30144.1447 112.5061 181.8256
ENERGY: 900000 2.2528 2.8556 0.0000 0.0000 -10755.7719 1565.0544 0.0000 0.0000 1770.3512 -7415.2579 306.0922 -9185.6091 -7421.4368 301.0783 1082.7348 1099.9295 29643.2753 194.8855 268.2800
ENERGY: 1200000 2.5425 1.9313 0.0000 0.0000 -10623.8632 1489.4053 0.0000 0.0000 1774.6339 -7355.3502 306.8326 -9129.9840 -7409.5430 301.4235 454.1134 514.8308 29841.3844 190.0913 264.9370
ENERGY: 1500000 0.0909 0.8889 0.0000 0.0000 -10661.9079 1501.3164 0.0000 0.0000 1688.4503 -7471.1613 291.9316 -9159.6117 -7414.0632 301.1176 577.6448 587.5165 29893.4667 159.6389 231.3372
TCL: Running FEP window   2: Lambda1 0.05   Lambda2 0.1    [dLambda 0.05  ]
TCL: Setting parameter firsttimestep to 0
TCL: Setting parameter alchLambda to 0.05
Info: NONBONDED TABLE R-SQUARED SPACING: 0.0625
Info: NONBONDED TABLE SIZE: 705 POINTS
TCL: Setting parameter alchLambda2 to 0.1
Info: NONBONDED TABLE R-SQUARED SPACING: 0.0625
Info: NONBONDED TABLE SIZE: 705 POINTS
TCL: Running for 1500000 steps
ETITLE: TS BOND ANGLE DIHED IMPRP ELECT VDW BOUNDARY MISC KINETIC TOTAL TEMP POTENTIAL TOTALAVG TEMPAVG PRESSURE GPRESSURE VOLUME PRESSAVG GPRESSAVG
ENERGY: 0 0.0909 0.8889 0.0000 0.0000 -10661.9074 1502.9901 0.0000 0.0000 1687.5884 -7470.3491 291.7826 -9157.9375 -7470.3491 291.7826 514.0055 595.8469 29893.4667 514.0055 595.8469
ENERGY: 300000 0.0284 0.5373 0.0000 0.0000 -10508.6206 1388.0261 0.0000 0.0000 1764.6810 -7355.3477 305.1118 -9120.0287 -7440.0322 300.3204 101.9911 80.8549 29943.5426 201.2823 246.0261
ENERGY: 600000 1.8579 1.8318 0.0000 0.0000 -10630.4669 1528.3326 0.0000 0.0000 1741.6752 -7356.7693 301.1341 -9098.4446 -7430.3789 299.5076 1300.4029 1383.6039 29526.1299 346.2759 401.7615
ENERGY: 900000 0.2736 2.9519 0.0000 0.0000 -10597.5337 1419.9450 0.0000 0.0000 1747.9010 -7426.4623 302.2105 -9174.3632 -7429.1685 299.2183 45.9985 47.8442 29947.0435 165.6587 216.7629
ENERGY: 1200000 1.4451 1.5279 0.0000 0.0000 -10713.2963 1505.3802 0.0000 0.0000 1736.2376 -7468.7056 300.1939 -9204.9431 -7433.7225 298.9202 533.7436 626.9257 29587.5246 120.8981 173.5604
ENERGY: 1500000 0.0845 1.0010 0.0000 0.0000 -10534.4681 1395.5616 0.0000 0.0000 1751.6451 -7386.1759 302.8579 -9137.8210 -7427.4993 299.5340 -405.3774 -336.5257 30263.0850 127.4576 181.5549
TCL: Running FEP window   3: Lambda1 0.1    Lambda2 0.15000000000000002 [dLambda 0.05000000000000002]
TCL: Setting parameter firsttimestep to 0
TCL: Setting parameter alchLambda to 0.1
Info: NONBONDED TABLE R-SQUARED SPACING: 0.0625
Info: NONBONDED TABLE SIZE: 705 POINTS
TCL: Setting parameter alchLambda2 to 0.15000000000000002
Info: NONBONDED TABLE R-SQUARED SPACING: 0.0625
Info: NONBONDED TABLE SIZE: 705 POINTS
TCL: Running for 1500000 steps
ETITLE: TS BOND ANGLE DIHED IMPRP ELECT VDW BOUNDARY MISC KINETIC TOTAL TEMP POTENTIAL TOTALAVG TEMPAVG PRESSURE GPRESSURE VOLUME PRESSAVG GPRESSAVG
ENERGY: 0 0.0845 1.0010 0.0000 0.0000 -10534.4685 1396.0666 0.0000 0.0000 1750.7881 -7386.5283 302.7097 -9137.3164 -7386.5283 302.7097 -408.3468 -331.7533 30263.0850 -408.3468 -331.7533
ENERGY: 300000 2.0609 0.6077 0.0000 0.0000 -10490.4479 1354.9437 0.0000 0.0000 1690.4171 -7442.4185 292.2716 -9132.8356 -7411.7052 299.7543 -330.6225 -276.6878 29672.5693 -113.5061 -22.4268
ENERGY: 600000 0.0456 1.7260 0.0000 0.0000 -10550.9380 1341.9413 0.0000 0.0000 1680.9616 -7526.2635 290.6368 -9207.2251 -7431.4959 298.1229 -706.2648 -663.9843 29563.5356 -90.0744 -32.6139
ENERGY: 900000 0.1141 0.5534 0.0000 0.0000 -10524.2762 1387.3502 0.0000 0.0000 1743.5308 -7392.7277 301.4549 -9136.2584 -7440.5731 298.5167 -368.4181 -342.8392 30129.1506 -107.1164 -50.1731
ENERGY: 1200000 0.9166 1.9478 0.0000 0.0000 -10522.2415 1444.3231 0.0000 0.0000 1769.8761 -7305.1780 306.0100 -9075.0541 -7434.4920 299.1003 153.0374 198.8573 30314.7650 -18.4646 36.2572
ENERGY: 1500000 0.3013 1.7754 0.0000 0.0000 -10521.6589 1375.7983 0.0000 0.0000 1765.4536 -7378.3303 305.2454 -9143.7839 -7430.8755 299.1094 -400.5513 -300.7191 29914.4900 -6.8173 51.2014
TCL: Running FEP window   4: Lambda1 0.15000000000000002 Lambda2 0.2    [dLambda 0.04999999999999999]
TCL: Setting parameter firsttimestep to 0
TCL: Setting parameter alchLambda to 0.15000000000000002
Info: NONBONDED TABLE R-SQUARED SPACING: 0.0625
Info: NONBONDED TABLE SIZE: 705 POINTS
TCL: Setting parameter alchLambda2 to 0.2
Info: NONBONDED TABLE R-SQUARED SPACING: 0.0625
Info: NONBONDED TABLE SIZE: 705 POINTS
TCL: Running for 1500000 steps
ETITLE: TS BOND ANGLE DIHED IMPRP ELECT VDW BOUNDARY MISC KINETIC TOTAL TEMP POTENTIAL TOTALAVG TEMPAVG PRESSURE GPRESSURE VOLUME PRESSAVG GPRESSAVG
ENERGY: 0 0.3013 1.7754 0.0000 0.0000 -10521.6574 1375.7923 0.0000 0.0000 1764.5844 -7379.2040 305.0951 -9143.7884 -7379.2040 305.0951 -380.6459 -300.2073 29914.4900 -380.6459 -300.2073
ENERGY: 300000 0.3976 1.1696 0.0000 0.0000 -10554.3411 1377.4120 0.0000 0.0000 1782.7975 -7392.5644 308.2441 -9175.3618 -7377.5493 303.9258 -474.5482 -455.3094 30019.6876 -236.8068 -190.2002
ENERGY: 600000 1.4884 1.2505 0.0000 0.0000 -10505.3233 1360.0375 0.0000 0.0000 1773.8681 -7368.6789 306.7002 -9142.5470 -7374.3653 303.2376 -546.1394 -521.5437 30253.2811 -133.1189 -83.3215
ENERGY: 900000 0.3666 0.7166 0.0000 0.0000 -10423.3528 1315.8224 0.0000 0.0000 1736.5397 -7369.9075 300.2462 -9106.4472 -7387.5869 301.0848 -841.7794 -797.0720 30214.9077 -264.2467 -210.4718
ENERGY: 1200000 0.6545 2.4292 0.0000 0.0000 -10548.5179 1401.8901 0.0000 0.0000 1733.6421 -7409.9020 299.7452 -9143.5440 -7390.6418 301.9966 -265.6763 -263.9615 30319.4407 -274.4124 -215.6681
ENERGY: 1500000 0.9184 3.2467 0.0000 0.0000 -10548.6185 1393.4519 0.0000 0.0000 1769.2645 -7381.7371 305.9043 -9151.0016 -7395.1100 302.1577 -208.8555 -161.2365 30246.3646 -207.3428 -145.9493
TCL: Running FEP window   5: Lambda1 0.2    Lambda2 0.25   [dLambda 0.04999999999999999]
TCL: Setting parameter firsttimestep to 0
TCL: Setting parameter alchLambda to 0.2
Info: NONBONDED TABLE R-SQUARED SPACING: 0.0625
Info: NONBONDED TABLE SIZE: 705 POINTS
TCL: Setting parameter alchLambda2 to 0.25
Info: NONBONDED TABLE R-SQUARED SPACING: 0.0625
Info: NONBONDED TABLE SIZE: 705 POINTS
TCL: Running for 1500000 steps
ETITLE: TS BOND ANGLE DIHED IMPRP ELECT VDW BOUNDARY MISC KINETIC TOTAL TEMP POTENTIAL TOTALAVG TEMPAVG PRESSURE GPRESSURE VOLUME PRESSAVG GPRESSAVG
ENERGY: 0 0.9184 3.2467 0.0000 0.0000 -10548.6194 1394.2946 0.0000 0.0000 1768.3958 -7381.7639 305.7541 -9150.1597 -7381.7639 305.7541 -242.7620 -157.4173 30246.3646 -242.7620 -157.4173
ENERGY: 300000 0.0525 0.6995 0.0000 0.0000 -10637.7545 1432.2101 0.0000 0.0000 1739.5116 -7465.2808 300.7600 -9204.7924 -7394.6093 304.1516 150.6004 197.5275 29575.7986 -18.2018 57.2626
ENERGY: 600000 0.7443 0.7419 0.0000 0.0000 -10489.4209 1354.4357 0.0000 0.0000 1734.5090 -7398.9899 299.8951 -9133.4989 -7402.0456 304.2990 -524.7278 -491.5233 30230.2913 -139.1060 -65.0786
ENERGY: 900000 0.0071 2.1740 0.0000 0.0000 -10681.9586 1441.1012 0.0000 0.0000 1761.1049 -7477.5715 304.4935 -9238.6764 -7419.0242 303.2880 8.9750 149.5208 29520.3785 -162.7368 -76.1471
ENERGY: 1200000 0.1499 3.3523 0.0000 0.0000 -10600.1175 1402.9540 0.0000 0.0000 1690.2127 -7503.4486 292.2363 -9193.6613 -7434.6268 301.9459 -211.4286 -101.0172 29623.7362 -201.7649 -122.5939
ENERGY: 1500000 0.1365 4.6236 0.0000 0.0000 -10518.2352 1352.7907 0.0000 0.0000 1742.6707 -7418.0136 301.3062 -9160.6843 -7429.4562 301.3766 -713.4386 -654.9870 30051.4005 -187.5988 -113.3495
TCL: Running FEP window   6: Lambda1 0.25   Lambda2 0.3    [dLambda 0.04999999999999999]
TCL: Setting parameter firsttimestep to 0
TCL: Setting parameter alchLambda to 0.25
Info: NONBONDED TABLE R-SQUARED SPACING: 0.0625
Info: NONBONDED TABLE SIZE: 705 POINTS
TCL: Setting parameter alchLambda2 to 0.3
Info: NONBONDED TABLE R-SQUARED SPACING: 0.0625
Info: NONBONDED TABLE SIZE: 705 POINTS
TCL: Running for 1500000 steps
ETITLE: TS BOND ANGLE DIHED IMPRP ELECT VDW BOUNDARY MISC KINETIC TOTAL TEMP POTENTIAL TOTALAVG TEMPAVG PRESSURE GPRESSURE VOLUME PRESSAVG GPRESSAVG
ENERGY: 0 0.1365 4.6236 0.0000 0.0000 -10518.2361 1352.5384 0.0000 0.0000 1741.7869 -7419.1507 301.1534 -9160.9375 -7419.1507 301.1534 -731.3066 -653.2257 30051.4005 -731.3066 -653.2257
ENERGY: 300000 0.7080 1.3911 0.0000 0.0000 -10594.9274 1387.5743 0.0000 0.0000 1787.8915 -7417.3625 309.1249 -9205.2540 -7461.3979 301.3569 -400.5268 -318.8144 29678.5231 -396.5975 -353.6133
ENERGY: 600000 2.5277 2.0062 0.0000 0.0000 -10582.9718 1471.5427 0.0000 0.0000 1745.6030 -7361.2923 301.8132 -9106.8953 -7433.3970 301.2419 537.8491 531.0277 30046.1211 -108.3952 -76.5410
ENERGY: 900000 0.1745 1.7261 0.0000 0.0000 -10637.6758 1460.8119 0.0000 0.0000 1816.2486 -7358.7146 314.0278 -9174.9632 -7412.9493 302.7334 199.7714 261.5400 29872.9367 -76.8042 -38.4966
ENERGY: 1200000 0.6469 1.9207 0.0000 0.0000 -10361.3396 1277.2528 0.0000 0.0000 1701.9854 -7379.5337 294.2718 -9081.5191 -7413.2913 301.0661 -1039.9412 -993.4808 30305.5810 -146.0958 -105.9424
ENERGY: 1500000 0.1600 1.3333 0.0000 0.0000 -10647.6763 1458.5263 0.0000 0.0000 1707.2833 -7480.3734 295.1878 -9187.6567 -7416.9987 300.5472 4.4822 73.4841 30260.6889 -139.3240 -92.3079
TCL: Running FEP window   7: Lambda1 0.3    Lambda2 0.35   [dLambda 0.04999999999999999]
TCL: Setting parameter firsttimestep to 0
TCL: Setting parameter alchLambda to 0.3
Info: NONBONDED TABLE R-SQUARED SPACING: 0.0625
Info: NONBONDED TABLE SIZE: 705 POINTS
TCL: Setting parameter alchLambda2 to 0.35
Info: NONBONDED TABLE R-SQUARED SPACING: 0.0625
Info: NONBONDED TABLE SIZE: 705 POINTS
TCL: Running for 1500000 steps
ETITLE: TS BOND ANGLE DIHED IMPRP ELECT VDW BOUNDARY MISC KINETIC TOTAL TEMP POTENTIAL TOTALAVG TEMPAVG PRESSURE GPRESSURE VOLUME PRESSAVG GPRESSAVG
ENERGY: 0 0.1600 1.3333 0.0000 0.0000 -10647.6763 1459.6853 0.0000 0.0000 1706.4063 -7480.0913 295.0362 -9186.4977 -7480.0913 295.0362 -14.1556 83.4558 30260.6889 -14.1556 83.4558
ENERGY: 300000 0.5163 1.3545 0.0000 0.0000 -10558.4582 1411.5198 0.0000 0.0000 1655.7263 -7489.3414 286.2736 -9145.0677 -7435.0911 298.4552 93.2112 195.1542 29520.3782 409.1243 489.4615
ENERGY: 600000 0.2918 0.4801 0.0000 0.0000 -10715.1641 1479.6707 0.0000 0.0000 1728.6953 -7506.0262 298.8899 -9234.7215 -7426.2502 299.6644 196.0383 206.7468 29869.4160 136.9106 197.7208
ENERGY: 900000 2.8059 0.9886 0.0000 0.0000 -10628.6210 1461.1288 0.0000 0.0000 1703.3708 -7460.3269 294.5113 -9163.6977 -7416.6969 299.1605 291.7444 406.6342 29520.3759 102.2805 163.6869
ENERGY: 1200000 0.3581 1.5272 0.0000 0.0000 -10602.0823 1392.2579 0.0000 0.0000 1733.2663 -7474.6728 299.6802 -9207.9391 -7419.8807 298.9094 -485.7305 -431.3503 30037.5820 -120.8451 -51.4959
ENERGY: 1500000 0.8011 0.5289 0.0000 0.0000 -10491.4619 1376.1516 0.0000 0.0000 1785.3037 -7328.6766 308.6774 -9113.9802 -7412.0961 299.4305 -467.2934 -428.9045 30362.8340 -178.9882 -116.8952
TCL: Running FEP window   8: Lambda1 0.35   Lambda2 0.39999999999999997 [dLambda 0.04999999999999999]
TCL: Setting parameter firsttimestep to 0
TCL: Setting parameter alchLambda to 0.35
Info: NONBONDED TABLE R-SQUARED SPACING: 0.0625
Info: NONBONDED TABLE SIZE: 705 POINTS
TCL: Setting parameter alchLambda2 to 0.39999999999999997
Info: NONBONDED TABLE R-SQUARED SPACING: 0.0625
Info: NONBONDED TABLE SIZE: 705 POINTS
TCL: Running for 1500000 steps
ETITLE: TS BOND ANGLE DIHED IMPRP ELECT VDW BOUNDARY MISC KINETIC TOTAL TEMP POTENTIAL TOTALAVG TEMPAVG PRESSURE GPRESSURE VOLUME PRESSAVG GPRESSAVG
ENERGY: 0 0.8011 0.5289 0.0000 0.0000 -10491.4615 1376.3313 0.0000 0.0000 1784.4760 -7329.3242 308.5343 -9113.8002 -7329.3242 308.5343 -504.0579 -425.5302 30362.8340 -504.0579 -425.5302
ENERGY: 300000 0.0606 1.1701 0.0000 0.0000 -10585.1885 1380.0224 0.0000 0.0000 1738.7544 -7465.1810 300.6291 -9203.9354 -7401.6318 302.3239 -371.8662 -318.8927 29643.2052 -341.6235 -287.3319
ENERGY: 600000 0.5470 2.6581 0.0000 0.0000 -10474.1836 1336.9347 0.0000 0.0000 1734.2982 -7399.7457 299.8586 -9134.0439 -7416.9566 299.1540 -658.7216 -629.5808 30350.8043 -337.8312 -280.5905
ENERGY: 900000 0.7439 1.1903 0.0000 0.0000 -10335.8551 1270.4841 0.0000 0.0000 1743.1346 -7320.3021 301.3864 -9063.4367 -7423.8330 298.3200 -1053.0008 -980.6143 30172.3218 -344.6275 -293.9278
ENERGY: 1200000 1.0453 2.2331 0.0000 0.0000 -10507.3290 1393.2514 0.0000 0.0000 1764.6604 -7346.1389 305.1082 -9110.7993 -7413.6338 298.6464 101.0445 151.7159 29655.3660 -288.4627 -241.6647
ENERGY: 1500000 0.6803 1.2803 0.0000 0.0000 -10627.2058 1471.5625 0.0000 0.0000 1750.0809 -7403.6019 302.5874 -9153.6827 -7408.8863 298.9958 468.4411 543.0033 29736.1462 -236.0954 -186.5936
TCL: Running FEP window   9: Lambda1 0.39999999999999997 Lambda2 0.44999999999999996 [dLambda 0.04999999999999999]
TCL: Setting parameter firsttimestep to 0
TCL: Setting parameter alchLambda to 0.39999999999999997
Info: NONBONDED TABLE R-SQUARED SPACING: 0.0625
Info: NONBONDED TABLE SIZE: 705 POINTS
TCL: Setting parameter alchLambda2 to 0.44999999999999996
Info: NONBONDED TABLE R-SQUARED SPACING: 0.0625
Info: NONBONDED TABLE SIZE: 705 POINTS
TCL: Running for 1500000 steps
ETITLE: TS BOND ANGLE DIHED IMPRP ELECT VDW BOUNDARY MISC KINETIC TOTAL TEMP POTENTIAL TOTALAVG TEMPAVG PRESSURE GPRESSURE VOLUME PRESSAVG GPRESSAVG
ENERGY: 0 0.6803 1.2803 0.0000 0.0000 -10627.2057 1471.6009 0.0000 0.0000 1749.2148 -7404.4294 302.4377 -9153.6443 -7404.4294 302.4377 464.9672 547.3277 29736.1462 464.9672 547.3277
ENERGY: 300000 0.5879 1.9068 0.0000 0.0000 -10557.2254 1381.6425 0.0000 0.0000 1772.0135 -7401.0746 306.3796 -9173.0881 -7404.2310 302.2607 -308.1758 -304.6854 29824.7970 59.3773 114.5582
ENERGY: 600000 0.5019 0.9224 0.0000 0.0000 -10378.7990 1321.4777 0.0000 0.0000 1739.9621 -7315.9349 300.8379 -9055.8970 -7391.2449 302.4917 -751.7557 -710.4306 30624.3289 -55.9931 -11.0486
ENERGY: 900000 0.1638 2.3903 0.0000 0.0000 -10712.1158 1530.8618 0.0000 0.0000 1774.0068 -7404.6931 306.7242 -9178.6999 -7389.8682 302.8238 963.9655 1012.4331 29564.8318 168.8597 210.6573
ENERGY: 1200000 0.4291 2.9696 0.0000 0.0000 -10484.9902 1363.1502 0.0000 0.0000 1764.5844 -7353.8568 305.0951 -9118.4412 -7388.5145 303.1474 -300.1886 -271.9156 30245.6530 142.4750 183.8877
ENERGY: 1500000 0.1824 0.9130 0.0000 0.0000 -10587.8886 1399.1721 0.0000 0.0000 1753.3225 -7434.2986 303.1479 -9187.6211 -7395.4771 302.5199 -441.7928 -400.6187 30240.7348 156.0401 201.7804
TCL: Running FEP window  10: Lambda1 0.44999999999999996 Lambda2 0.49999999999999994 [dLambda 0.04999999999999999]
TCL: Setting parameter firsttimestep to 0
TCL: Setting parameter alchLambda to 0.44999999999999996
Info: NONBONDED TABLE R-SQUARED SPACING: 0.0625
Info: NONBONDED TABLE SIZE: 705 POINTS
TCL: Setting parameter alchLambda2 to 0.49999999999999994
Info: NONBONDED TABLE R-SQUARED SPACING: 0.0625
Info: NONBONDED TABLE SIZE: 705 POINTS
TCL: Running for 1500000 steps
ETITLE: TS BOND ANGLE DIHED IMPRP ELECT VDW BOUNDARY MISC KINETIC TOTAL TEMP POTENTIAL TOTALAVG TEMPAVG PRESSURE GPRESSURE VOLUME PRESSAVG GPRESSAVG
ENERGY: 0 0.1824 0.9130 0.0000 0.0000 -10587.8872 1398.8531 0.0000 0.0000 1752.4664 -7435.4723 302.9999 -9187.9387 -7435.4723 302.9999 -489.4647 -401.1698 30240.7348 -489.4647 -401.1698
ENERGY: 300000 0.3797 3.0068 0.0000 0.0000 -10773.4847 1540.4898 0.0000 0.0000 1730.7905 -7498.8179 299.2521 -9229.6083 -7426.3017 299.7548 794.3247 895.2314 29457.8935 -20.9066 55.7806
ENERGY: 600000 0.4581 1.0618 0.0000 0.0000 -10547.0556 1437.1081 0.0000 0.0000 1733.8217 -7374.6058 299.7763 -9108.4276 -7411.6420 299.8569 190.8518 234.4285 30038.1761 155.0039 206.9327
ENERGY: 900000 0.1045 2.0320 0.0000 0.0000 -10686.4774 1470.1756 0.0000 0.0000 1719.2916 -7494.8736 297.2640 -9214.1652 -7419.6519 298.8851 219.8849 306.8562 29681.6737 173.1646 230.0765
ENERGY: 1200000 0.2608 1.4166 0.0000 0.0000 -10500.8428 1329.5823 0.0000 0.0000 1763.0358 -7406.5473 304.8273 -9169.5831 -7408.1239 300.0698 -796.3763 -802.5770 30204.2555 53.5481 106.9693
ENERGY: 1500000 0.2775 2.1323 0.0000 0.0000 -10725.1546 1493.6043 0.0000 0.0000 1685.5332 -7543.6072 291.4272 -9229.1404 -7414.3494 299.3351 355.2315 467.6345 29550.5312 58.2264 118.4787
TCL: Running FEP window  11: Lambda1 0.49999999999999994 Lambda2 0.5499999999999999 [dLambda 0.04999999999999999]
TCL: Setting parameter firsttimestep to 0
TCL: Setting parameter alchLambda to 0.49999999999999994
Info: NONBONDED TABLE R-SQUARED SPACING: 0.0625
Info: NONBONDED TABLE SIZE: 705 POINTS
TCL: Setting parameter alchLambda2 to 0.5499999999999999
Info: NONBONDED TABLE R-SQUARED SPACING: 0.0625
Info: NONBONDED TABLE SIZE: 705 POINTS
TCL: Running for 1500000 steps
ETITLE: TS BOND ANGLE DIHED IMPRP ELECT VDW BOUNDARY MISC KINETIC TOTAL TEMP POTENTIAL TOTALAVG TEMPAVG PRESSURE GPRESSURE VOLUME PRESSAVG GPRESSAVG
ENERGY: 0 0.2775 2.1323 0.0000 0.0000 -10725.1535 1494.2167 0.0000 0.0000 1684.6795 -7543.8474 291.2796 -9228.5270 -7543.8474 291.2796 391.3255 474.5819 29550.5312 391.3255 474.5819
ENERGY: 300000 0.6318 2.0988 0.0000 0.0000 -10606.7026 1473.9829 0.0000 0.0000 1725.1052 -7404.8839 298.2692 -9129.9891 -7440.5318 298.9303 407.8550 487.8212 29797.6096 210.0277 289.9110
ENERGY: 600000 0.0126 0.6840 0.0000 0.0000 -10491.4315 1397.6268 0.0000 0.0000 1717.9835 -7375.1247 297.0378 -9093.1081 -7428.2165 299.7878 -224.2764 -170.6282 30223.7178 -174.3102 -107.2720
ENERGY: 900000 0.7236 1.7843 0.0000 0.0000 -10505.4731 1390.8767 0.0000 0.0000 1711.2252 -7400.8632 295.8693 -9112.0884 -7401.4251 300.4650 -150.4324 -99.7377 30172.1532 -131.8831 -64.3249
ENERGY: 1200000 0.4628 0.6113 0.0000 0.0000 -10477.5680 1368.8309 0.0000 0.0000 1692.5728 -7415.0901 292.6443 -9107.6629 -7407.7389 299.4212 -292.6158 -206.5807 29955.2604 -128.9907 -64.2074
ENERGY: 1500000 0.6594 0.4905 0.0000 0.0000 -10509.4248 1345.2512 0.0000 0.0000 1726.1854 -7436.8382 298.4559 -9163.0236 -7409.2122 299.1894 -723.2929 -641.5832 30116.7049 -153.2332 -88.4939
TCL: Running FEP window  12: Lambda1 0.5499999999999999 Lambda2 0.6    [dLambda 0.050000000000000044]
TCL: Setting parameter firsttimestep to 0
TCL: Setting parameter alchLambda to 0.5499999999999999
Info: NONBONDED TABLE R-SQUARED SPACING: 0.0625
Info: NONBONDED TABLE SIZE: 705 POINTS
TCL: Setting parameter alchLambda2 to 0.6
Info: NONBONDED TABLE R-SQUARED SPACING: 0.0625
Info: NONBONDED TABLE SIZE: 705 POINTS
TCL: Running for 1500000 steps
ETITLE: TS BOND ANGLE DIHED IMPRP ELECT VDW BOUNDARY MISC KINETIC TOTAL TEMP POTENTIAL TOTALAVG TEMPAVG PRESSURE GPRESSURE VOLUME PRESSAVG GPRESSAVG
ENERGY: 0 0.6594 0.4905 0.0000 0.0000 -10509.4093 1344.9190 0.0000 0.0000 1725.3515 -7437.9889 298.3118 -9163.3404 -7437.9889 298.3118 -711.5881 -639.2694 30116.7049 -711.5881 -639.2694
ENERGY: 300000 1.6191 1.8892 0.0000 0.0000 -10626.2407 1473.4900 0.0000 0.0000 1730.8310 -7418.4115 299.2591 -9149.2424 -7446.5067 299.3717 616.9444 684.8912 29491.1162 221.6415 304.9478
ENERGY: 600000 0.4666 0.7744 0.0000 0.0000 -10623.5053 1432.1440 0.0000 0.0000 1751.9865 -7438.1338 302.9169 -9190.1204 -7436.3307 301.7841 -7.4458 -14.5289 30024.9251 284.7015 355.0855
ENERGY: 900000 0.0327 1.0053 0.0000 0.0000 -10627.1512 1414.6049 0.0000 0.0000 1769.1376 -7442.3707 305.8823 -9211.5084 -7441.6754 301.5441 -145.1668 -14.9163 29670.1981 170.9777 248.0658
ENERGY: 1200000 1.3305 0.7227 0.0000 0.0000 -10494.9648 1377.1432 0.0000 0.0000 1774.5095 -7341.2589 306.8111 -9115.7685 -7439.6814 300.5936 -208.1081 -208.3302 30104.0209 112.0596 185.0224
ENERGY: 1500000 1.5182 1.6835 0.0000 0.0000 -10517.2358 1429.8704 0.0000 0.0000 1713.0677 -7371.0959 296.1879 -9084.1636 -7431.2326 299.9426 167.0520 262.6119 30013.8343 128.5386 198.4562
TCL: Running FEP window  13: Lambda1 0.6    Lambda2 0.65   [dLambda 0.050000000000000044]
TCL: Setting parameter firsttimestep to 0
TCL: Setting parameter alchLambda to 0.6
Info: NONBONDED TABLE R-SQUARED SPACING: 0.0625
Info: NONBONDED TABLE SIZE: 705 POINTS
TCL: Setting parameter alchLambda2 to 0.65
Info: NONBONDED TABLE R-SQUARED SPACING: 0.0625
Info: NONBONDED TABLE SIZE: 705 POINTS
TCL: Running for 1500000 steps
ETITLE: TS BOND ANGLE DIHED IMPRP ELECT VDW BOUNDARY MISC KINETIC TOTAL TEMP POTENTIAL TOTALAVG TEMPAVG PRESSURE GPRESSURE VOLUME PRESSAVG GPRESSAVG
ENERGY: 0 1.5182 1.6835 0.0000 0.0000 -10517.1597 1429.9178 0.0000 0.0000 1712.2042 -7371.8359 296.0386 -9084.0402 -7371.8359 296.0386 184.4906 266.1362 30013.8343 184.4906 266.1362
ENERGY: 300000 1.7221 3.2572 0.0000 0.0000 -10596.1016 1418.5939 0.0000 0.0000 1732.3460 -7440.1824 299.5211 -9172.5284 -7428.4582 295.2400 -195.6696 -110.5546 29806.1619 -59.7389 19.5478
ENERGY: 600000 0.1317 2.9642 0.0000 0.0000 -10520.9376 1451.1543 0.0000 0.0000 1761.4149 -7305.2724 304.5471 -9066.6873 -7406.9218 297.7805 645.1139 640.4013 29754.6555 -70.1284 -5.7422
ENERGY: 900000 0.1585 1.3649 0.0000 0.0000 -10551.7305 1387.6391 0.0000 0.0000 1750.3490 -7412.2190 302.6338 -9162.5680 -7413.7372 298.5477 -216.0673 -214.7291 29969.4873 -135.3944 -67.2656
ENERGY: 1200000 0.5202 3.0771 0.0000 0.0000 -10521.7713 1337.2334 0.0000 0.0000 1668.6921 -7512.2484 288.5154 -9180.9406 -7420.3622 298.1668 -703.6511 -658.5851 29796.5830 -192.6116 -130.5154
ENERGY: 1500000 0.7863 0.7046 0.0000 0.0000 -10475.3509 1306.2981 0.0000 0.0000 1741.8786 -7425.6834 301.1693 -9167.5620 -7415.6621 298.8461 -1050.9965 -983.3100 30147.8079 -249.3969 -192.3955
TCL: Running FEP window  14: Lambda1 0.65   Lambda2 0.7000000000000001 [dLambda 0.050000000000000044]
TCL: Setting parameter firsttimestep to 0
TCL: Setting parameter alchLambda to 0.65
Info: NONBONDED TABLE R-SQUARED SPACING: 0.0625
Info: NONBONDED TABLE SIZE: 705 POINTS
TCL: Setting parameter alchLambda2 to 0.7000000000000001
Info: NONBONDED TABLE R-SQUARED SPACING: 0.0625
Info: NONBONDED TABLE SIZE: 705 POINTS
TCL: Running for 1500000 steps
ETITLE: TS BOND ANGLE DIHED IMPRP ELECT VDW BOUNDARY MISC KINETIC TOTAL TEMP POTENTIAL TOTALAVG TEMPAVG PRESSURE GPRESSURE VOLUME PRESSAVG GPRESSAVG
ENERGY: 0 0.7863 0.7046 0.0000 0.0000 -10475.4961 1306.3890 0.0000 0.0000 1741.0092 -7426.6071 301.0190 -9167.6163 -7426.6071 301.0190 -1048.5773 -975.0208 30147.8079 -1048.5773 -975.0208
ENERGY: 300000 0.4074 1.4023 0.0000 0.0000 -10606.5757 1384.4338 0.0000 0.0000 1761.8637 -7458.4684 304.6247 -9220.3322 -7449.7330 299.9138 -659.5126 -631.0537 30007.7503 -176.0642 -131.1429
ENERGY: 600000 0.5729 2.5992 0.0000 0.0000 -10548.4801 1391.7267 0.0000 0.0000 1703.4494 -7450.1318 294.5249 -9153.5812 -7436.1402 298.3035 -214.2530 -146.3066 30009.4841 -237.2727 -192.1636
ENERGY: 900000 0.8589 1.3079 0.0000 0.0000 -10427.6739 1280.9917 0.0000 0.0000 1725.2965 -7419.2190 298.3022 -9144.5155 -7415.5496 299.4275 -1022.9919 -931.0397 30111.5776 -283.2153 -231.2706
ENERGY: 1200000 1.0851 1.8190 0.0000 0.0000 -10480.5194 1335.0386 0.0000 0.0000 1738.6542 -7403.9226 300.6118 -9142.5768 -7411.3636 299.5120 -637.1462 -552.5504 29902.4903 -193.8320 -137.1652
ENERGY: 1500000 0.3312 2.6725 0.0000 0.0000 -10613.6514 1481.4203 0.0000 0.0000 1737.4495 -7391.7778 300.4035 -9129.2274 -7396.5094 300.9793 1052.2334 1050.3297 29142.8572 -193.0819 -144.5097
TCL: Running FEP window  15: Lambda1 0.7000000000000001 Lambda2 0.7500000000000001 [dLambda 0.050000000000000044]
TCL: Setting parameter firsttimestep to 0
TCL: Setting parameter alchLambda to 0.7000000000000001
Info: NONBONDED TABLE R-SQUARED SPACING: 0.0625
Info: NONBONDED TABLE SIZE: 705 POINTS
TCL: Setting parameter alchLambda2 to 0.7500000000000001
Info: NONBONDED TABLE R-SQUARED SPACING: 0.0625
Info: NONBONDED TABLE SIZE: 705 POINTS
TCL: Running for 1500000 steps
ETITLE: TS BOND ANGLE DIHED IMPRP ELECT VDW BOUNDARY MISC KINETIC TOTAL TEMP POTENTIAL TOTALAVG TEMPAVG PRESSURE GPRESSURE VOLUME PRESSAVG GPRESSAVG
ENERGY: 0 0.3312 2.6725 0.0000 0.0000 -10613.6121 1481.2515 0.0000 0.0000 1736.5771 -7392.7799 300.2527 -9129.3570 -7392.7799 300.2527 974.5498 1053.9633 29142.8572 974.5498 1053.9633
ENERGY: 300000 0.0016 1.8851 0.0000 0.0000 -10614.9069 1410.1410 0.0000 0.0000 1683.8333 -7519.0460 291.1333 -9202.8793 -7454.4023 296.9293 3.7812 73.2715 29354.7581 38.8814 97.4374
ENERGY: 600000 0.0821 3.9473 0.0000 0.0000 -10663.5187 1514.1826 0.0000 0.0000 1743.8214 -7401.4854 301.5052 -9145.3067 -7432.5162 297.9698 674.9380 748.9108 29829.9894 -186.1452 -117.0625
ENERGY: 900000 0.3889 2.2273 0.0000 0.0000 -10549.3304 1412.6532 0.0000 0.0000 1704.9276 -7429.1334 294.7805 -9134.0610 -7424.9235 298.3586 -228.0045 -132.8224 30468.4715 -162.9576 -97.0980
ENERGY: 1200000 0.4774 1.1860 0.0000 0.0000 -10532.7982 1388.0304 0.0000 0.0000 1692.9506 -7450.1537 292.7097 -9143.1043 -7430.1643 297.9642 -251.6436 -260.8411 30115.3837 -191.4266 -129.3008
ENERGY: 1500000 0.1370 2.8501 0.0000 0.0000 -10539.8789 1429.0208 0.0000 0.0000 1761.8302 -7346.0408 304.6189 -9107.8710 -7425.9457 298.2488 -28.2724 93.3511 30234.3243 -163.0094 -97.9599
TCL: Running FEP window  16: Lambda1 0.7500000000000001 Lambda2 0.8000000000000002 [dLambda 0.050000000000000044]
TCL: Setting parameter firsttimestep to 0
TCL: Setting parameter alchLambda to 0.7500000000000001
Info: NONBONDED TABLE R-SQUARED SPACING: 0.0625
Info: NONBONDED TABLE SIZE: 705 POINTS
TCL: Setting parameter alchLambda2 to 0.8000000000000002
Info: NONBONDED TABLE R-SQUARED SPACING: 0.0625
Info: NONBONDED TABLE SIZE: 705 POINTS
TCL: Running for 1500000 steps
ETITLE: TS BOND ANGLE DIHED IMPRP ELECT VDW BOUNDARY MISC KINETIC TOTAL TEMP POTENTIAL TOTALAVG TEMPAVG PRESSURE GPRESSURE VOLUME PRESSAVG GPRESSAVG
ENERGY: 0 0.1370 2.8501 0.0000 0.0000 -10539.9937 1428.7932 0.0000 0.0000 1760.9433 -7347.2701 304.4656 -9108.2134 -7347.2701 304.4656 -7.7586 96.5967 30234.3243 -7.7586 96.5967
ENERGY: 300000 2.3934 1.1702 0.0000 0.0000 -10568.0571 1391.6608 0.0000 0.0000 1758.6361 -7414.1967 304.0666 -9172.8327 -7372.6736 299.7734 -257.7123 -209.4273 29780.9468 -222.7135 -142.3305
ENERGY: 600000 0.4150 2.0433 0.0000 0.0000 -10569.9019 1423.5038 0.0000 0.0000 1725.8469 -7418.0929 298.3974 -9143.9398 -7380.2922 299.5145 104.3984 95.0302 29891.3681 -138.2928 -78.8283
ENERGY: 900000 0.2048 3.6757 0.0000 0.0000 -10547.8550 1403.8933 0.0000 0.0000 1689.3756 -7450.7056 292.0916 -9140.0812 -7399.0562 299.1691 -381.5250 -318.8471 30188.2772 -194.0806 -138.5779
ENERGY: 1200000 1.0829 1.9929 0.0000 0.0000 -10594.4849 1421.9902 0.0000 0.0000 1737.3167 -7432.1021 300.3805 -9169.4189 -7402.7795 299.1206 -345.5945 -275.4604 30191.1625 -284.4301 -231.5200
ENERGY: 1500000 0.6145 0.5258 0.0000 0.0000 -10511.5136 1405.5095 0.0000 0.0000 1813.9897 -7290.8741 313.6372 -9104.8638 -7390.7210 300.1975 43.6031 152.0919 30111.9319 -236.3385 -177.8170
TCL: Running FEP window  17: Lambda1 0.8000000000000002 Lambda2 0.8500000000000002 [dLambda 0.050000000000000044]
TCL: Setting parameter firsttimestep to 0
TCL: Setting parameter alchLambda to 0.8000000000000002
Info: NONBONDED TABLE R-SQUARED SPACING: 0.0625
Info: NONBONDED TABLE SIZE: 705 POINTS
TCL: Setting parameter alchLambda2 to 0.8500000000000002
Info: NONBONDED TABLE R-SQUARED SPACING: 0.0625
Info: NONBONDED TABLE SIZE: 705 POINTS
TCL: Running for 1500000 steps
ETITLE: TS BOND ANGLE DIHED IMPRP ELECT VDW BOUNDARY MISC KINETIC TOTAL TEMP POTENTIAL TOTALAVG TEMPAVG PRESSURE GPRESSURE VOLUME PRESSAVG GPRESSAVG
ENERGY: 0 0.6145 0.5258 0.0000 0.0000 -10511.7184 1405.1941 0.0000 0.0000 1813.1519 -7292.2320 313.4924 -9105.3839 -7292.2320 313.4924 68.3235 151.1865 30111.9319 68.3235 151.1865
ENERGY: 300000 0.0826 1.6506 0.0000 0.0000 -10621.8073 1463.8261 0.0000 0.0000 1718.6884 -7437.5596 297.1597 -9156.2480 -7401.9140 301.9979 482.5089 493.3476 29732.3300 109.8336 166.6421
ENERGY: 600000 0.6277 1.7219 0.0000 0.0000 -10469.3442 1338.7073 0.0000 0.0000 1742.0955 -7386.1918 301.2068 -9128.2873 -7377.4039 300.5812 -853.8855 -812.2472 30513.7396 -210.3156 -157.9080
ENERGY: 900000 0.4973 2.5541 0.0000 0.0000 -10648.3087 1473.3873 0.0000 0.0000 1691.4987 -7480.3712 292.4586 -9171.8699 -7407.3100 298.9884 553.4031 564.6952 29506.7736 -17.2946 29.4638
ENERGY: 1200000 1.1496 2.5272 0.0000 0.0000 -10520.3879 1318.6925 0.0000 0.0000 1722.5093 -7475.5092 297.8203 -9198.0185 -7416.1232 298.9442 -743.6162 -701.1287 29697.3570 -141.8965 -88.2448
ENERGY: 1500000 0.0590 2.0103 0.0000 0.0000 -10415.3027 1353.1315 0.0000 0.0000 1787.6522 -7272.4496 309.0835 -9060.1018 -7414.2744 300.1897 -457.1933 -420.2422 30467.0662 -107.8459 -63.4942
TCL: Running FEP window  18: Lambda1 0.8500000000000002 Lambda2 0.9000000000000002 [dLambda 0.050000000000000044]
TCL: Setting parameter firsttimestep to 0
TCL: Setting parameter alchLambda to 0.8500000000000002
Info: NONBONDED TABLE R-SQUARED SPACING: 0.0625
Info: NONBONDED TABLE SIZE: 705 POINTS
TCL: Setting parameter alchLambda2 to 0.9000000000000002
Info: NONBONDED TABLE R-SQUARED SPACING: 0.0625
Info: NONBONDED TABLE SIZE: 705 POINTS
TCL: Running for 1500000 steps
ETITLE: TS BOND ANGLE DIHED IMPRP ELECT VDW BOUNDARY MISC KINETIC TOTAL TEMP POTENTIAL TOTALAVG TEMPAVG PRESSURE GPRESSURE VOLUME PRESSAVG GPRESSAVG
ENERGY: 0 0.0590 2.0103 0.0000 0.0000 -10415.5020 1353.1984 0.0000 0.0000 1786.7605 -7273.4738 308.9293 -9060.2342 -7273.4738 308.9293 -491.0475 -414.4486 30467.0662 -491.0475 -414.4486
ENERGY: 300000 0.3761 0.3275 0.0000 0.0000 -10669.6771 1434.1885 0.0000 0.0000 1735.6194 -7499.1657 300.0871 -9234.7851 -7420.0427 300.7609 26.0151 116.8606 29758.2771 -260.5686 -181.8860
ENERGY: 600000 0.0425 1.7064 0.0000 0.0000 -10663.9967 1510.6656 0.0000 0.0000 1674.6024 -7476.9799 289.5373 -9151.5822 -7403.7660 299.8164 825.7722 814.6355 29862.4575 -107.4352 -32.3990
ENERGY: 900000 0.0362 4.6804 0.0000 0.0000 -10500.9153 1379.1759 0.0000 0.0000 1742.4418 -7374.5809 301.2667 -9117.0228 -7407.8907 299.8500 -150.6123 -32.3534 29881.8289 -117.0590 -35.6284
ENERGY: 1200000 0.8514 2.1017 0.0000 0.0000 -10622.4852 1452.0363 0.0000 0.0000 1707.1561 -7460.3397 295.1658 -9167.4958 -7411.3487 299.4714 204.5550 268.3663 29851.1321 -146.8434 -71.8617
ENERGY: 1500000 0.2445 0.6815 0.0000 0.0000 -10590.9179 1425.9178 0.0000 0.0000 1740.1750 -7423.8991 300.8747 -9164.0741 -7408.3972 299.7744 -94.7121 71.1119 30084.0611 -173.0305 -90.9184
TCL: Running FEP window  19: Lambda1 0.9000000000000002 Lambda2 0.9500000000000003 [dLambda 0.050000000000000044]
TCL: Setting parameter firsttimestep to 0
TCL: Setting parameter alchLambda to 0.9000000000000002
Info: NONBONDED TABLE R-SQUARED SPACING: 0.0625
Info: NONBONDED TABLE SIZE: 705 POINTS
TCL: Setting parameter alchLambda2 to 0.9500000000000003
Info: NONBONDED TABLE R-SQUARED SPACING: 0.0625
Info: NONBONDED TABLE SIZE: 705 POINTS
TCL: Running for 1500000 steps
ETITLE: TS BOND ANGLE DIHED IMPRP ELECT VDW BOUNDARY MISC KINETIC TOTAL TEMP POTENTIAL TOTALAVG TEMPAVG PRESSURE GPRESSURE VOLUME PRESSAVG GPRESSAVG
ENERGY: 0 0.2445 0.6815 0.0000 0.0000 -10591.1768 1425.6718 0.0000 0.0000 1739.2942 -7425.2848 300.7224 -9164.5790 -7425.2848 300.7224 -19.0930 74.0123 30084.0611 -19.0930 74.0123
ENERGY: 300000 0.1149 2.5799 0.0000 0.0000 -10639.8111 1534.6770 0.0000 0.0000 1712.1402 -7390.2992 296.0275 -9102.4394 -7430.0549 298.3747 950.9685 1020.2016 30141.3964 513.0056 600.5944
ENERGY: 600000 0.5583 2.1225 0.0000 0.0000 -10593.0909 1393.7725 0.0000 0.0000 1765.4989 -7431.1387 305.2532 -9196.6376 -7432.6544 299.2163 -77.2394 -48.6997 29653.6895 100.1913 166.5635
ENERGY: 900000 0.9439 0.6476 0.0000 0.0000 -10561.2789 1381.6505 0.0000 0.0000 1665.3518 -7512.6851 287.9379 -9178.0369 -7429.6620 298.7622 -351.8906 -283.9972 29843.7561 -10.6821 62.6045
ENERGY: 1200000 0.4441 0.6820 0.0000 0.0000 -10644.0293 1461.4694 0.0000 0.0000 1732.8829 -7448.5510 299.6139 -9181.4339 -7409.5531 300.8124 293.1443 388.7773 29679.3818 -20.0146 55.5674
ENERGY: 1500000 0.9864 2.1658 0.0000 0.0000 -10647.3626 1457.9727 0.0000 0.0000 1757.5654 -7428.6723 303.8815 -9186.2377 -7403.7201 302.1437 387.3702 402.2214 29711.0196 51.7229 122.3975
TCL: Running FEP window  20: Lambda1 0.9500000000000003 Lambda2 1.0    [dLambda 0.04999999999999971]
TCL: Setting parameter firsttimestep to 0
TCL: Setting parameter alchLambda to 0.9500000000000003
Info: NONBONDED TABLE R-SQUARED SPACING: 0.0625
Info: NONBONDED TABLE SIZE: 705 POINTS
TCL: Setting parameter alchLambda2 to 1.0
Info: NONBONDED TABLE R-SQUARED SPACING: 0.0625
Info: NONBONDED TABLE SIZE: 705 POINTS
TCL: Running for 1500000 steps
ETITLE: TS BOND ANGLE DIHED IMPRP ELECT VDW BOUNDARY MISC KINETIC TOTAL TEMP POTENTIAL TOTALAVG TEMPAVG PRESSURE GPRESSURE VOLUME PRESSAVG GPRESSAVG
ENERGY: 0 0.9864 2.1658 0.0000 0.0000 -10647.7687 1457.7111 0.0000 0.0000 1756.6968 -7430.2086 303.7313 -9186.9054 -7430.2086 303.7313 325.1193 405.2464 29711.0196 325.1193 405.2464
ENERGY: 300000 0.3965 2.4637 0.0000 0.0000 -10726.1182 1519.0863 0.0000 0.0000 1751.9915 -7452.1802 302.9178 -9204.1716 -7415.2970 300.6138 451.7701 464.6543 30124.9359 -87.1519 -6.0823
ENERGY: 600000 0.0804 0.9774 0.0000 0.0000 -10548.5429 1447.6164 0.0000 0.0000 1760.2153 -7339.6535 304.3397 -9099.8688 -7418.7080 299.7918 230.5392 312.9225 30065.3970 49.5199 133.7701
ENERGY: 900000 0.3073 1.2908 0.0000 0.0000 -10535.4950 1397.0757 0.0000 0.0000 1659.3603 -7477.4608 286.9019 -9136.8211 -7423.0367 299.1032 -269.8145 -213.3604 30151.1493 100.8643 175.2321
ENERGY: 1200000 0.3434 1.3978 0.0000 0.0000 -10587.2222 1436.5537 0.0000 0.0000 1689.3979 -7459.5294 292.0954 -9148.9273 -7413.3283 299.0666 87.4904 76.7725 30212.5869 31.2306 103.3044
ENERGY: 1500000 1.5374 2.6576 0.0000 0.0000 -10480.2898 1404.5174 0.0000 0.0000 1741.0770 -7330.5003 301.0307 -9071.5773 -7412.1957 299.0470 45.9823 38.6415 30170.9653 26.6543 89.8312
TCL: Exiting due to exit command.
