Info: SIMULATION PARAMETERS:
Info: TIMESTEP               2
Info: NUMBER OF STEPS        0
Info: STEPS PER CYCLE        10
Info: PERIODIC CELL BASIS 1  36.005 0 0
Info: PERIODIC CELL BASIS 2  0 34.1 0
Info: PERIODIC CELL BASIS 3  0 0 36.199
Info: PERIODIC CELL CENTER   0 0 0
Info: WRAPPING WATERS AROUND PERIODIC BOUNDARIES ON OUTPUT.
Info: WRAPPING ALL CLUSTERS AROUND PERIODIC BOUNDARIES ON OUTPUT.
Info: FIRST LDB TIMESTEP     50
Info: LAST LDB TIMESTEP     -1
Info: HOM BACKGROUND SCALING 1
Info: PME BACKGROUND SCALING 1
Info: MIN ATOMS PER PATCH    40
Info: EMPTY PATCH LOAD       40 ATOMS
Info: INITIAL TEMPERATURE    300
Info: CENTER OF MASS MOVING INITIALLY? NO
Info: DIELECTRIC             1
Info: EXCLUDE                SCALED ONE-FOUR
Info: 1-4 ELECTROSTATICS SCALED BY 0.833333
Info: MODIFIED 1-4 VDW PARAMETERS WILL BE USED
Info: DCD FILENAME           mobley_6416775_equil.dcd
Info: DCD FREQUENCY          100000
Info: DCD FIRST STEP         100000
Info: DCD FILE WILL CONTAIN UNIT CELL DATA
Info: XST FILENAME           mobley_6416775_equil.xst
Info: XST FREQUENCY          100000
Info: NO VELOCITY DCD OUTPUT
Info: NO FORCE DCD OUTPUT
Info: OUTPUT FILENAME        mobley_6416775_equil
Info: BINARY OUTPUT FILES WILL BE USED
Info: RESTART FILENAME       mobley_6416775_equil.restart
Info: RESTART FREQUENCY      100000
Info: BINARY RESTART FILES WILL BE USED
Info: CUTOFF                 9
Info: PAIRLIST DISTANCE      11
Info: PAIRLIST SHRINK RATE   0.01
Info: PAIRLIST GROW RATE     0.01
Info: PAIRLIST TRIGGER       0.3
Info: PAIRLISTS PER CYCLE    2
Info: PAIRLISTS ENABLED
Info: MARGIN                 8
Info: HYDROGEN GROUP CUTOFF  2.5
Info: PATCH DIMENSION        21.5
Info: ENERGY OUTPUT STEPS    100000
Info: ENERGY EVALUATION STEPS    100000
Info: OUTPUT ENERGY PRECISION 4
Info: CROSSTERM ENERGY INCLUDED IN DIHEDRAL
Info: TIMING OUTPUT STEPS    1000000
Info: PRESSURE OUTPUT STEPS  100000
Info: LANGEVIN DYNAMICS ACTIVE
Info: LANGEVIN TEMPERATURE   30
Info: LANGEVIN USING BBK INTEGRATOR
Info: LANGEVIN DAMPING COEFFICIENT IS 1 INVERSE PS
Info: LANGEVIN DYNAMICS APPLIED TO HYDROGENS
Info: LANGEVIN PISTON PRESSURE CONTROL ACTIVE
Info:        TARGET PRESSURE IS 1.01325 BAR
Info:     OSCILLATION PERIOD IS 50 FS
Info:             DECAY TIME IS 25 FS
Info:     PISTON TEMPERATURE IS 300 K
Info:       PRESSURE CONTROL IS GROUP-BASED
Info:    INITIAL STRAIN RATE IS 0 0 0
Info:       CELL FLUCTUATION IS ISOTROPIC
Info: PARTICLE MESH EWALD (PME) ACTIVE
Info: PME TOLERANCE               1e-06
Info: PME EWALD COEFFICIENT       0.348832
Info: PME INTERPOLATION ORDER     4
Info: PME GRID DIMENSIONS         40 36 40
Info: PME MAXIMUM GRID SPACING    1
Info: FULL ELECTROSTATIC EVALUATION FREQUENCY      2
Info: USING VERLET I (r-RESPA) MTS SCHEME.
Info: C1 SPLITTING OF LONG RANGE ELECTROSTATICS
Info: PLACING ATOMS IN PATCHES BY HYDROGEN GROUPS
Info: RIGID BONDS TO HYDROGEN : ALL
Info:         ERROR TOLERANCE : 1e-08
Info:          MAX ITERATIONS : 100
Info: RIGID WATER USING SETTLE ALGORITHM
Info: RANDOM NUMBER SEED     1743246492
Info: USE HYDROGEN BONDS?    NO
Info: Using AMBER format force field!
Info: AMBER PARM FILE        mobley_6416775.prmtop
Info: COORDINATE PDB         mobley_6416775.pdb
Info: Exclusions will be read from PARM file!
Info: SCNB (VDW SCALING)     2
Info: USING ARITHMETIC MEAN TO COMBINE L-J SIGMA PARAMETERS
Info: BINARY COORDINATES     mobley_6416775_min.coor
Info: SUMMARY OF PARAMETERS:
Info: 4 BONDS
Info: 3 ANGLES
Info:   3 HARMONIC
Info:   0 COSINE-BASED
Info: 5 DIHEDRAL
Info: 0 IMPROPER
Info: 0 CROSSTERM
Info: 0 VDW
Info: 10 VDW_PAIRS
Info: 0 NBTHOLE_PAIRS
Info: STRUCTURE SUMMARY:
Info: 2931 ATOMS
Info: 2931 BONDS
Info: 48 ANGLES
Info: 92 DIHEDRALS
Info: 0 IMPROPERS
Info: 0 CROSSTERMS
Info: 3046 EXCLUSIONS
Info: 2923 RIGID BONDS
Info: 5870 DEGREES OF FREEDOM
Info: 977 HYDROGEN GROUPS
Info: 4 ATOMS IN LARGEST HYDROGEN GROUP
Info: 977 MIGRATION GROUPS
Info: 4 ATOMS IN LARGEST MIGRATION GROUP
Info: TOTAL MASS = 17569.7 amu
Info: TOTAL CHARGE = 4.47035e-08 e
Info: MASS DENSITY = 0.656463 g/cm^3
Info: ATOM DENSITY = 0.0659481 atoms/A^3
Info: ADDED 0 IMPLICIT EXCLUSIONS
Info: NONBONDED TABLE R-SQUARED SPACING: 0.0625
Info: NONBONDED TABLE SIZE: 705 POINTS
Info: REMOVING COM VELOCITY 0.160923 0.0423763 0.0769281
TCL: Running for 100000 steps
ETITLE: TS BOND ANGLE DIHED IMPRP ELECT VDW BOUNDARY MISC KINETIC TOTAL TEMP POTENTIAL TOTAL3 TEMPAVG PRESSURE GPRESSURE VOLUME PRESSAVG GPRESSAVG
ENERGY: 0 0.1070 4.5005 11.0861 0.0000 -13522.2888 2407.2015 0.0000 0.0000 1837.0705 -9262.3234 314.9765 -11099.3939 -9261.9585 314.9765 667.9465 702.7918 44444.0643 667.9465 702.7918
ENERGY: 100000 0.2014 5.6573 11.1184 0.0000 -14041.0757 2414.8900 0.0000 0.0000 175.7062 -11433.5024 30.1259 -11609.2087 -11432.9455 31.0479 -190.2775 -166.2006 28358.6345 4.3168 4.3204
TCL: Running 100000 steps at 60 kelvin.
TCL: Setting parameter langevinTemp to 60
TCL: Running for 100000 steps
ETITLE: TS BOND ANGLE DIHED IMPRP ELECT VDW BOUNDARY MISC KINETIC TOTAL TEMP POTENTIAL TOTAL3 TEMPAVG PRESSURE GPRESSURE VOLUME PRESSAVG GPRESSAVG
ENERGY: 100000 0.2014 5.6573 11.1184 0.0000 -14041.0757 2414.8900 0.0000 0.0000 175.6206 -11433.5881 30.1112 -11609.2087 -11433.1896 30.1112 -222.4917 -166.1531 28358.6345 -222.4917 -166.1531
ENERGY: 200000 0.4746 7.6181 10.6411 0.0000 -14028.4872 2438.4191 0.0000 0.0000 341.7408 -11229.5935 58.5935 -11571.3343 -11228.7954 60.0701 297.0955 374.1265 28043.0795 4.6620 4.6246
TCL: Running 100000 steps at 90 kelvin.
TCL: Setting parameter langevinTemp to 90
TCL: Running for 100000 steps
ETITLE: TS BOND ANGLE DIHED IMPRP ELECT VDW BOUNDARY MISC KINETIC TOTAL TEMP POTENTIAL TOTAL3 TEMPAVG PRESSURE GPRESSURE VOLUME PRESSAVG GPRESSAVG
ENERGY: 200000 0.4746 7.6181 10.6411 0.0000 -14028.4872 2438.4191 0.0000 0.0000 341.5723 -11229.7620 58.5646 -11571.3343 -11229.1089 58.5646 324.3215 374.2968 28043.0795 324.3215 374.2968
ENERGY: 300000 0.1932 7.1429 11.0746 0.0000 -13772.0107 2296.8547 0.0000 0.0000 521.0637 -10935.6815 89.3394 -11456.7452 -10934.4202 90.0734 -529.3403 -498.9492 28424.3392 5.5583 5.5269
TCL: Running 100000 steps at 120 kelvin.
TCL: Setting parameter langevinTemp to 120
TCL: Running for 100000 steps
ETITLE: TS BOND ANGLE DIHED IMPRP ELECT VDW BOUNDARY MISC KINETIC TOTAL TEMP POTENTIAL TOTAL3 TEMPAVG PRESSURE GPRESSURE VOLUME PRESSAVG GPRESSAVG
ENERGY: 300000 0.1932 7.1429 11.0746 0.0000 -13772.0107 2296.8547 0.0000 0.0000 520.8013 -10935.9439 89.2944 -11456.7452 -10934.5656 89.2944 -561.9833 -499.5704 28424.3392 -561.9833 -499.5704
ENERGY: 400000 0.9096 7.0466 12.5046 0.0000 -13760.9479 2421.6678 0.0000 0.0000 721.6191 -10597.2002 123.7258 -11318.8193 -10595.6142 119.9347 952.5070 1007.5991 28305.8725 3.5792 3.5253
TCL: Running 100000 steps at 150 kelvin.
TCL: Setting parameter langevinTemp to 150
TCL: Running for 100000 steps
ETITLE: TS BOND ANGLE DIHED IMPRP ELECT VDW BOUNDARY MISC KINETIC TOTAL TEMP POTENTIAL TOTAL3 TEMPAVG PRESSURE GPRESSURE VOLUME PRESSAVG GPRESSAVG
ENERGY: 400000 0.9096 7.0466 12.5046 0.0000 -13760.9479 2421.6678 0.0000 0.0000 721.2654 -10597.5539 123.6652 -11318.8193 -10596.3122 123.6652 960.6553 1007.6978 28305.8725 960.6553 1007.6978
ENERGY: 500000 3.3761 9.2590 12.5685 0.0000 -13303.0891 2141.6680 0.0000 0.0000 849.4012 -10286.8162 145.6348 -11136.2175 -10284.7155 150.1558 -924.1254 -857.8238 28719.7830 4.2811 4.2336
TCL: Running 100000 steps at 180 kelvin.
TCL: Setting parameter langevinTemp to 180
TCL: Running for 100000 steps
ETITLE: TS BOND ANGLE DIHED IMPRP ELECT VDW BOUNDARY MISC KINETIC TOTAL TEMP POTENTIAL TOTAL3 TEMPAVG PRESSURE GPRESSURE VOLUME PRESSAVG GPRESSAVG
ENERGY: 500000 3.3761 9.2590 12.5685 0.0000 -13303.0891 2141.6680 0.0000 0.0000 848.9751 -10287.2424 145.5617 -11136.2175 -10285.3998 145.5617 -918.8105 -857.6614 28719.7830 -918.8105 -857.6614
ENERGY: 600000 0.8668 10.1862 12.2495 0.0000 -12991.4342 2143.3556 0.0000 0.0000 1042.6974 -9782.0788 178.7766 -10824.7762 -9780.6938 179.9473 504.0757 644.9702 28552.3842 4.6452 4.5538
TCL: Running 100000 steps at 210 kelvin.
TCL: Setting parameter langevinTemp to 210
TCL: Running for 100000 steps
ETITLE: TS BOND ANGLE DIHED IMPRP ELECT VDW BOUNDARY MISC KINETIC TOTAL TEMP POTENTIAL TOTAL3 TEMPAVG PRESSURE GPRESSURE VOLUME PRESSAVG GPRESSAVG
ENERGY: 600000 0.8668 10.1862 12.2495 0.0000 -12991.4342 2143.3556 0.0000 0.0000 1042.1795 -9782.5967 178.6878 -10824.7762 -9781.0761 178.6878 565.4472 644.5205 28552.3842 565.4472 644.5205
ENERGY: 700000 3.1150 12.4202 12.9553 0.0000 -12335.5174 1903.1537 0.0000 0.0000 1226.7149 -9177.1583 210.3274 -10403.8733 -9175.8869 210.2918 85.8295 154.4271 28526.4104 3.8197 3.8560
TCL: Running 100000 steps at 240 kelvin.
TCL: Setting parameter langevinTemp to 240
TCL: Running for 100000 steps
ETITLE: TS BOND ANGLE DIHED IMPRP ELECT VDW BOUNDARY MISC KINETIC TOTAL TEMP POTENTIAL TOTAL3 TEMPAVG PRESSURE GPRESSURE VOLUME PRESSAVG GPRESSAVG
ENERGY: 700000 3.1150 12.4202 12.9553 0.0000 -12335.5174 1903.1537 0.0000 0.0000 1226.0885 -9177.7848 210.2200 -10403.8733 -9175.6479 210.2200 85.1973 151.3551 28526.4104 85.1973 151.3551
ENERGY: 800000 1.8505 12.4121 11.0278 0.0000 -11772.4048 1746.9085 0.0000 0.0000 1415.0732 -8585.1327 242.6226 -10000.2059 -8580.4380 240.0447 296.9182 396.8255 28769.8072 4.2543 4.1562
TCL: Running 100000 steps at 270 kelvin.
TCL: Setting parameter langevinTemp to 270
TCL: Running for 100000 steps
ETITLE: TS BOND ANGLE DIHED IMPRP ELECT VDW BOUNDARY MISC KINETIC TOTAL TEMP POTENTIAL TOTAL3 TEMPAVG PRESSURE GPRESSURE VOLUME PRESSAVG GPRESSAVG
ENERGY: 800000 1.8505 12.4121 11.0278 0.0000 -11772.4048 1746.9085 0.0000 0.0000 1414.4055 -8585.8004 242.5081 -10000.2059 -8583.3793 242.5081 299.4956 399.2257 28769.8072 299.4956 399.2257
ENERGY: 900000 2.1064 12.5521 12.8329 0.0000 -11062.8816 1436.4282 0.0000 0.0000 1538.5584 -8060.4036 263.7948 -9598.9620 -8057.3012 269.6069 -1322.0683 -1161.7744 29597.8666 2.3092 2.2600
TCL: Running 1000000 steps at 300 kelvin.
TCL: Setting parameter langevinTemp to 300
TCL: Running for 1000000 steps
ETITLE: TS BOND ANGLE DIHED IMPRP ELECT VDW BOUNDARY MISC KINETIC TOTAL TEMP POTENTIAL TOTAL3 TEMPAVG PRESSURE GPRESSURE VOLUME PRESSAVG GPRESSAVG
ENERGY: 900000 2.1064 12.5521 12.8329 0.0000 -11062.8816 1436.4282 0.0000 0.0000 1537.7653 -8061.1968 263.6588 -9598.9620 -8058.2472 263.6588 -1250.5276 -1163.9725 29597.8666 -1250.5276 -1163.9725
ENERGY: 1100000 3.1979 13.8140 10.1898 0.0000 -10564.7428 1403.0871 0.0000 0.0000 1701.7969 -7432.6571 291.7830 -9134.4541 -7429.7410 299.9207 -47.2332 84.0914 29589.5636 3.8043 3.6221
ENERGY: 1300000 1.4275 18.9983 13.9352 0.0000 -10454.5018 1339.2066 0.0000 0.0000 1743.2668 -7337.6674 298.8933 -9080.9342 -7334.7833 300.5647 -547.0143 -438.1874 30196.2200 3.0818 3.0764
ENERGY: 1500000 3.0028 20.2443 13.3973 0.0000 -10566.5718 1412.4094 0.0000 0.0000 1755.7231 -7361.7947 301.0290 -9117.5179 -7359.0231 300.6255 -108.9497 -67.8263 30488.4743 4.8938 5.1510
ENERGY: 1700000 1.3170 18.0612 12.4131 0.0000 -10421.1934 1321.4659 0.0000 0.0000 1807.2025 -7260.7337 309.8554 -9067.9362 -7253.7873 300.6763 -712.9282 -591.0842 30388.2870 3.3932 3.3910
ENERGY: 1900000 3.8956 13.6382 13.3187 0.0000 -10607.9875 1412.5250 0.0000 0.0000 1792.2509 -7372.3591 307.2919 -9164.6100 -7368.1691 300.0215 -288.0170 -265.5785 30699.3004 3.2309 3.2000
TCL: Exiting due to exit command.
