Info: SIMULATION PARAMETERS:
Info: TIMESTEP               2
Info: NUMBER OF STEPS        0
Info: STEPS PER CYCLE        10
Info: PERIODIC CELL BASIS 1  34.207 0 0
Info: PERIODIC CELL BASIS 2  0 33.542 0
Info: PERIODIC CELL BASIS 3  0 0 37.638
Info: PERIODIC CELL CENTER   0 0 0
Info: WRAPPING WATERS AROUND PERIODIC BOUNDARIES ON OUTPUT.
Info: WRAPPING ALL CLUSTERS AROUND PERIODIC BOUNDARIES ON OUTPUT.
Info: FIRST LDB TIMESTEP     50
Info: LAST LDB TIMESTEP     -1
Info: HOM BACKGROUND SCALING 1
Info: PME BACKGROUND SCALING 1
Info: MIN ATOMS PER PATCH    40
Info: EMPTY PATCH LOAD       40 ATOMS
Info: INITIAL TEMPERATURE    300
Info: CENTER OF MASS MOVING INITIALLY? NO
Info: DIELECTRIC             1
Info: EXCLUDE                SCALED ONE-FOUR
Info: 1-4 ELECTROSTATICS SCALED BY 0.833333
Info: MODIFIED 1-4 VDW PARAMETERS WILL BE USED
Info: DCD FILENAME           mobley_2328633_equil.dcd
Info: DCD FREQUENCY          100000
Info: DCD FIRST STEP         100000
Info: DCD FILE WILL CONTAIN UNIT CELL DATA
Info: XST FILENAME           mobley_2328633_equil.xst
Info: XST FREQUENCY          100000
Info: NO VELOCITY DCD OUTPUT
Info: NO FORCE DCD OUTPUT
Info: OUTPUT FILENAME        mobley_2328633_equil
Info: BINARY OUTPUT FILES WILL BE USED
Info: RESTART FILENAME       mobley_2328633_equil.restart
Info: RESTART FREQUENCY      100000
Info: BINARY RESTART FILES WILL BE USED
Info: CUTOFF                 9
Info: PAIRLIST DISTANCE      11
Info: PAIRLIST SHRINK RATE   0.01
Info: PAIRLIST GROW RATE     0.01
Info: PAIRLIST TRIGGER       0.3
Info: PAIRLISTS PER CYCLE    2
Info: PAIRLISTS ENABLED
Info: MARGIN                 8
Info: HYDROGEN GROUP CUTOFF  2.5
Info: PATCH DIMENSION        21.5
Info: ENERGY OUTPUT STEPS    100000
Info: ENERGY EVALUATION STEPS    100000
Info: OUTPUT ENERGY PRECISION 4
Info: CROSSTERM ENERGY INCLUDED IN DIHEDRAL
Info: TIMING OUTPUT STEPS    1000000
Info: PRESSURE OUTPUT STEPS  100000
Info: LANGEVIN DYNAMICS ACTIVE
Info: LANGEVIN TEMPERATURE   30
Info: LANGEVIN USING BBK INTEGRATOR
Info: LANGEVIN DAMPING COEFFICIENT IS 1 INVERSE PS
Info: LANGEVIN DYNAMICS APPLIED TO HYDROGENS
Info: LANGEVIN PISTON PRESSURE CONTROL ACTIVE
Info:        TARGET PRESSURE IS 1.01325 BAR
Info:     OSCILLATION PERIOD IS 50 FS
Info:             DECAY TIME IS 25 FS
Info:     PISTON TEMPERATURE IS 300 K
Info:       PRESSURE CONTROL IS GROUP-BASED
Info:    INITIAL STRAIN RATE IS 0 0 0
Info:       CELL FLUCTUATION IS ISOTROPIC
Info: PARTICLE MESH EWALD (PME) ACTIVE
Info: PME TOLERANCE               1e-06
Info: PME EWALD COEFFICIENT       0.348832
Info: PME INTERPOLATION ORDER     4
Info: PME GRID DIMENSIONS         36 36 40
Info: PME MAXIMUM GRID SPACING    1
Info: FULL ELECTROSTATIC EVALUATION FREQUENCY      2
Info: USING VERLET I (r-RESPA) MTS SCHEME.
Info: C1 SPLITTING OF LONG RANGE ELECTROSTATICS
Info: PLACING ATOMS IN PATCHES BY HYDROGEN GROUPS
Info: RIGID BONDS TO HYDROGEN : ALL
Info:         ERROR TOLERANCE : 1e-08
Info:          MAX ITERATIONS : 100
Info: RIGID WATER USING SETTLE ALGORITHM
Info: RANDOM NUMBER SEED     1743258137
Info: USE HYDROGEN BONDS?    NO
Info: Using AMBER format force field!
Info: AMBER PARM FILE        mobley_2328633.prmtop
Info: COORDINATE PDB         mobley_2328633.pdb
Info: Exclusions will be read from PARM file!
Info: SCNB (VDW SCALING)     2
Info: USING ARITHMETIC MEAN TO COMBINE L-J SIGMA PARAMETERS
Info: BINARY COORDINATES     mobley_2328633_min.coor
Info: SUMMARY OF PARAMETERS:
Info: 4 BONDS
Info: 3 ANGLES
Info:   3 HARMONIC
Info:   0 COSINE-BASED
Info: 5 DIHEDRAL
Info: 0 IMPROPER
Info: 0 CROSSTERM
Info: 0 VDW
Info: 10 VDW_PAIRS
Info: 0 NBTHOLE_PAIRS
Info: STRUCTURE SUMMARY:
Info: 2964 ATOMS
Info: 2964 BONDS
Info: 60 ANGLES
Info: 114 DIHEDRALS
Info: 0 IMPROPERS
Info: 0 CROSSTERMS
Info: 3109 EXCLUSIONS
Info: 2954 RIGID BONDS
Info: 5938 DEGREES OF FREEDOM
Info: 988 HYDROGEN GROUPS
Info: 4 ATOMS IN LARGEST HYDROGEN GROUP
Info: 988 MIGRATION GROUPS
Info: 4 ATOMS IN LARGEST MIGRATION GROUP
Info: TOTAL MASS = 17759.9 amu
Info: TOTAL CHARGE = -9.99831e-05 e
Info: MASS DENSITY = 0.682919 g/cm^3
Info: ATOM DENSITY = 0.0686353 atoms/A^3
Info: ADDED 0 IMPLICIT EXCLUSIONS
Info: NONBONDED TABLE R-SQUARED SPACING: 0.0625
Info: NONBONDED TABLE SIZE: 705 POINTS
Info: REMOVING COM VELOCITY 0.13102 0.0251499 -0.194703
TCL: Running for 100000 steps
ETITLE: TS BOND ANGLE DIHED IMPRP ELECT VDW BOUNDARY MISC KINETIC TOTAL TEMP POTENTIAL TOTAL3 TEMPAVG PRESSURE GPRESSURE VOLUME PRESSAVG GPRESSAVG
ENERGY: 0 0.1333 4.5571 11.9183 0.0000 -13610.8734 2372.2691 0.0000 0.0000 1729.8094 -9492.1863 293.1895 -11221.9957 -9491.8634 293.1895 198.4818 240.3282 43184.7570 198.4818 240.3282
ENERGY: 100000 0.3315 6.0551 12.1643 0.0000 -14017.9240 2325.8806 0.0000 0.0000 181.6638 -11491.8286 30.7906 -11673.4924 -11491.1118 30.9291 -1274.1450 -1227.4014 29853.7138 2.5364 2.5396
TCL: Running 100000 steps at 60 kelvin.
TCL: Setting parameter langevinTemp to 60
TCL: Running for 100000 steps
ETITLE: TS BOND ANGLE DIHED IMPRP ELECT VDW BOUNDARY MISC KINETIC TOTAL TEMP POTENTIAL TOTAL3 TEMPAVG PRESSURE GPRESSURE VOLUME PRESSAVG GPRESSAVG
ENERGY: 100000 0.3315 6.0551 12.1643 0.0000 -14017.9240 2325.8806 0.0000 0.0000 181.5778 -11491.9147 30.7760 -11673.4924 -11491.3584 30.7760 -1270.5376 -1227.5047 29853.7138 -1270.5376 -1227.5047
ENERGY: 200000 0.5666 8.8219 11.0864 0.0000 -14096.7713 2441.2605 0.0000 0.0000 350.2242 -11284.8119 59.3603 -11635.0360 -11284.1014 60.0440 36.8282 46.6110 29236.5247 3.7011 3.6274
TCL: Running 100000 steps at 90 kelvin.
TCL: Setting parameter langevinTemp to 90
TCL: Running for 100000 steps
ETITLE: TS BOND ANGLE DIHED IMPRP ELECT VDW BOUNDARY MISC KINETIC TOTAL TEMP POTENTIAL TOTAL3 TEMPAVG PRESSURE GPRESSURE VOLUME PRESSAVG GPRESSAVG
ENERGY: 200000 0.5666 8.8219 11.0864 0.0000 -14096.7713 2441.2605 0.0000 0.0000 350.0436 -11284.9924 59.3297 -11635.0360 -11284.3689 59.3297 1.6734 46.6861 29236.5247 1.6734 46.6861
ENERGY: 300000 1.2432 7.4121 13.9009 0.0000 -13905.8822 2348.5611 0.0000 0.0000 514.9590 -11019.8058 87.2816 -11534.7648 -11017.9196 90.1025 -452.9733 -396.3297 29336.7225 4.9159 4.9102
TCL: Running 100000 steps at 120 kelvin.
TCL: Setting parameter langevinTemp to 120
TCL: Running for 100000 steps
ETITLE: TS BOND ANGLE DIHED IMPRP ELECT VDW BOUNDARY MISC KINETIC TOTAL TEMP POTENTIAL TOTAL3 TEMPAVG PRESSURE GPRESSURE VOLUME PRESSAVG GPRESSAVG
ENERGY: 300000 1.2432 7.4121 13.9009 0.0000 -13905.8822 2348.5611 0.0000 0.0000 514.6880 -11020.0768 87.2357 -11534.7648 -11018.9412 87.2357 -455.8583 -395.6810 29336.7225 -455.8583 -395.6810
ENERGY: 400000 1.8803 11.2980 14.2000 0.0000 -13771.4441 2323.6964 0.0000 0.0000 719.9093 -10700.4601 122.0191 -11420.3694 -10698.0299 119.7714 -135.1613 -53.4032 29254.8704 4.3661 4.4029
TCL: Running 100000 steps at 150 kelvin.
TCL: Setting parameter langevinTemp to 150
TCL: Running for 100000 steps
ETITLE: TS BOND ANGLE DIHED IMPRP ELECT VDW BOUNDARY MISC KINETIC TOTAL TEMP POTENTIAL TOTAL3 TEMPAVG PRESSURE GPRESSURE VOLUME PRESSAVG GPRESSAVG
ENERGY: 400000 1.8803 11.2980 14.2000 0.0000 -13771.4441 2323.6964 0.0000 0.0000 719.5637 -10700.8057 121.9606 -11420.3694 -10699.5928 121.9606 -98.3218 -52.3240 29254.8704 -98.3218 -52.3240
ENERGY: 500000 1.2016 11.2036 12.1462 0.0000 -13461.8350 2176.9762 0.0000 0.0000 907.2573 -10353.0500 153.7732 -11260.3073 -10349.9085 149.7630 -936.6776 -882.8812 29641.1739 4.3397 4.3419
TCL: Running 100000 steps at 180 kelvin.
TCL: Setting parameter langevinTemp to 180
TCL: Running for 100000 steps
ETITLE: TS BOND ANGLE DIHED IMPRP ELECT VDW BOUNDARY MISC KINETIC TOTAL TEMP POTENTIAL TOTAL3 TEMPAVG PRESSURE GPRESSURE VOLUME PRESSAVG GPRESSAVG
ENERGY: 500000 1.2016 11.2036 12.1462 0.0000 -13461.8350 2176.9762 0.0000 0.0000 906.8241 -10353.4832 153.6998 -11260.3073 -10351.3581 153.6998 -945.9129 -882.5539 29641.1739 -945.9129 -882.5539
ENERGY: 600000 2.9555 10.3773 12.8524 0.0000 -13248.9971 2251.2124 0.0000 0.0000 1042.0944 -9929.5052 176.6271 -10971.5996 -9928.2660 180.0135 1105.7473 1191.8058 28894.2659 5.0029 4.7800
TCL: Running 100000 steps at 210 kelvin.
TCL: Setting parameter langevinTemp to 210
TCL: Running for 100000 steps
ETITLE: TS BOND ANGLE DIHED IMPRP ELECT VDW BOUNDARY MISC KINETIC TOTAL TEMP POTENTIAL TOTAL3 TEMPAVG PRESSURE GPRESSURE VOLUME PRESSAVG GPRESSAVG
ENERGY: 600000 2.9555 10.3773 12.8524 0.0000 -13248.9971 2251.2124 0.0000 0.0000 1041.5548 -9930.0447 176.5356 -10971.5996 -9928.4123 176.5356 1131.7167 1189.5452 28894.2659 1131.7167 1189.5452
ENERGY: 700000 2.7207 17.3564 11.9961 0.0000 -12484.6193 1946.4394 0.0000 0.0000 1249.1248 -9256.9818 211.7171 -10506.1066 -9252.7769 210.2352 266.0096 402.3270 29055.9994 3.5746 3.6232
TCL: Running 100000 steps at 240 kelvin.
TCL: Setting parameter langevinTemp to 240
TCL: Running for 100000 steps
ETITLE: TS BOND ANGLE DIHED IMPRP ELECT VDW BOUNDARY MISC KINETIC TOTAL TEMP POTENTIAL TOTAL3 TEMPAVG PRESSURE GPRESSURE VOLUME PRESSAVG GPRESSAVG
ENERGY: 700000 2.7207 17.3564 11.9961 0.0000 -12484.6193 1946.4394 0.0000 0.0000 1248.5108 -9257.5958 211.6131 -10506.1066 -9255.6854 211.6131 320.9555 402.8614 29055.9994 320.9555 402.8614
ENERGY: 800000 2.4762 15.8237 11.9602 0.0000 -11767.1834 1738.7501 0.0000 0.0000 1427.1106 -8571.0626 241.8844 -9998.1731 -8567.4384 239.7671 615.9328 699.5225 28933.2914 3.8332 3.8669
TCL: Running 100000 steps at 270 kelvin.
TCL: Setting parameter langevinTemp to 270
TCL: Running for 100000 steps
ETITLE: TS BOND ANGLE DIHED IMPRP ELECT VDW BOUNDARY MISC KINETIC TOTAL TEMP POTENTIAL TOTAL3 TEMPAVG PRESSURE GPRESSURE VOLUME PRESSAVG GPRESSAVG
ENERGY: 800000 2.4762 15.8237 11.9602 0.0000 -11767.1834 1738.7501 0.0000 0.0000 1426.4043 -8571.7688 241.7647 -9998.1731 -8569.0694 241.7647 624.0492 698.9118 28933.2914 624.0492 698.9118
ENERGY: 900000 2.4729 20.4968 10.4486 0.0000 -11080.1676 1467.2617 0.0000 0.0000 1605.1006 -7974.3870 272.0523 -9579.4876 -7970.7064 270.3570 -872.3569 -782.2196 30300.5839 3.7194 3.7832
TCL: Running 1000000 steps at 300 kelvin.
TCL: Setting parameter langevinTemp to 300
TCL: Running for 1000000 steps
ETITLE: TS BOND ANGLE DIHED IMPRP ELECT VDW BOUNDARY MISC KINETIC TOTAL TEMP POTENTIAL TOTAL3 TEMPAVG PRESSURE GPRESSURE VOLUME PRESSAVG GPRESSAVG
ENERGY: 900000 2.4729 20.4968 10.4486 0.0000 -11080.1676 1467.2617 0.0000 0.0000 1604.2857 -7975.2018 271.9142 -9579.4876 -7972.5927 271.9142 -860.6359 -783.7172 30300.5839 -860.6359 -783.7172
ENERGY: 1100000 4.7379 17.2359 13.7285 0.0000 -10641.6419 1446.4519 0.0000 0.0000 1762.1682 -7397.3196 298.6741 -9159.4877 -7392.9661 300.4591 -178.6682 -131.7079 31162.2003 2.8821 3.1506
ENERGY: 1300000 3.5425 15.9651 14.2678 0.0000 -10657.5642 1414.5906 0.0000 0.0000 1752.3571 -7456.8410 297.0112 -9209.1981 -7452.6706 300.3458 -254.5311 -143.6600 30401.4985 2.8748 2.8751
ENERGY: 1500000 1.4276 14.9405 14.3587 0.0000 -10789.3283 1468.1388 0.0000 0.0000 1731.6351 -7558.8278 293.4990 -9290.4628 -7554.6636 299.7057 92.7062 120.4158 30435.5459 3.7183 3.6502
ENERGY: 1700000 3.7712 29.2349 11.5387 0.0000 -10745.4995 1416.3002 0.0000 0.0000 1772.3361 -7512.3183 300.3975 -9284.6544 -7508.7114 300.5240 -215.8159 -134.6232 30261.2111 3.7232 3.8749
ENERGY: 1900000 2.2269 13.5497 12.3128 0.0000 -10480.6670 1388.0112 0.0000 0.0000 1764.5323 -7300.0342 299.0748 -9064.5665 -7295.8756 300.4859 -391.8429 -300.1392 31178.4614 3.1751 3.3365
TCL: Exiting due to exit command.
