Info: SIMULATION PARAMETERS:
Info: TIMESTEP               2
Info: NUMBER OF STEPS        0
Info: STEPS PER CYCLE        10
Info: PERIODIC CELL BASIS 1  36.281 0 0
Info: PERIODIC CELL BASIS 2  0 35.411 0
Info: PERIODIC CELL BASIS 3  0 0 34.471
Info: PERIODIC CELL CENTER   0 0 0
Info: WRAPPING WATERS AROUND PERIODIC BOUNDARIES ON OUTPUT.
Info: WRAPPING ALL CLUSTERS AROUND PERIODIC BOUNDARIES ON OUTPUT.
Info: FIRST LDB TIMESTEP     50
Info: LAST LDB TIMESTEP     -1
Info: HOM BACKGROUND SCALING 1
Info: PME BACKGROUND SCALING 1
Info: MIN ATOMS PER PATCH    40
Info: EMPTY PATCH LOAD       40 ATOMS
Info: INITIAL TEMPERATURE    300
Info: CENTER OF MASS MOVING INITIALLY? NO
Info: DIELECTRIC             1
Info: EXCLUDE                SCALED ONE-FOUR
Info: 1-4 ELECTROSTATICS SCALED BY 0.833333
Info: MODIFIED 1-4 VDW PARAMETERS WILL BE USED
Info: DCD FILENAME           mobley_5499659_equil.dcd
Info: DCD FREQUENCY          100000
Info: DCD FIRST STEP         100000
Info: DCD FILE WILL CONTAIN UNIT CELL DATA
Info: XST FILENAME           mobley_5499659_equil.xst
Info: XST FREQUENCY          100000
Info: NO VELOCITY DCD OUTPUT
Info: NO FORCE DCD OUTPUT
Info: OUTPUT FILENAME        mobley_5499659_equil
Info: BINARY OUTPUT FILES WILL BE USED
Info: RESTART FILENAME       mobley_5499659_equil.restart
Info: RESTART FREQUENCY      100000
Info: BINARY RESTART FILES WILL BE USED
Info: CUTOFF                 9
Info: PAIRLIST DISTANCE      11
Info: PAIRLIST SHRINK RATE   0.01
Info: PAIRLIST GROW RATE     0.01
Info: PAIRLIST TRIGGER       0.3
Info: PAIRLISTS PER CYCLE    2
Info: PAIRLISTS ENABLED
Info: MARGIN                 8
Info: HYDROGEN GROUP CUTOFF  2.5
Info: PATCH DIMENSION        21.5
Info: ENERGY OUTPUT STEPS    100000
Info: ENERGY EVALUATION STEPS    100000
Info: OUTPUT ENERGY PRECISION 4
Info: CROSSTERM ENERGY INCLUDED IN DIHEDRAL
Info: TIMING OUTPUT STEPS    1000000
Info: PRESSURE OUTPUT STEPS  100000
Info: LANGEVIN DYNAMICS ACTIVE
Info: LANGEVIN TEMPERATURE   30
Info: LANGEVIN USING BBK INTEGRATOR
Info: LANGEVIN DAMPING COEFFICIENT IS 1 INVERSE PS
Info: LANGEVIN DYNAMICS APPLIED TO HYDROGENS
Info: LANGEVIN PISTON PRESSURE CONTROL ACTIVE
Info:        TARGET PRESSURE IS 1.01325 BAR
Info:     OSCILLATION PERIOD IS 50 FS
Info:             DECAY TIME IS 25 FS
Info:     PISTON TEMPERATURE IS 300 K
Info:       PRESSURE CONTROL IS GROUP-BASED
Info:    INITIAL STRAIN RATE IS 0 0 0
Info:       CELL FLUCTUATION IS ISOTROPIC
Info: PARTICLE MESH EWALD (PME) ACTIVE
Info: PME TOLERANCE               1e-06
Info: PME EWALD COEFFICIENT       0.348832
Info: PME INTERPOLATION ORDER     4
Info: PME GRID DIMENSIONS         40 36 36
Info: PME MAXIMUM GRID SPACING    1
Info: FULL ELECTROSTATIC EVALUATION FREQUENCY      2
Info: USING VERLET I (r-RESPA) MTS SCHEME.
Info: C1 SPLITTING OF LONG RANGE ELECTROSTATICS
Info: PLACING ATOMS IN PATCHES BY HYDROGEN GROUPS
Info: RIGID BONDS TO HYDROGEN : ALL
Info:         ERROR TOLERANCE : 1e-08
Info:          MAX ITERATIONS : 100
Info: RIGID WATER USING SETTLE ALGORITHM
Info: RANDOM NUMBER SEED     1743163950
Info: USE HYDROGEN BONDS?    NO
Info: Using AMBER format force field!
Info: AMBER PARM FILE        mobley_5499659.prmtop
Info: COORDINATE PDB         mobley_5499659.pdb
Info: Exclusions will be read from PARM file!
Info: SCNB (VDW SCALING)     2
Info: USING ARITHMETIC MEAN TO COMBINE L-J SIGMA PARAMETERS
Info: BINARY COORDINATES     mobley_5499659_min.coor
Info: SUMMARY OF PARAMETERS:
Info: 11 BONDS
Info: 14 ANGLES
Info:   14 HARMONIC
Info:   0 COSINE-BASED
Info: 5 DIHEDRAL
Info: 0 IMPROPER
Info: 0 CROSSTERM
Info: 0 VDW
Info: 36 VDW_PAIRS
Info: 0 NBTHOLE_PAIRS
Info: STRUCTURE SUMMARY:
Info: 2916 ATOMS
Info: 2916 BONDS
Info: 19 ANGLES
Info: 26 DIHEDRALS
Info: 0 IMPROPERS
Info: 0 CROSSTERMS
Info: 2952 EXCLUSIONS
Info: 2910 RIGID BONDS
Info: 5838 DEGREES OF FREEDOM
Info: 974 HYDROGEN GROUPS
Info: 4 ATOMS IN LARGEST HYDROGEN GROUP
Info: 974 MIGRATION GROUPS
Info: 4 ATOMS IN LARGEST MIGRATION GROUP
Info: TOTAL MASS = 17521.6 amu
Info: TOTAL CHARGE = 0.000100017 e
Info: MASS DENSITY = 0.656994 g/cm^3
Info: ATOM DENSITY = 0.065844 atoms/A^3
Info: ADDED 0 IMPLICIT EXCLUSIONS
Info: NONBONDED TABLE R-SQUARED SPACING: 0.0625
Info: NONBONDED TABLE SIZE: 705 POINTS
Info: REMOVING COM VELOCITY 0.0428979 -0.14838 -0.00435229
TCL: Running for 100000 steps
ETITLE: TS BOND ANGLE DIHED IMPRP ELECT VDW BOUNDARY MISC KINETIC TOTAL TEMP POTENTIAL TOTAL3 TEMPAVG PRESSURE GPRESSURE VOLUME PRESSAVG GPRESSAVG
ENERGY: 0 0.1067 0.5695 0.0690 0.0000 -13482.0196 2373.8701 0.0000 0.0000 1771.7110 -9335.6932 305.4353 -11107.4042 -9335.3503 305.4353 458.9597 494.0709 44286.4963 458.9597 494.0709
ENERGY: 100000 1.5081 0.8440 0.1106 0.0000 -14011.4876 2363.3984 0.0000 0.0000 175.0436 -11470.5830 30.1767 -11645.6265 -11470.2304 30.9890 -1055.7087 -1018.8767 29082.0448 3.7881 3.7716
TCL: Running 100000 steps at 60 kelvin.
TCL: Setting parameter langevinTemp to 60
TCL: Running for 100000 steps
ETITLE: TS BOND ANGLE DIHED IMPRP ELECT VDW BOUNDARY MISC KINETIC TOTAL TEMP POTENTIAL TOTAL3 TEMPAVG PRESSURE GPRESSURE VOLUME PRESSAVG GPRESSAVG
ENERGY: 100000 1.5081 0.8440 0.1106 0.0000 -14011.4876 2363.3984 0.0000 0.0000 174.9573 -11470.6693 30.1619 -11645.6265 -11470.3678 30.1619 -1057.9903 -1018.8855 29082.0448 -1057.9903 -1018.8855
ENERGY: 200000 0.5766 1.4142 0.4277 0.0000 -14008.1197 2432.5104 0.0000 0.0000 353.5492 -11219.6415 60.9503 -11573.1906 -11218.9715 59.9875 -34.1370 19.8934 28923.3510 3.8535 3.8221
TCL: Running 100000 steps at 90 kelvin.
TCL: Setting parameter langevinTemp to 90
TCL: Running for 100000 steps
ETITLE: TS BOND ANGLE DIHED IMPRP ELECT VDW BOUNDARY MISC KINETIC TOTAL TEMP POTENTIAL TOTAL3 TEMPAVG PRESSURE GPRESSURE VOLUME PRESSAVG GPRESSAVG
ENERGY: 200000 0.5766 1.4142 0.4277 0.0000 -14008.1197 2432.5104 0.0000 0.0000 353.3758 -11219.8148 60.9205 -11573.1906 -11219.0296 60.9205 -25.4521 19.4695 28923.3510 -25.4521 19.4695
ENERGY: 300000 0.8180 2.0821 0.4344 0.0000 -13873.8105 2422.7978 0.0000 0.0000 529.7712 -10917.9071 91.3303 -11447.6783 -10916.7256 89.8262 289.4379 354.7638 28790.9480 3.0501 3.0508
TCL: Running 100000 steps at 120 kelvin.
TCL: Setting parameter langevinTemp to 120
TCL: Running for 100000 steps
ETITLE: TS BOND ANGLE DIHED IMPRP ELECT VDW BOUNDARY MISC KINETIC TOTAL TEMP POTENTIAL TOTAL3 TEMPAVG PRESSURE GPRESSURE VOLUME PRESSAVG GPRESSAVG
ENERGY: 300000 0.8180 2.0821 0.4344 0.0000 -13873.8105 2422.7978 0.0000 0.0000 529.5128 -10918.1655 91.2857 -11447.6783 -10916.9348 91.2857 307.5463 354.6160 28790.9480 307.5463 354.6160
ENERGY: 400000 0.7666 2.8367 0.7277 0.0000 -13708.2389 2368.4660 0.0000 0.0000 686.4012 -10649.0408 118.3326 -11335.4420 -10647.9285 120.1829 467.0635 511.8632 28620.5306 4.3877 4.4019
TCL: Running 100000 steps at 150 kelvin.
TCL: Setting parameter langevinTemp to 150
TCL: Running for 100000 steps
ETITLE: TS BOND ANGLE DIHED IMPRP ELECT VDW BOUNDARY MISC KINETIC TOTAL TEMP POTENTIAL TOTAL3 TEMPAVG PRESSURE GPRESSURE VOLUME PRESSAVG GPRESSAVG
ENERGY: 400000 0.7666 2.8367 0.7277 0.0000 -13708.2389 2368.4660 0.0000 0.0000 686.0632 -10649.3788 118.2743 -11335.4420 -10647.9396 118.2743 457.1739 511.8058 28620.5306 457.1739 511.8058
ENERGY: 500000 0.7184 2.4017 1.5266 0.0000 -13427.5344 2286.2428 0.0000 0.0000 880.7182 -10255.9268 151.8320 -11136.6450 -10253.9113 149.7596 340.8101 400.1698 28739.4044 4.1317 4.1329
TCL: Running 100000 steps at 180 kelvin.
TCL: Setting parameter langevinTemp to 180
TCL: Running for 100000 steps
ETITLE: TS BOND ANGLE DIHED IMPRP ELECT VDW BOUNDARY MISC KINETIC TOTAL TEMP POTENTIAL TOTAL3 TEMPAVG PRESSURE GPRESSURE VOLUME PRESSAVG GPRESSAVG
ENERGY: 500000 0.7184 2.4017 1.5266 0.0000 -13427.5344 2286.2428 0.0000 0.0000 880.2828 -10256.3621 151.7569 -11136.6450 -10254.7236 151.7569 362.7534 400.7847 28739.4044 362.7534 400.7847
ENERGY: 600000 1.0207 2.7716 0.6809 0.0000 -13073.6161 2170.2351 0.0000 0.0000 1004.1888 -9894.7191 173.1178 -10898.9079 -9891.3369 179.4657 324.0931 382.0304 28600.6278 4.2523 4.2389
TCL: Running 100000 steps at 210 kelvin.
TCL: Setting parameter langevinTemp to 210
TCL: Running for 100000 steps
ETITLE: TS BOND ANGLE DIHED IMPRP ELECT VDW BOUNDARY MISC KINETIC TOTAL TEMP POTENTIAL TOTAL3 TEMPAVG PRESSURE GPRESSURE VOLUME PRESSAVG GPRESSAVG
ENERGY: 600000 1.0207 2.7716 0.6809 0.0000 -13073.6161 2170.2351 0.0000 0.0000 1003.6523 -9895.2555 173.0253 -10898.9079 -9893.7308 173.0253 312.6270 382.5394 28600.6278 312.6270 382.5394
ENERGY: 700000 1.2921 1.7867 0.5229 0.0000 -12261.3122 1808.8273 0.0000 0.0000 1232.0654 -9216.8177 212.4027 -10448.8831 -9214.1009 209.6589 -742.7082 -586.6099 28588.8397 4.9057 4.9354
TCL: Running 100000 steps at 240 kelvin.
TCL: Setting parameter langevinTemp to 240
TCL: Running for 100000 steps
ETITLE: TS BOND ANGLE DIHED IMPRP ELECT VDW BOUNDARY MISC KINETIC TOTAL TEMP POTENTIAL TOTAL3 TEMPAVG PRESSURE GPRESSURE VOLUME PRESSAVG GPRESSAVG
ENERGY: 700000 1.2921 1.7867 0.5229 0.0000 -12261.3122 1808.8273 0.0000 0.0000 1231.4746 -9217.4086 212.3009 -10448.8831 -9215.1557 212.3009 -674.9206 -586.4637 28588.8397 -674.9206 -586.4637
ENERGY: 800000 3.7111 2.3801 3.2179 0.0000 -11617.9750 1641.7138 0.0000 0.0000 1364.3831 -8602.5691 235.2137 -9966.9522 -8600.9190 239.6467 -660.8741 -590.6615 28908.4290 3.9137 3.7838
TCL: Running 100000 steps at 270 kelvin.
TCL: Setting parameter langevinTemp to 270
TCL: Running for 100000 steps
ETITLE: TS BOND ANGLE DIHED IMPRP ELECT VDW BOUNDARY MISC KINETIC TOTAL TEMP POTENTIAL TOTAL3 TEMPAVG PRESSURE GPRESSURE VOLUME PRESSAVG GPRESSAVG
ENERGY: 800000 3.7111 2.3801 3.2179 0.0000 -11617.9750 1641.7138 0.0000 0.0000 1363.6691 -8603.2831 235.0906 -9966.9522 -8600.7662 235.0906 -682.3349 -590.4713 28908.4290 -682.3349 -590.4713
ENERGY: 900000 1.7078 3.1222 1.5800 0.0000 -11100.4295 1574.1346 0.0000 0.0000 1539.3956 -7980.4893 265.3851 -9519.8849 -7977.6175 269.7122 262.4044 385.1059 29330.7126 3.3881 3.5456
TCL: Running 1000000 steps at 300 kelvin.
TCL: Setting parameter langevinTemp to 300
TCL: Running for 1000000 steps
ETITLE: TS BOND ANGLE DIHED IMPRP ELECT VDW BOUNDARY MISC KINETIC TOTAL TEMP POTENTIAL TOTAL3 TEMPAVG PRESSURE GPRESSURE VOLUME PRESSAVG GPRESSAVG
ENERGY: 900000 1.7078 3.1222 1.5800 0.0000 -11100.4295 1574.1346 0.0000 0.0000 1538.6200 -7981.2650 265.2514 -9519.8849 -7978.8032 265.2514 298.4878 385.4824 29330.7126 298.4878 385.4824
ENERGY: 1100000 1.0249 3.7524 0.7628 0.0000 -10486.9553 1349.1461 0.0000 0.0000 1735.9159 -7396.3531 299.2644 -9132.2691 -7391.2793 300.2540 -565.8404 -526.4718 30539.4287 2.6262 2.7244
ENERGY: 1300000 3.3389 4.2373 2.6711 0.0000 -10645.0232 1469.6407 0.0000 0.0000 1744.2893 -7420.8459 300.7079 -9165.1352 -7416.6756 299.7633 401.1829 458.0402 29731.4435 3.0254 3.1889
ENERGY: 1500000 1.6459 2.9234 2.5773 0.0000 -10584.1918 1415.2010 0.0000 0.0000 1745.4898 -7416.3544 300.9148 -9161.8442 -7412.2592 300.6508 141.5489 238.9787 29902.6796 2.7196 2.5287
ENERGY: 1700000 2.8352 4.4936 3.5817 0.0000 -10569.0132 1395.0921 0.0000 0.0000 1729.2518 -7433.7589 298.1155 -9163.0107 -7430.8227 300.1174 -183.4155 -109.4758 29777.3018 2.4279 2.4004
ENERGY: 1900000 2.1038 6.8821 3.5135 0.0000 -10531.0798 1392.9891 0.0000 0.0000 1716.5297 -7409.0615 295.9222 -9125.5912 -7408.4877 300.2400 -246.6059 -142.2465 30237.5080 3.1680 3.4105
TCL: Exiting due to exit command.
