Info: SIMULATION PARAMETERS:
Info: TIMESTEP               2
Info: NUMBER OF STEPS        0
Info: STEPS PER CYCLE        10
Info: PERIODIC CELL BASIS 1  34.207 0 0
Info: PERIODIC CELL BASIS 2  0 33.542 0
Info: PERIODIC CELL BASIS 3  0 0 37.451
Info: PERIODIC CELL CENTER   0 0 0
Info: WRAPPING WATERS AROUND PERIODIC BOUNDARIES ON OUTPUT.
Info: WRAPPING ALL CLUSTERS AROUND PERIODIC BOUNDARIES ON OUTPUT.
Info: FIRST LDB TIMESTEP     50
Info: LAST LDB TIMESTEP     -1
Info: HOM BACKGROUND SCALING 1
Info: PME BACKGROUND SCALING 1
Info: MIN ATOMS PER PATCH    40
Info: EMPTY PATCH LOAD       40 ATOMS
Info: INITIAL TEMPERATURE    300
Info: CENTER OF MASS MOVING INITIALLY? NO
Info: DIELECTRIC             1
Info: EXCLUDE                SCALED ONE-FOUR
Info: 1-4 ELECTROSTATICS SCALED BY 0.833333
Info: MODIFIED 1-4 VDW PARAMETERS WILL BE USED
Info: DCD FILENAME           mobley_5445548_equil.dcd
Info: DCD FREQUENCY          100000
Info: DCD FIRST STEP         100000
Info: DCD FILE WILL CONTAIN UNIT CELL DATA
Info: XST FILENAME           mobley_5445548_equil.xst
Info: XST FREQUENCY          100000
Info: NO VELOCITY DCD OUTPUT
Info: NO FORCE DCD OUTPUT
Info: OUTPUT FILENAME        mobley_5445548_equil
Info: BINARY OUTPUT FILES WILL BE USED
Info: RESTART FILENAME       mobley_5445548_equil.restart
Info: RESTART FREQUENCY      100000
Info: BINARY RESTART FILES WILL BE USED
Info: CUTOFF                 9
Info: PAIRLIST DISTANCE      11
Info: PAIRLIST SHRINK RATE   0.01
Info: PAIRLIST GROW RATE     0.01
Info: PAIRLIST TRIGGER       0.3
Info: PAIRLISTS PER CYCLE    2
Info: PAIRLISTS ENABLED
Info: MARGIN                 8
Info: HYDROGEN GROUP CUTOFF  2.5
Info: PATCH DIMENSION        21.5
Info: ENERGY OUTPUT STEPS    100000
Info: ENERGY EVALUATION STEPS    100000
Info: OUTPUT ENERGY PRECISION 4
Info: CROSSTERM ENERGY INCLUDED IN DIHEDRAL
Info: TIMING OUTPUT STEPS    1000000
Info: PRESSURE OUTPUT STEPS  100000
Info: LANGEVIN DYNAMICS ACTIVE
Info: LANGEVIN TEMPERATURE   30
Info: LANGEVIN USING BBK INTEGRATOR
Info: LANGEVIN DAMPING COEFFICIENT IS 1 INVERSE PS
Info: LANGEVIN DYNAMICS APPLIED TO HYDROGENS
Info: LANGEVIN PISTON PRESSURE CONTROL ACTIVE
Info:        TARGET PRESSURE IS 1.01325 BAR
Info:     OSCILLATION PERIOD IS 50 FS
Info:             DECAY TIME IS 25 FS
Info:     PISTON TEMPERATURE IS 300 K
Info:       PRESSURE CONTROL IS GROUP-BASED
Info:    INITIAL STRAIN RATE IS 0 0 0
Info:       CELL FLUCTUATION IS ISOTROPIC
Info: PARTICLE MESH EWALD (PME) ACTIVE
Info: PME TOLERANCE               1e-06
Info: PME EWALD COEFFICIENT       0.348832
Info: PME INTERPOLATION ORDER     4
Info: PME GRID DIMENSIONS         36 36 40
Info: PME MAXIMUM GRID SPACING    1
Info: FULL ELECTROSTATIC EVALUATION FREQUENCY      2
Info: USING VERLET I (r-RESPA) MTS SCHEME.
Info: C1 SPLITTING OF LONG RANGE ELECTROSTATICS
Info: PLACING ATOMS IN PATCHES BY HYDROGEN GROUPS
Info: RIGID BONDS TO HYDROGEN : ALL
Info:         ERROR TOLERANCE : 1e-08
Info:          MAX ITERATIONS : 100
Info: RIGID WATER USING SETTLE ALGORITHM
Info: RANDOM NUMBER SEED     1743234796
Info: USE HYDROGEN BONDS?    NO
Info: Using AMBER format force field!
Info: AMBER PARM FILE        mobley_5445548.prmtop
Info: COORDINATE PDB         mobley_5445548.pdb
Info: Exclusions will be read from PARM file!
Info: SCNB (VDW SCALING)     2
Info: USING ARITHMETIC MEAN TO COMBINE L-J SIGMA PARAMETERS
Info: BINARY COORDINATES     mobley_5445548_min.coor
Info: SUMMARY OF PARAMETERS:
Info: 7 BONDS
Info: 8 ANGLES
Info: 6 DIHEDRAL
Info: 0 IMPROPER
Info: 0 CROSSTERM
Info: 0 VDW
Info: 21 VDW_PAIRS
Info: 0 NBTHOLE_PAIRS
Info: STRUCTURE SUMMARY:
Info: 2967 ATOMS
Info: 2967 BONDS
Info: 36 ANGLES
Info: 54 DIHEDRALS
Info: 0 IMPROPERS
Info: 0 CROSSTERMS
Info: 3048 EXCLUSIONS
Info: 2958 RIGID BONDS
Info: 5943 DEGREES OF FREEDOM
Info: 991 HYDROGEN GROUPS
Info: 4 ATOMS IN LARGEST HYDROGEN GROUP
Info: 991 MIGRATION GROUPS
Info: 4 ATOMS IN LARGEST MIGRATION GROUP
Info: TOTAL MASS = 17811.9 amu
Info: TOTAL CHARGE = -0.000100028 e
Info: MASS DENSITY = 0.688339 g/cm^3
Info: ATOM DENSITY = 0.0690479 atoms/A^3
Info: ADDED 0 IMPLICIT EXCLUSIONS
Info: NONBONDED TABLE R-SQUARED SPACING: 0.0625
Info: NONBONDED TABLE SIZE: 705 POINTS
Info: REMOVING COM VELOCITY -0.00421035 -0.064847 0.0955744
TCL: Running for 100000 steps
ETITLE: TS BOND ANGLE DIHED IMPRP ELECT VDW BOUNDARY MISC KINETIC TOTAL TEMP POTENTIAL TOTAL3 TEMPAVG PRESSURE GPRESSURE VOLUME PRESSAVG GPRESSAVG
ENERGY: 0 0.2780 0.7147 0.2393 0.0000 -13685.0380 2393.2466 0.0000 0.0000 1780.6801 -9509.8792 301.5578 -11290.5593 -9509.5457 301.5578 391.4655 429.5550 42970.1986 391.4655 429.5550
ENERGY: 100000 1.1598 1.5860 0.6179 0.0000 -14212.0172 2410.4275 0.0000 0.0000 176.5743 -11621.6517 29.9028 -11798.2260 -11621.4248 30.9658 -838.0812 -764.0925 28908.6414 3.6932 3.7607
TCL: Running 100000 steps at 60 kelvin.
TCL: Setting parameter langevinTemp to 60
TCL: Running for 100000 steps
ETITLE: TS BOND ANGLE DIHED IMPRP ELECT VDW BOUNDARY MISC KINETIC TOTAL TEMP POTENTIAL TOTAL3 TEMPAVG PRESSURE GPRESSURE VOLUME PRESSAVG GPRESSAVG
ENERGY: 100000 1.1598 1.5860 0.6179 0.0000 -14212.0172 2410.4275 0.0000 0.0000 176.4845 -11621.7415 29.8876 -11798.2260 -11621.3517 29.8876 -829.7438 -764.2569 28908.6414 -829.7438 -764.2569
ENERGY: 200000 0.6080 2.0437 0.3103 0.0000 -14100.2219 2367.5769 0.0000 0.0000 356.1138 -11373.5692 60.3078 -11729.6829 -11372.2901 59.9600 -881.1008 -805.2672 29041.2341 3.8949 3.8259
TCL: Running 100000 steps at 90 kelvin.
TCL: Setting parameter langevinTemp to 90
TCL: Running for 100000 steps
ETITLE: TS BOND ANGLE DIHED IMPRP ELECT VDW BOUNDARY MISC KINETIC TOTAL TEMP POTENTIAL TOTAL3 TEMPAVG PRESSURE GPRESSURE VOLUME PRESSAVG GPRESSAVG
ENERGY: 200000 0.6080 2.0437 0.3103 0.0000 -14100.2219 2367.5769 0.0000 0.0000 355.9420 -11373.7409 60.2787 -11729.6829 -11372.9299 60.2787 -871.0877 -805.1165 29041.2341 -871.0877 -805.1165
ENERGY: 300000 1.5340 2.3502 1.7038 0.0000 -13996.5114 2398.8234 0.0000 0.0000 534.8366 -11057.2634 90.5745 -11592.1000 -11055.3694 89.9354 -18.4104 16.0041 28923.3818 5.3203 5.3635
TCL: Running 100000 steps at 120 kelvin.
TCL: Setting parameter langevinTemp to 120
TCL: Running for 100000 steps
ETITLE: TS BOND ANGLE DIHED IMPRP ELECT VDW BOUNDARY MISC KINETIC TOTAL TEMP POTENTIAL TOTAL3 TEMPAVG PRESSURE GPRESSURE VOLUME PRESSAVG GPRESSAVG
ENERGY: 300000 1.5340 2.3502 1.7038 0.0000 -13996.5114 2398.8234 0.0000 0.0000 534.5814 -11057.5186 90.5312 -11592.1000 -11056.3786 90.5312 -32.0762 16.7153 28923.3818 -32.0762 16.7153
ENERGY: 400000 1.5600 2.2841 1.6830 0.0000 -13747.2342 2260.2643 0.0000 0.0000 709.0496 -10772.3932 120.0774 -11481.4428 -10771.0597 120.0586 -668.8707 -627.0597 29075.3876 2.9442 2.9172
TCL: Running 100000 steps at 150 kelvin.
TCL: Setting parameter langevinTemp to 150
TCL: Running for 100000 steps
ETITLE: TS BOND ANGLE DIHED IMPRP ELECT VDW BOUNDARY MISC KINETIC TOTAL TEMP POTENTIAL TOTAL3 TEMPAVG PRESSURE GPRESSURE VOLUME PRESSAVG GPRESSAVG
ENERGY: 400000 1.5600 2.2841 1.6830 0.0000 -13747.2342 2260.2643 0.0000 0.0000 708.7133 -10772.7295 120.0204 -11481.4428 -10771.2645 120.0204 -672.6448 -628.5953 29075.3876 -672.6448 -628.5953
ENERGY: 500000 3.4163 2.7672 1.9564 0.0000 -13643.5461 2339.6385 0.0000 0.0000 878.8980 -10416.8698 148.8412 -11295.7678 -10415.0663 149.8297 678.6221 715.9335 28749.0915 4.8311 4.6521
TCL: Running 100000 steps at 180 kelvin.
TCL: Setting parameter langevinTemp to 180
TCL: Running for 100000 steps
ETITLE: TS BOND ANGLE DIHED IMPRP ELECT VDW BOUNDARY MISC KINETIC TOTAL TEMP POTENTIAL TOTAL3 TEMPAVG PRESSURE GPRESSURE VOLUME PRESSAVG GPRESSAVG
ENERGY: 500000 3.4163 2.7672 1.9564 0.0000 -13643.5461 2339.6385 0.0000 0.0000 878.4470 -10417.3207 148.7648 -11295.7678 -10415.5969 148.7648 655.3109 715.7075 28749.0915 655.3109 715.7075
ENERGY: 600000 2.1427 4.3750 2.3870 0.0000 -13182.7579 2113.3704 0.0000 0.0000 1048.0163 -10012.4664 177.4813 -11060.4827 -10009.9035 179.9837 -365.6145 -298.6234 29015.5119 3.0752 3.2771
TCL: Running 100000 steps at 210 kelvin.
TCL: Setting parameter langevinTemp to 210
TCL: Running for 100000 steps
ETITLE: TS BOND ANGLE DIHED IMPRP ELECT VDW BOUNDARY MISC KINETIC TOTAL TEMP POTENTIAL TOTAL3 TEMPAVG PRESSURE GPRESSURE VOLUME PRESSAVG GPRESSAVG
ENERGY: 600000 2.1427 4.3750 2.3870 0.0000 -13182.7579 2113.3704 0.0000 0.0000 1047.5110 -10012.9718 177.3958 -11060.4827 -10010.1677 177.3958 -365.0937 -298.5905 29015.5119 -365.0937 -298.5905
ENERGY: 700000 0.8653 4.8849 1.2111 0.0000 -12499.5012 1915.2045 0.0000 0.0000 1265.2674 -9312.0679 214.2728 -10577.3353 -9308.6807 209.6864 124.6877 200.9948 28755.4508 5.1930 5.1895
TCL: Running 100000 steps at 240 kelvin.
TCL: Setting parameter langevinTemp to 240
TCL: Running for 100000 steps
ETITLE: TS BOND ANGLE DIHED IMPRP ELECT VDW BOUNDARY MISC KINETIC TOTAL TEMP POTENTIAL TOTAL3 TEMPAVG PRESSURE GPRESSURE VOLUME PRESSAVG GPRESSAVG
ENERGY: 700000 0.8653 4.8849 1.2111 0.0000 -12499.5012 1915.2045 0.0000 0.0000 1264.6355 -9312.6999 214.1657 -10577.3353 -9310.3880 214.1657 128.5723 201.5541 28755.4508 128.5723 201.5541
ENERGY: 800000 1.7318 6.3051 2.6950 0.0000 -11815.9760 1713.5073 0.0000 0.0000 1398.7868 -8692.9501 236.8842 -10091.7369 -8690.9675 239.8493 -103.8922 -98.8171 29410.6306 1.9379 1.8187
TCL: Running 100000 steps at 270 kelvin.
TCL: Setting parameter langevinTemp to 270
TCL: Running for 100000 steps
ETITLE: TS BOND ANGLE DIHED IMPRP ELECT VDW BOUNDARY MISC KINETIC TOTAL TEMP POTENTIAL TOTAL3 TEMPAVG PRESSURE GPRESSURE VOLUME PRESSAVG GPRESSAVG
ENERGY: 800000 1.7318 6.3051 2.6950 0.0000 -11815.9760 1713.5073 0.0000 0.0000 1398.0821 -8693.6548 236.7649 -10091.7369 -8691.2397 236.7649 -182.0655 -99.7270 29410.6306 -182.0655 -99.7270
ENERGY: 900000 5.0658 4.5041 2.9108 0.0000 -11203.5689 1509.5071 0.0000 0.0000 1608.3759 -8073.2052 272.3781 -9681.5810 -8066.9923 270.2462 -430.5819 -361.3303 29638.7666 2.6939 2.9259
TCL: Running 1000000 steps at 300 kelvin.
TCL: Setting parameter langevinTemp to 300
TCL: Running for 1000000 steps
ETITLE: TS BOND ANGLE DIHED IMPRP ELECT VDW BOUNDARY MISC KINETIC TOTAL TEMP POTENTIAL TOTAL3 TEMPAVG PRESSURE GPRESSURE VOLUME PRESSAVG GPRESSAVG
ENERGY: 900000 5.0658 4.5041 2.9108 0.0000 -11203.5689 1509.5071 0.0000 0.0000 1607.5697 -8074.0113 272.2416 -9681.5810 -8071.8994 272.2416 -454.0737 -358.2393 29638.7666 -454.0737 -358.2393
ENERGY: 1100000 2.7969 8.8407 2.0282 0.0000 -10836.8394 1488.8699 0.0000 0.0000 1732.9214 -7601.3823 293.4699 -9334.3037 -7598.5915 300.4297 408.9505 497.4287 30133.8647 3.1988 3.2454
ENERGY: 1300000 4.3880 8.7872 3.5099 0.0000 -10660.9512 1448.8683 0.0000 0.0000 1753.6415 -7441.7562 296.9788 -9195.3978 -7438.2104 300.0660 180.4533 183.3701 30838.3338 2.3781 2.4489
ENERGY: 1500000 2.7828 8.3680 2.6764 0.0000 -10744.0541 1494.0671 0.0000 0.0000 1770.7349 -7465.4249 299.8736 -9236.1597 -7461.3957 299.9428 510.5609 575.0146 30863.4631 3.1949 3.3270
ENERGY: 1700000 1.8969 7.3668 4.7391 0.0000 -10619.6552 1409.7262 0.0000 0.0000 1734.7013 -7461.2248 293.7713 -9195.9261 -7458.1242 300.3091 -238.2993 -142.7158 30809.1429 1.5595 1.6755
ENERGY: 1900000 1.7758 6.3664 4.0963 0.0000 -10768.9586 1484.1464 0.0000 0.0000 1784.6118 -7487.9620 302.2236 -9272.5737 -7482.5077 300.5375 172.6318 191.0026 30958.0721 2.5490 2.5042
TCL: Exiting due to exit command.
