Info: SIMULATION PARAMETERS:
Info: TIMESTEP               2
Info: NUMBER OF STEPS        0
Info: STEPS PER CYCLE        10
Info: PERIODIC CELL BASIS 1  36.005 0 0
Info: PERIODIC CELL BASIS 2  0 34.457 0
Info: PERIODIC CELL BASIS 3  0 0 35.516
Info: PERIODIC CELL CENTER   0 0 0
Info: WRAPPING WATERS AROUND PERIODIC BOUNDARIES ON OUTPUT.
Info: WRAPPING ALL CLUSTERS AROUND PERIODIC BOUNDARIES ON OUTPUT.
Info: FIRST LDB TIMESTEP     50
Info: LAST LDB TIMESTEP     -1
Info: HOM BACKGROUND SCALING 1
Info: PME BACKGROUND SCALING 1
Info: MIN ATOMS PER PATCH    40
Info: EMPTY PATCH LOAD       40 ATOMS
Info: INITIAL TEMPERATURE    300
Info: CENTER OF MASS MOVING INITIALLY? NO
Info: DIELECTRIC             1
Info: EXCLUDE                SCALED ONE-FOUR
Info: 1-4 ELECTROSTATICS SCALED BY 0.833333
Info: MODIFIED 1-4 VDW PARAMETERS WILL BE USED
Info: DCD FILENAME           mobley_3083321_equil.dcd
Info: DCD FREQUENCY          100000
Info: DCD FIRST STEP         100000
Info: DCD FILE WILL CONTAIN UNIT CELL DATA
Info: XST FILENAME           mobley_3083321_equil.xst
Info: XST FREQUENCY          100000
Info: NO VELOCITY DCD OUTPUT
Info: NO FORCE DCD OUTPUT
Info: OUTPUT FILENAME        mobley_3083321_equil
Info: BINARY OUTPUT FILES WILL BE USED
Info: RESTART FILENAME       mobley_3083321_equil.restart
Info: RESTART FREQUENCY      100000
Info: BINARY RESTART FILES WILL BE USED
Info: CUTOFF                 9
Info: PAIRLIST DISTANCE      11
Info: PAIRLIST SHRINK RATE   0.01
Info: PAIRLIST GROW RATE     0.01
Info: PAIRLIST TRIGGER       0.3
Info: PAIRLISTS PER CYCLE    2
Info: PAIRLISTS ENABLED
Info: MARGIN                 8
Info: HYDROGEN GROUP CUTOFF  2.5
Info: PATCH DIMENSION        21.5
Info: ENERGY OUTPUT STEPS    100000
Info: ENERGY EVALUATION STEPS    100000
Info: OUTPUT ENERGY PRECISION 4
Info: CROSSTERM ENERGY INCLUDED IN DIHEDRAL
Info: TIMING OUTPUT STEPS    1000000
Info: PRESSURE OUTPUT STEPS  100000
Info: LANGEVIN DYNAMICS ACTIVE
Info: LANGEVIN TEMPERATURE   30
Info: LANGEVIN USING BBK INTEGRATOR
Info: LANGEVIN DAMPING COEFFICIENT IS 1 INVERSE PS
Info: LANGEVIN DYNAMICS APPLIED TO HYDROGENS
Info: LANGEVIN PISTON PRESSURE CONTROL ACTIVE
Info:        TARGET PRESSURE IS 1.01325 BAR
Info:     OSCILLATION PERIOD IS 50 FS
Info:             DECAY TIME IS 25 FS
Info:     PISTON TEMPERATURE IS 300 K
Info:       PRESSURE CONTROL IS GROUP-BASED
Info:    INITIAL STRAIN RATE IS 0 0 0
Info:       CELL FLUCTUATION IS ISOTROPIC
Info: PARTICLE MESH EWALD (PME) ACTIVE
Info: PME TOLERANCE               1e-06
Info: PME EWALD COEFFICIENT       0.348832
Info: PME INTERPOLATION ORDER     4
Info: PME GRID DIMENSIONS         40 36 36
Info: PME MAXIMUM GRID SPACING    1
Info: FULL ELECTROSTATIC EVALUATION FREQUENCY      2
Info: USING VERLET I (r-RESPA) MTS SCHEME.
Info: C1 SPLITTING OF LONG RANGE ELECTROSTATICS
Info: PLACING ATOMS IN PATCHES BY HYDROGEN GROUPS
Info: RIGID BONDS TO HYDROGEN : ALL
Info:         ERROR TOLERANCE : 1e-08
Info:          MAX ITERATIONS : 100
Info: RIGID WATER USING SETTLE ALGORITHM
Info: RANDOM NUMBER SEED     1743238244
Info: USE HYDROGEN BONDS?    NO
Info: Using AMBER format force field!
Info: AMBER PARM FILE        mobley_3083321.prmtop
Info: COORDINATE PDB         mobley_3083321.pdb
Info: Exclusions will be read from PARM file!
Info: SCNB (VDW SCALING)     2
Info: USING ARITHMETIC MEAN TO COMBINE L-J SIGMA PARAMETERS
Info: BINARY COORDINATES     mobley_3083321_min.coor
Info: SUMMARY OF PARAMETERS:
Info: 5 BONDS
Info: 6 ANGLES
Info:   6 HARMONIC
Info:   0 COSINE-BASED
Info: 4 DIHEDRAL
Info: 0 IMPROPER
Info: 0 CROSSTERM
Info: 0 VDW
Info: 21 VDW_PAIRS
Info: 0 NBTHOLE_PAIRS
Info: STRUCTURE SUMMARY:
Info: 2920 ATOMS
Info: 2919 BONDS
Info: 20 ANGLES
Info: 16 DIHEDRALS
Info: 0 IMPROPERS
Info: 0 CROSSTERMS
Info: 2951 EXCLUSIONS
Info: 2915 RIGID BONDS
Info: 5845 DEGREES OF FREEDOM
Info: 974 HYDROGEN GROUPS
Info: 4 ATOMS IN LARGEST HYDROGEN GROUP
Info: 974 MIGRATION GROUPS
Info: 4 ATOMS IN LARGEST MIGRATION GROUP
Info: TOTAL MASS = 17533.6 amu
Info: TOTAL CHARGE = 0.000200003 e
Info: MASS DENSITY = 0.660794 g/cm^3
Info: ATOM DENSITY = 0.0662702 atoms/A^3
Info: ADDED 0 IMPLICIT EXCLUSIONS
Info: NONBONDED TABLE R-SQUARED SPACING: 0.0625
Info: NONBONDED TABLE SIZE: 705 POINTS
Info: REMOVING COM VELOCITY -0.0975322 -0.0487902 0.0196151
TCL: Running for 100000 steps
ETITLE: TS BOND ANGLE DIHED IMPRP ELECT VDW BOUNDARY MISC KINETIC TOTAL TEMP POTENTIAL TOTAL3 TEMPAVG PRESSURE GPRESSURE VOLUME PRESSAVG GPRESSAVG
ENERGY: 0 0.1277 0.1866 4.5870 0.0000 -13481.7834 2373.7711 0.0000 0.0000 1721.0756 -9382.0356 296.3506 -11103.1111 -9381.6860 296.3506 525.3133 557.5777 44062.0121 525.3133 557.5777
ENERGY: 100000 0.2626 0.6392 4.4401 0.0000 -13971.0818 2349.3179 0.0000 0.0000 177.9399 -11438.4821 30.6393 -11616.4220 -11437.8776 30.9022 -920.8198 -834.0832 28869.0203 4.3187 4.3033
TCL: Running 100000 steps at 60 kelvin.
TCL: Setting parameter langevinTemp to 60
TCL: Running for 100000 steps
ETITLE: TS BOND ANGLE DIHED IMPRP ELECT VDW BOUNDARY MISC KINETIC TOTAL TEMP POTENTIAL TOTAL3 TEMPAVG PRESSURE GPRESSURE VOLUME PRESSAVG GPRESSAVG
ENERGY: 100000 0.2626 0.6392 4.4401 0.0000 -13971.0818 2349.3179 0.0000 0.0000 177.8559 -11438.5661 30.6249 -11616.4220 -11438.0560 30.6249 -889.7125 -833.8458 28869.0203 -889.7125 -833.8458
ENERGY: 200000 0.1450 1.4007 4.0807 0.0000 -13880.6698 2359.3548 0.0000 0.0000 351.5939 -11164.0946 60.5407 -11515.6886 -11162.6853 60.0854 -547.1426 -479.3168 28963.4932 4.2384 4.1612
TCL: Running 100000 steps at 90 kelvin.
TCL: Setting parameter langevinTemp to 90
TCL: Running for 100000 steps
ETITLE: TS BOND ANGLE DIHED IMPRP ELECT VDW BOUNDARY MISC KINETIC TOTAL TEMP POTENTIAL TOTAL3 TEMPAVG PRESSURE GPRESSURE VOLUME PRESSAVG GPRESSAVG
ENERGY: 200000 0.1450 1.4007 4.0807 0.0000 -13880.6698 2359.3548 0.0000 0.0000 351.4286 -11164.2600 60.5122 -11515.6886 -11163.4699 60.5122 -538.0756 -479.1776 28963.4932 -538.0756 -479.1776
ENERGY: 300000 0.4066 1.4555 4.8798 0.0000 -13873.9110 2403.4840 0.0000 0.0000 525.7246 -10937.9605 90.5241 -11463.6852 -10937.0143 89.9002 164.0072 190.2393 28619.0139 3.6258 3.6159
TCL: Running 100000 steps at 120 kelvin.
TCL: Setting parameter langevinTemp to 120
TCL: Running for 100000 steps
ETITLE: TS BOND ANGLE DIHED IMPRP ELECT VDW BOUNDARY MISC KINETIC TOTAL TEMP POTENTIAL TOTAL3 TEMPAVG PRESSURE GPRESSURE VOLUME PRESSAVG GPRESSAVG
ENERGY: 300000 0.4066 1.4555 4.8798 0.0000 -13873.9110 2403.4840 0.0000 0.0000 525.4598 -10938.2254 90.4785 -11463.6852 -10937.2148 90.4785 137.4770 190.3933 28619.0139 137.4770 190.3933
ENERGY: 400000 0.5186 4.9735 4.7324 0.0000 -13619.0604 2289.3499 0.0000 0.0000 686.6412 -10632.8447 118.2322 -11319.4860 -10631.1857 119.9970 -208.0556 -113.5035 28726.0529 4.6744 4.6339
TCL: Running 100000 steps at 150 kelvin.
TCL: Setting parameter langevinTemp to 150
TCL: Running for 100000 steps
ETITLE: TS BOND ANGLE DIHED IMPRP ELECT VDW BOUNDARY MISC KINETIC TOTAL TEMP POTENTIAL TOTAL3 TEMPAVG PRESSURE GPRESSURE VOLUME PRESSAVG GPRESSAVG
ENERGY: 400000 0.5186 4.9735 4.7324 0.0000 -13619.0604 2289.3499 0.0000 0.0000 686.2827 -10633.2033 118.1705 -11319.4860 -10631.8860 118.1705 -185.5795 -112.0234 28726.0529 -185.5795 -112.0234
ENERGY: 500000 0.1728 5.7496 5.2144 0.0000 -13301.1982 2138.9507 0.0000 0.0000 867.9764 -10283.1343 149.4561 -11151.1106 -10281.2083 149.7148 -726.6188 -673.2070 28551.4420 2.2860 2.3746
TCL: Running 100000 steps at 180 kelvin.
TCL: Setting parameter langevinTemp to 180
TCL: Running for 100000 steps
ETITLE: TS BOND ANGLE DIHED IMPRP ELECT VDW BOUNDARY MISC KINETIC TOTAL TEMP POTENTIAL TOTAL3 TEMPAVG PRESSURE GPRESSURE VOLUME PRESSAVG GPRESSAVG
ENERGY: 500000 0.1728 5.7496 5.2144 0.0000 -13301.1982 2138.9507 0.0000 0.0000 867.5436 -10283.5671 149.3816 -11151.1107 -10281.8056 149.3816 -710.0144 -673.4791 28551.4420 -710.0144 -673.4791
ENERGY: 600000 0.7890 2.6441 5.3093 0.0000 -13032.5705 2137.4881 0.0000 0.0000 1058.2354 -9828.1046 182.2167 -10886.3399 -9824.0265 179.9826 291.4465 366.6092 28369.4127 4.9059 4.9698
TCL: Running 100000 steps at 210 kelvin.
TCL: Setting parameter langevinTemp to 210
TCL: Running for 100000 steps
ETITLE: TS BOND ANGLE DIHED IMPRP ELECT VDW BOUNDARY MISC KINETIC TOTAL TEMP POTENTIAL TOTAL3 TEMPAVG PRESSURE GPRESSURE VOLUME PRESSAVG GPRESSAVG
ENERGY: 600000 0.7890 2.6441 5.3093 0.0000 -13032.5705 2137.4881 0.0000 0.0000 1057.7187 -9828.6212 182.1277 -10886.3399 -9826.5331 182.1277 313.4895 367.1856 28369.4127 313.4895 367.1856
ENERGY: 700000 0.6922 2.4295 5.7345 0.0000 -12314.1888 1887.4705 0.0000 0.0000 1239.5734 -9178.2887 213.4411 -10417.8621 -9175.7420 210.1454 68.4309 216.1510 28266.5109 3.2989 3.3163
TCL: Running 100000 steps at 240 kelvin.
TCL: Setting parameter langevinTemp to 240
TCL: Running for 100000 steps
ETITLE: TS BOND ANGLE DIHED IMPRP ELECT VDW BOUNDARY MISC KINETIC TOTAL TEMP POTENTIAL TOTAL3 TEMPAVG PRESSURE GPRESSURE VOLUME PRESSAVG GPRESSAVG
ENERGY: 700000 0.6922 2.4295 5.7345 0.0000 -12314.1888 1887.4705 0.0000 0.0000 1238.9666 -9178.8955 213.3367 -10417.8621 -9176.5055 213.3367 135.1731 215.8283 28266.5109 135.1731 215.8283
ENERGY: 800000 3.1533 3.0558 6.2175 0.0000 -11604.2791 1632.8361 0.0000 0.0000 1365.3540 -8593.6624 235.0992 -9959.0164 -8591.4899 240.1999 -390.2943 -251.0887 28490.7671 4.2873 4.2572
TCL: Running 100000 steps at 270 kelvin.
TCL: Setting parameter langevinTemp to 270
TCL: Running for 100000 steps
ETITLE: TS BOND ANGLE DIHED IMPRP ELECT VDW BOUNDARY MISC KINETIC TOTAL TEMP POTENTIAL TOTAL3 TEMPAVG PRESSURE GPRESSURE VOLUME PRESSAVG GPRESSAVG
ENERGY: 800000 3.1533 3.0558 6.2175 0.0000 -11604.2791 1632.8361 0.0000 0.0000 1364.6273 -8594.3891 234.9741 -9959.0164 -8592.3307 234.9741 -331.5929 -252.6794 28490.7671 -331.5929 -252.6794
ENERGY: 900000 0.6875 3.2229 4.5325 0.0000 -11043.4544 1490.8362 0.0000 0.0000 1540.1830 -8003.9924 265.2029 -9544.1754 -8002.3714 269.7516 -500.2131 -450.0108 29294.7772 1.6377 1.6051
TCL: Running 1000000 steps at 300 kelvin.
TCL: Setting parameter langevinTemp to 300
TCL: Running for 1000000 steps
ETITLE: TS BOND ANGLE DIHED IMPRP ELECT VDW BOUNDARY MISC KINETIC TOTAL TEMP POTENTIAL TOTAL3 TEMPAVG PRESSURE GPRESSURE VOLUME PRESSAVG GPRESSAVG
ENERGY: 900000 0.6875 3.2229 4.5325 0.0000 -11043.4544 1490.8362 0.0000 0.0000 1539.4167 -8004.7586 265.0709 -9544.1754 -8002.7621 265.0709 -541.9420 -450.4855 29294.7772 -541.9420 -450.4855
ENERGY: 1100000 1.5108 4.0646 7.6175 0.0000 -10629.6889 1371.8448 0.0000 0.0000 1689.8607 -7554.7906 290.9757 -9244.6512 -7551.0609 299.8861 -749.2390 -660.7177 30099.4579 4.6264 4.6417
ENERGY: 1300000 0.9466 8.0865 5.2678 0.0000 -10470.1920 1341.6176 0.0000 0.0000 1700.7426 -7413.5310 292.8495 -9114.2736 -7409.9945 300.8814 -674.0298 -555.5232 30057.9469 4.5789 4.6693
ENERGY: 1500000 0.2510 7.1125 4.5557 0.0000 -10531.3441 1395.7734 0.0000 0.0000 1800.3785 -7323.2729 310.0057 -9123.6514 -7321.2021 300.1638 -250.5648 -139.2990 30569.1513 4.0454 4.2542
ENERGY: 1700000 1.3665 5.6171 7.7978 0.0000 -10609.9443 1491.8644 0.0000 0.0000 1752.0719 -7351.2265 301.6878 -9103.2984 -7349.2354 300.5266 491.1859 657.3455 30472.9029 4.4657 4.5006
ENERGY: 1900000 1.9315 6.0427 6.7156 0.0000 -10621.1874 1451.5949 0.0000 0.0000 1784.4276 -7370.4752 307.2591 -9154.9028 -7367.2750 300.4076 283.2114 337.7040 30047.0740 3.8019 3.6875
TCL: Exiting due to exit command.
