Info: SIMULATION PARAMETERS:
Info: TIMESTEP               2
Info: NUMBER OF STEPS        0
Info: STEPS PER CYCLE        10
Info: PERIODIC CELL BASIS 1  36.592 0 0
Info: PERIODIC CELL BASIS 2  0 32.862 0
Info: PERIODIC CELL BASIS 3  0 0 36.199
Info: PERIODIC CELL CENTER   0 0 0
Info: WRAPPING WATERS AROUND PERIODIC BOUNDARIES ON OUTPUT.
Info: WRAPPING ALL CLUSTERS AROUND PERIODIC BOUNDARIES ON OUTPUT.
Info: FIRST LDB TIMESTEP     50
Info: LAST LDB TIMESTEP     -1
Info: HOM BACKGROUND SCALING 1
Info: PME BACKGROUND SCALING 1
Info: MIN ATOMS PER PATCH    40
Info: EMPTY PATCH LOAD       40 ATOMS
Info: INITIAL TEMPERATURE    300
Info: CENTER OF MASS MOVING INITIALLY? NO
Info: DIELECTRIC             1
Info: EXCLUDE                SCALED ONE-FOUR
Info: 1-4 ELECTROSTATICS SCALED BY 0.833333
Info: MODIFIED 1-4 VDW PARAMETERS WILL BE USED
Info: DCD FILENAME           mobley_3546460_equil.dcd
Info: DCD FREQUENCY          100000
Info: DCD FIRST STEP         100000
Info: DCD FILE WILL CONTAIN UNIT CELL DATA
Info: XST FILENAME           mobley_3546460_equil.xst
Info: XST FREQUENCY          100000
Info: NO VELOCITY DCD OUTPUT
Info: NO FORCE DCD OUTPUT
Info: OUTPUT FILENAME        mobley_3546460_equil
Info: BINARY OUTPUT FILES WILL BE USED
Info: RESTART FILENAME       mobley_3546460_equil.restart
Info: RESTART FREQUENCY      100000
Info: BINARY RESTART FILES WILL BE USED
Info: CUTOFF                 9
Info: PAIRLIST DISTANCE      11
Info: PAIRLIST SHRINK RATE   0.01
Info: PAIRLIST GROW RATE     0.01
Info: PAIRLIST TRIGGER       0.3
Info: PAIRLISTS PER CYCLE    2
Info: PAIRLISTS ENABLED
Info: MARGIN                 8
Info: HYDROGEN GROUP CUTOFF  2.5
Info: PATCH DIMENSION        21.5
Info: ENERGY OUTPUT STEPS    100000
Info: ENERGY EVALUATION STEPS    100000
Info: OUTPUT ENERGY PRECISION 4
Info: CROSSTERM ENERGY INCLUDED IN DIHEDRAL
Info: TIMING OUTPUT STEPS    1000000
Info: PRESSURE OUTPUT STEPS  100000
Info: LANGEVIN DYNAMICS ACTIVE
Info: LANGEVIN TEMPERATURE   30
Info: LANGEVIN USING BBK INTEGRATOR
Info: LANGEVIN DAMPING COEFFICIENT IS 1 INVERSE PS
Info: LANGEVIN DYNAMICS APPLIED TO HYDROGENS
Info: LANGEVIN PISTON PRESSURE CONTROL ACTIVE
Info:        TARGET PRESSURE IS 1.01325 BAR
Info:     OSCILLATION PERIOD IS 50 FS
Info:             DECAY TIME IS 25 FS
Info:     PISTON TEMPERATURE IS 300 K
Info:       PRESSURE CONTROL IS GROUP-BASED
Info:    INITIAL STRAIN RATE IS 0 0 0
Info:       CELL FLUCTUATION IS ISOTROPIC
Info: PARTICLE MESH EWALD (PME) ACTIVE
Info: PME TOLERANCE               1e-06
Info: PME EWALD COEFFICIENT       0.348832
Info: PME INTERPOLATION ORDER     4
Info: PME GRID DIMENSIONS         40 36 40
Info: PME MAXIMUM GRID SPACING    1
Info: FULL ELECTROSTATIC EVALUATION FREQUENCY      2
Info: USING VERLET I (r-RESPA) MTS SCHEME.
Info: C1 SPLITTING OF LONG RANGE ELECTROSTATICS
Info: PLACING ATOMS IN PATCHES BY HYDROGEN GROUPS
Info: RIGID BONDS TO HYDROGEN : ALL
Info:         ERROR TOLERANCE : 1e-08
Info:          MAX ITERATIONS : 100
Info: RIGID WATER USING SETTLE ALGORITHM
Info: RANDOM NUMBER SEED     1743254638
Info: USE HYDROGEN BONDS?    NO
Info: Using AMBER format force field!
Info: AMBER PARM FILE        mobley_3546460.prmtop
Info: COORDINATE PDB         mobley_3546460.pdb
Info: Exclusions will be read from PARM file!
Info: SCNB (VDW SCALING)     2
Info: USING ARITHMETIC MEAN TO COMBINE L-J SIGMA PARAMETERS
Info: BINARY COORDINATES     mobley_3546460_min.coor
Info: SUMMARY OF PARAMETERS:
Info: 7 BONDS
Info: 8 ANGLES
Info:   8 HARMONIC
Info:   0 COSINE-BASED
Info: 9 DIHEDRAL
Info: 0 IMPROPER
Info: 0 CROSSTERM
Info: 0 VDW
Info: 21 VDW_PAIRS
Info: 0 NBTHOLE_PAIRS
Info: STRUCTURE SUMMARY:
Info: 2901 ATOMS
Info: 2900 BONDS
Info: 37 ANGLES
Info: 57 DIHEDRALS
Info: 0 IMPROPERS
Info: 0 CROSSTERMS
Info: 2985 EXCLUSIONS
Info: 2894 RIGID BONDS
Info: 5809 DEGREES OF FREEDOM
Info: 967 HYDROGEN GROUPS
Info: 4 ATOMS IN LARGEST HYDROGEN GROUP
Info: 967 MIGRATION GROUPS
Info: 4 ATOMS IN LARGEST MIGRATION GROUP
Info: TOTAL MASS = 17397.5 amu
Info: TOTAL CHARGE = -2.6077e-08 e
Info: MASS DENSITY = 0.663698 g/cm^3
Info: ATOM DENSITY = 0.0666455 atoms/A^3
Info: ADDED 0 IMPLICIT EXCLUSIONS
Info: NONBONDED TABLE R-SQUARED SPACING: 0.0625
Info: NONBONDED TABLE SIZE: 705 POINTS
Info: REMOVING COM VELOCITY -0.237149 0.118703 0.0419131
TCL: Running for 100000 steps
ETITLE: TS BOND ANGLE DIHED IMPRP ELECT VDW BOUNDARY MISC KINETIC TOTAL TEMP POTENTIAL TOTAL3 TEMPAVG PRESSURE GPRESSURE VOLUME PRESSAVG GPRESSAVG
ENERGY: 0 0.0870 0.1832 2.7752 0.0000 -13402.4933 2362.9281 0.0000 0.0000 1718.1455 -9318.3743 297.6795 -11036.5198 -9318.0313 297.6795 483.6032 517.2335 43528.8017 483.6032 517.2335
ENERGY: 100000 0.4443 1.2328 3.2551 0.0000 -13879.6296 2335.2850 0.0000 0.0000 172.9078 -11366.5046 29.9574 -11539.4124 -11365.9915 30.9270 -715.1430 -637.1710 28187.1141 4.8617 4.8250
TCL: Running 100000 steps at 60 kelvin.
TCL: Setting parameter langevinTemp to 60
TCL: Running for 100000 steps
ETITLE: TS BOND ANGLE DIHED IMPRP ELECT VDW BOUNDARY MISC KINETIC TOTAL TEMP POTENTIAL TOTAL3 TEMPAVG PRESSURE GPRESSURE VOLUME PRESSAVG GPRESSAVG
ENERGY: 100000 0.4443 1.2328 3.2551 0.0000 -13879.6296 2335.2850 0.0000 0.0000 172.8182 -11366.5942 29.9418 -11539.4124 -11366.2132 29.9418 -696.8770 -637.0860 28187.1141 -696.8770 -637.0860
ENERGY: 200000 0.2833 1.5033 3.3494 0.0000 -13911.7249 2466.1398 0.0000 0.0000 347.2201 -11093.2291 60.1581 -11440.4492 -11092.4415 60.0012 771.6975 832.7231 27980.0475 3.9172 3.8755
TCL: Running 100000 steps at 90 kelvin.
TCL: Setting parameter langevinTemp to 90
TCL: Running for 100000 steps
ETITLE: TS BOND ANGLE DIHED IMPRP ELECT VDW BOUNDARY MISC KINETIC TOTAL TEMP POTENTIAL TOTAL3 TEMPAVG PRESSURE GPRESSURE VOLUME PRESSAVG GPRESSAVG
ENERGY: 200000 0.2833 1.5033 3.3494 0.0000 -13911.7249 2466.1398 0.0000 0.0000 347.0479 -11093.4013 60.1282 -11440.4492 -11092.7766 60.1282 784.7990 833.2456 27980.0475 784.7990 833.2456
ENERGY: 300000 0.4636 2.7278 2.5595 0.0000 -13625.6374 2303.3521 0.0000 0.0000 524.0193 -10792.5151 90.7896 -11316.5344 -10791.4787 89.9365 77.8201 85.4926 27950.8198 3.0569 2.9875
TCL: Running 100000 steps at 120 kelvin.
TCL: Setting parameter langevinTemp to 120
TCL: Running for 100000 steps
ETITLE: TS BOND ANGLE DIHED IMPRP ELECT VDW BOUNDARY MISC KINETIC TOTAL TEMP POTENTIAL TOTAL3 TEMPAVG PRESSURE GPRESSURE VOLUME PRESSAVG GPRESSAVG
ENERGY: 300000 0.4636 2.7278 2.5595 0.0000 -13625.6374 2303.3521 0.0000 0.0000 523.7624 -10792.7720 90.7451 -11316.5344 -10791.8344 90.7451 21.4775 85.4179 27950.8198 21.4775 85.4179
ENERGY: 400000 0.5503 4.0774 2.6241 0.0000 -13452.4745 2236.4430 0.0000 0.0000 710.8934 -10497.8864 123.1667 -11208.7798 -10496.2551 120.2658 -267.6463 -194.7898 28104.4534 2.5878 2.5608
TCL: Running 100000 steps at 150 kelvin.
TCL: Setting parameter langevinTemp to 150
TCL: Running for 100000 steps
ETITLE: TS BOND ANGLE DIHED IMPRP ELECT VDW BOUNDARY MISC KINETIC TOTAL TEMP POTENTIAL TOTAL3 TEMPAVG PRESSURE GPRESSURE VOLUME PRESSAVG GPRESSAVG
ENERGY: 400000 0.5503 4.0774 2.6241 0.0000 -13452.4745 2236.4430 0.0000 0.0000 710.5420 -10498.2377 123.1059 -11208.7798 -10496.8653 123.1059 -265.6685 -195.3769 28104.4534 -265.6685 -195.3769
ENERGY: 500000 1.9050 5.1633 3.4625 0.0000 -13202.2889 2145.7283 0.0000 0.0000 859.8400 -10186.1899 148.9727 -11046.0299 -10183.9558 150.0303 -434.0418 -446.5326 28315.8857 4.8848 4.9508
TCL: Running 100000 steps at 180 kelvin.
TCL: Setting parameter langevinTemp to 180
TCL: Running for 100000 steps
ETITLE: TS BOND ANGLE DIHED IMPRP ELECT VDW BOUNDARY MISC KINETIC TOTAL TEMP POTENTIAL TOTAL3 TEMPAVG PRESSURE GPRESSURE VOLUME PRESSAVG GPRESSAVG
ENERGY: 500000 1.9050 5.1633 3.4625 0.0000 -13202.2889 2145.7283 0.0000 0.0000 859.4001 -10186.6298 148.8965 -11046.0299 -10184.8365 148.8965 -489.2523 -446.9842 28315.8857 -489.2523 -446.9842
ENERGY: 600000 3.2899 6.3077 2.8712 0.0000 -12871.2534 2086.2182 0.0000 0.0000 1031.6689 -9740.8976 178.7431 -10772.5665 -9738.5806 180.1804 121.9604 186.4619 28280.0471 4.1740 4.5047
TCL: Running 100000 steps at 210 kelvin.
TCL: Setting parameter langevinTemp to 210
TCL: Running for 100000 steps
ETITLE: TS BOND ANGLE DIHED IMPRP ELECT VDW BOUNDARY MISC KINETIC TOTAL TEMP POTENTIAL TOTAL3 TEMPAVG PRESSURE GPRESSURE VOLUME PRESSAVG GPRESSAVG
ENERGY: 600000 3.2899 6.3077 2.8712 0.0000 -12871.2534 2086.2182 0.0000 0.0000 1031.1591 -9741.4074 178.6548 -10772.5665 -9739.3011 178.6548 118.7348 185.4183 28280.0471 118.7348 185.4183
ENERGY: 700000 2.7323 7.8119 3.5198 0.0000 -12089.1799 1794.8941 0.0000 0.0000 1184.1430 -9096.0788 205.1602 -10280.2218 -9093.8186 210.1570 -501.2403 -437.5909 28304.9917 3.0389 3.0746
TCL: Running 100000 steps at 240 kelvin.
TCL: Setting parameter langevinTemp to 240
TCL: Running for 100000 steps
ETITLE: TS BOND ANGLE DIHED IMPRP ELECT VDW BOUNDARY MISC KINETIC TOTAL TEMP POTENTIAL TOTAL3 TEMPAVG PRESSURE GPRESSURE VOLUME PRESSAVG GPRESSAVG
ENERGY: 700000 2.7323 7.8119 3.5198 0.0000 -12089.1799 1794.8941 0.0000 0.0000 1183.5543 -9096.6675 205.0582 -10280.2218 -9094.2563 205.0582 -526.6038 -438.1273 28304.9917 -526.6038 -438.1273
ENERGY: 800000 0.9350 7.8667 2.6464 0.0000 -11450.5882 1627.9578 0.0000 0.0000 1359.2395 -8451.9427 235.4968 -9811.1822 -8448.2778 240.2261 -222.6726 -166.9051 28635.8264 4.6511 4.5244
TCL: Running 100000 steps at 270 kelvin.
TCL: Setting parameter langevinTemp to 270
TCL: Running for 100000 steps
ETITLE: TS BOND ANGLE DIHED IMPRP ELECT VDW BOUNDARY MISC KINETIC TOTAL TEMP POTENTIAL TOTAL3 TEMPAVG PRESSURE GPRESSURE VOLUME PRESSAVG GPRESSAVG
ENERGY: 800000 0.9350 7.8667 2.6464 0.0000 -11450.5882 1627.9578 0.0000 0.0000 1358.5487 -8452.6335 235.3771 -9811.1822 -8450.7062 235.3771 -248.8208 -166.3564 28635.8264 -248.8208 -166.3564
ENERGY: 900000 1.5296 8.8921 4.2425 0.0000 -10980.9897 1473.2468 0.0000 0.0000 1552.6114 -7940.4674 268.9997 -9493.0788 -7938.4645 269.6852 -356.4583 -345.9293 28734.9678 2.9627 2.8347
TCL: Running 1000000 steps at 300 kelvin.
TCL: Setting parameter langevinTemp to 300
TCL: Running for 1000000 steps
ETITLE: TS BOND ANGLE DIHED IMPRP ELECT VDW BOUNDARY MISC KINETIC TOTAL TEMP POTENTIAL TOTAL3 TEMPAVG PRESSURE GPRESSURE VOLUME PRESSAVG GPRESSAVG
ENERGY: 900000 1.5296 8.8921 4.2425 0.0000 -10980.9897 1473.2468 0.0000 0.0000 1551.8404 -7941.2384 268.8661 -9493.0788 -7939.5165 268.8661 -438.0901 -345.7857 28734.9678 -438.0901 -345.7857
ENERGY: 1100000 1.1468 15.2853 3.9708 0.0000 -10476.2253 1407.0831 0.0000 0.0000 1731.7231 -7317.0162 300.0319 -9048.7394 -7313.0754 299.7311 -13.7543 95.5087 29946.9070 2.5725 2.7236
ENERGY: 1300000 3.3540 10.5239 2.8147 0.0000 -10278.0897 1308.7216 0.0000 0.0000 1712.8724 -7239.8030 296.7659 -8952.6754 -7236.8429 300.3419 -552.5912 -486.1337 29915.5315 2.0818 1.9797
ENERGY: 1500000 0.4680 6.6392 2.8889 0.0000 -10399.8813 1319.9040 0.0000 0.0000 1732.2193 -7337.7620 300.1179 -9069.9813 -7332.3362 300.2310 -1023.0763 -981.0542 30618.8320 2.2652 2.3823
ENERGY: 1700000 4.7256 6.6319 2.2997 0.0000 -10515.7548 1414.1487 0.0000 0.0000 1743.5067 -7344.4422 302.0735 -9087.9489 -7339.1363 300.4483 -258.3939 -173.9556 29921.9933 4.4940 4.5408
ENERGY: 1900000 1.3777 8.9691 2.7658 0.0000 -10507.3421 1399.9178 0.0000 0.0000 1747.1849 -7347.1267 302.7108 -9094.3116 -7343.2091 300.4102 -312.0483 -317.5410 30293.5565 4.9221 4.7283
TCL: Exiting due to exit command.
