Info: SIMULATION PARAMETERS:
Info: TIMESTEP               2
Info: NUMBER OF STEPS        0
Info: STEPS PER CYCLE        10
Info: PERIODIC CELL BASIS 1  36.281 0 0
Info: PERIODIC CELL BASIS 2  0 34.26 0
Info: PERIODIC CELL BASIS 3  0 0 36.199
Info: PERIODIC CELL CENTER   0 0 0
Info: WRAPPING WATERS AROUND PERIODIC BOUNDARIES ON OUTPUT.
Info: WRAPPING ALL CLUSTERS AROUND PERIODIC BOUNDARIES ON OUTPUT.
Info: FIRST LDB TIMESTEP     50
Info: LAST LDB TIMESTEP     -1
Info: HOM BACKGROUND SCALING 1
Info: PME BACKGROUND SCALING 1
Info: MIN ATOMS PER PATCH    40
Info: EMPTY PATCH LOAD       40 ATOMS
Info: INITIAL TEMPERATURE    300
Info: CENTER OF MASS MOVING INITIALLY? NO
Info: DIELECTRIC             1
Info: EXCLUDE                SCALED ONE-FOUR
Info: 1-4 ELECTROSTATICS SCALED BY 0.833333
Info: MODIFIED 1-4 VDW PARAMETERS WILL BE USED
Info: DCD FILENAME           mobley_1417007_equil.dcd
Info: DCD FREQUENCY          100000
Info: DCD FIRST STEP         100000
Info: DCD FILE WILL CONTAIN UNIT CELL DATA
Info: XST FILENAME           mobley_1417007_equil.xst
Info: XST FREQUENCY          100000
Info: NO VELOCITY DCD OUTPUT
Info: NO FORCE DCD OUTPUT
Info: OUTPUT FILENAME        mobley_1417007_equil
Info: BINARY OUTPUT FILES WILL BE USED
Info: RESTART FILENAME       mobley_1417007_equil.restart
Info: RESTART FREQUENCY      100000
Info: BINARY RESTART FILES WILL BE USED
Info: CUTOFF                 9
Info: PAIRLIST DISTANCE      11
Info: PAIRLIST SHRINK RATE   0.01
Info: PAIRLIST GROW RATE     0.01
Info: PAIRLIST TRIGGER       0.3
Info: PAIRLISTS PER CYCLE    2
Info: PAIRLISTS ENABLED
Info: MARGIN                 8
Info: HYDROGEN GROUP CUTOFF  2.5
Info: PATCH DIMENSION        21.5
Info: ENERGY OUTPUT STEPS    100000
Info: ENERGY EVALUATION STEPS    100000
Info: OUTPUT ENERGY PRECISION 4
Info: CROSSTERM ENERGY INCLUDED IN DIHEDRAL
Info: TIMING OUTPUT STEPS    1000000
Info: PRESSURE OUTPUT STEPS  100000
Info: LANGEVIN DYNAMICS ACTIVE
Info: LANGEVIN TEMPERATURE   30
Info: LANGEVIN USING BBK INTEGRATOR
Info: LANGEVIN DAMPING COEFFICIENT IS 1 INVERSE PS
Info: LANGEVIN DYNAMICS APPLIED TO HYDROGENS
Info: LANGEVIN PISTON PRESSURE CONTROL ACTIVE
Info:        TARGET PRESSURE IS 1.01325 BAR
Info:     OSCILLATION PERIOD IS 50 FS
Info:             DECAY TIME IS 25 FS
Info:     PISTON TEMPERATURE IS 300 K
Info:       PRESSURE CONTROL IS GROUP-BASED
Info:    INITIAL STRAIN RATE IS 0 0 0
Info:       CELL FLUCTUATION IS ISOTROPIC
Info: PARTICLE MESH EWALD (PME) ACTIVE
Info: PME TOLERANCE               1e-06
Info: PME EWALD COEFFICIENT       0.348832
Info: PME INTERPOLATION ORDER     4
Info: PME GRID DIMENSIONS         40 36 40
Info: PME MAXIMUM GRID SPACING    1
Info: FULL ELECTROSTATIC EVALUATION FREQUENCY      2
Info: USING VERLET I (r-RESPA) MTS SCHEME.
Info: C1 SPLITTING OF LONG RANGE ELECTROSTATICS
Info: PLACING ATOMS IN PATCHES BY HYDROGEN GROUPS
Info: RIGID BONDS TO HYDROGEN : ALL
Info:         ERROR TOLERANCE : 1e-08
Info:          MAX ITERATIONS : 100
Info: RIGID WATER USING SETTLE ALGORITHM
Info: RANDOM NUMBER SEED     1743236530
Info: USE HYDROGEN BONDS?    NO
Info: Using AMBER format force field!
Info: AMBER PARM FILE        mobley_1417007.prmtop
Info: COORDINATE PDB         mobley_1417007.pdb
Info: Exclusions will be read from PARM file!
Info: SCNB (VDW SCALING)     2
Info: USING ARITHMETIC MEAN TO COMBINE L-J SIGMA PARAMETERS
Info: BINARY COORDINATES     mobley_1417007_min.coor
Info: SUMMARY OF PARAMETERS:
Info: 13 BONDS
Info: 18 ANGLES
Info:   18 HARMONIC
Info:   0 COSINE-BASED
Info: 21 DIHEDRAL
Info: 0 IMPROPER
Info: 0 CROSSTERM
Info: 0 VDW
Info: 55 VDW_PAIRS
Info: 0 NBTHOLE_PAIRS
Info: STRUCTURE SUMMARY:
Info: 2940 ATOMS
Info: 2941 BONDS
Info: 46 ANGLES
Info: 92 DIHEDRALS
Info: 0 IMPROPERS
Info: 0 CROSSTERMS
Info: 3047 EXCLUSIONS
Info: 2924 RIGID BONDS
Info: 5896 DEGREES OF FREEDOM
Info: 988 HYDROGEN GROUPS
Info: 3 ATOMS IN LARGEST HYDROGEN GROUP
Info: 988 MIGRATION GROUPS
Info: 3 ATOMS IN LARGEST MIGRATION GROUP
Info: TOTAL MASS = 17812.1 amu
Info: TOTAL CHARGE = -9.99868e-05 e
Info: MASS DENSITY = 0.657373 g/cm^3
Info: ATOM DENSITY = 0.0653408 atoms/A^3
Info: ADDED 0 IMPLICIT EXCLUSIONS
Info: NONBONDED TABLE R-SQUARED SPACING: 0.0625
Info: NONBONDED TABLE SIZE: 705 POINTS
Info: REMOVING COM VELOCITY 0.011386 0.146575 0.0672874
TCL: Running for 100000 steps
ETITLE: TS BOND ANGLE DIHED IMPRP ELECT VDW BOUNDARY MISC KINETIC TOTAL TEMP POTENTIAL TOTAL3 TEMPAVG PRESSURE GPRESSURE VOLUME PRESSAVG GPRESSAVG
ENERGY: 0 0.4541 16.6788 8.0208 0.0000 -13548.8905 2397.4222 0.0000 0.0000 1820.0777 -9306.2369 310.6868 -11126.3146 -9305.8584 310.6868 636.6280 670.4094 44994.8886 636.6280 670.4094
ENERGY: 100000 1.1121 17.6080 8.4386 0.0000 -14294.9589 2601.2540 0.0000 0.0000 170.2653 -11496.2808 29.0642 -11666.5461 -11495.8504 30.9521 1397.6569 1454.9162 28749.1786 2.6570 2.6615
TCL: Running 100000 steps at 60 kelvin.
TCL: Setting parameter langevinTemp to 60
TCL: Running for 100000 steps
ETITLE: TS BOND ANGLE DIHED IMPRP ELECT VDW BOUNDARY MISC KINETIC TOTAL TEMP POTENTIAL TOTAL3 TEMPAVG PRESSURE GPRESSURE VOLUME PRESSAVG GPRESSAVG
ENERGY: 100000 1.1121 17.6080 8.4386 0.0000 -14294.9589 2601.2540 0.0000 0.0000 170.1780 -11496.3681 29.0493 -11666.5461 -11496.1343 29.0493 1396.5892 1454.9525 28749.1786 1396.5892 1454.9525
ENERGY: 200000 1.0657 18.7601 8.4359 0.0000 -13995.8032 2358.1258 0.0000 0.0000 353.2995 -11256.1162 60.3081 -11609.4157 -11255.1506 59.9189 -241.2194 -158.6884 28578.9123 3.7945 3.8047
TCL: Running 100000 steps at 90 kelvin.
TCL: Setting parameter langevinTemp to 90
TCL: Running for 100000 steps
ETITLE: TS BOND ANGLE DIHED IMPRP ELECT VDW BOUNDARY MISC KINETIC TOTAL TEMP POTENTIAL TOTAL3 TEMPAVG PRESSURE GPRESSURE VOLUME PRESSAVG GPRESSAVG
ENERGY: 200000 1.0657 18.7601 8.4359 0.0000 -13995.8032 2358.1258 0.0000 0.0000 353.1364 -11256.2793 60.2803 -11609.4157 -11255.4160 60.2803 -219.2277 -158.6023 28578.9123 -219.2277 -158.6023
ENERGY: 300000 2.2324 20.4276 8.5878 0.0000 -13912.0513 2383.1023 0.0000 0.0000 531.5291 -10966.1721 90.7319 -11497.7012 -10965.2325 90.1029 705.0506 789.6062 28043.5598 3.6976 3.6331
TCL: Running 100000 steps at 120 kelvin.
TCL: Setting parameter langevinTemp to 120
TCL: Running for 100000 steps
ETITLE: TS BOND ANGLE DIHED IMPRP ELECT VDW BOUNDARY MISC KINETIC TOTAL TEMP POTENTIAL TOTAL3 TEMPAVG PRESSURE GPRESSURE VOLUME PRESSAVG GPRESSAVG
ENERGY: 300000 2.2324 20.4276 8.5878 0.0000 -13912.0513 2383.1023 0.0000 0.0000 531.2521 -10966.4491 90.6846 -11497.7012 -10965.4968 90.6846 739.4284 789.5344 28043.5598 739.4284 789.5344
ENERGY: 400000 2.4103 21.1615 9.0989 0.0000 -13652.2712 2208.0973 0.0000 0.0000 709.5768 -10701.9263 121.1246 -11411.5031 -10699.2219 119.8659 -889.5761 -816.2991 28675.3866 2.8857 2.7613
TCL: Running 100000 steps at 150 kelvin.
TCL: Setting parameter langevinTemp to 150
TCL: Running for 100000 steps
ETITLE: TS BOND ANGLE DIHED IMPRP ELECT VDW BOUNDARY MISC KINETIC TOTAL TEMP POTENTIAL TOTAL3 TEMPAVG PRESSURE GPRESSURE VOLUME PRESSAVG GPRESSAVG
ENERGY: 400000 2.4103 21.1615 9.0989 0.0000 -13652.2712 2208.0973 0.0000 0.0000 709.2263 -10702.2768 121.0648 -11411.5031 -10700.5621 121.0648 -865.2285 -816.4733 28675.3866 -865.2285 -816.4733
ENERGY: 500000 2.3332 22.0493 9.9945 0.0000 -13424.8945 2194.9145 0.0000 0.0000 890.4348 -10305.1682 151.9970 -11195.6030 -10302.0101 150.1271 -30.9072 29.1559 28598.9422 4.4960 4.5240
TCL: Running 100000 steps at 180 kelvin.
TCL: Setting parameter langevinTemp to 180
TCL: Running for 100000 steps
ETITLE: TS BOND ANGLE DIHED IMPRP ELECT VDW BOUNDARY MISC KINETIC TOTAL TEMP POTENTIAL TOTAL3 TEMPAVG PRESSURE GPRESSURE VOLUME PRESSAVG GPRESSAVG
ENERGY: 500000 2.3332 22.0493 9.9945 0.0000 -13424.8945 2194.9145 0.0000 0.0000 889.9935 -10305.6094 151.9217 -11195.6030 -10303.8662 151.9217 -23.2995 30.6135 28598.9422 -23.2995 30.6135
ENERGY: 600000 2.8788 20.9383 9.2821 0.0000 -13030.8919 2065.4346 0.0000 0.0000 1072.5940 -9859.7641 183.0915 -10932.3581 -9857.0972 179.8800 -206.1894 -174.0632 29022.9138 3.8475 3.9451
TCL: Running 100000 steps at 210 kelvin.
TCL: Setting parameter langevinTemp to 210
TCL: Running for 100000 steps
ETITLE: TS BOND ANGLE DIHED IMPRP ELECT VDW BOUNDARY MISC KINETIC TOTAL TEMP POTENTIAL TOTAL3 TEMPAVG PRESSURE GPRESSURE VOLUME PRESSAVG GPRESSAVG
ENERGY: 600000 2.8788 20.9383 9.2821 0.0000 -13030.8919 2065.4346 0.0000 0.0000 1072.0746 -9860.2836 183.0029 -10932.3581 -9857.6999 183.0029 -240.3774 -174.0106 29022.9138 -240.3774 -174.0106
ENERGY: 700000 5.4267 25.7342 9.3508 0.0000 -12355.6821 1788.5306 0.0000 0.0000 1223.8672 -9302.7725 208.9138 -10526.6397 -9300.4887 209.9988 -1049.9397 -978.9811 28821.7050 4.4134 4.3597
TCL: Running 100000 steps at 240 kelvin.
TCL: Setting parameter langevinTemp to 240
TCL: Running for 100000 steps
ETITLE: TS BOND ANGLE DIHED IMPRP ELECT VDW BOUNDARY MISC KINETIC TOTAL TEMP POTENTIAL TOTAL3 TEMPAVG PRESSURE GPRESSURE VOLUME PRESSAVG GPRESSAVG
ENERGY: 700000 5.4267 25.7342 9.3508 0.0000 -12355.6821 1788.5306 0.0000 0.0000 1223.2444 -9303.3953 208.8075 -10526.6397 -9300.7246 208.8075 -1055.2283 -979.4588 28821.7050 -1055.2283 -979.4588
ENERGY: 800000 3.9476 21.5284 9.7320 0.0000 -11695.9078 1670.6906 0.0000 0.0000 1409.6518 -8580.3574 240.6272 -9990.0092 -8578.6468 240.0560 -414.8643 -336.5283 29456.7874 3.6210 3.7339
TCL: Running 100000 steps at 270 kelvin.
TCL: Setting parameter langevinTemp to 270
TCL: Running for 100000 steps
ETITLE: TS BOND ANGLE DIHED IMPRP ELECT VDW BOUNDARY MISC KINETIC TOTAL TEMP POTENTIAL TOTAL3 TEMPAVG PRESSURE GPRESSURE VOLUME PRESSAVG GPRESSAVG
ENERGY: 800000 3.9476 21.5284 9.7320 0.0000 -11695.9078 1670.6906 0.0000 0.0000 1408.9442 -8581.0650 240.5064 -9990.0092 -8578.4955 240.5064 -417.1750 -338.2104 29456.7874 -417.1750 -338.2104
ENERGY: 900000 8.3159 25.5740 11.2102 0.0000 -11104.9882 1513.2975 0.0000 0.0000 1546.0618 -8000.5287 263.9124 -9546.5906 -7998.2965 269.8856 -161.0103 -133.6206 29637.5271 4.4556 4.4153
TCL: Running 1000000 steps at 300 kelvin.
TCL: Setting parameter langevinTemp to 300
TCL: Running for 1000000 steps
ETITLE: TS BOND ANGLE DIHED IMPRP ELECT VDW BOUNDARY MISC KINETIC TOTAL TEMP POTENTIAL TOTAL3 TEMPAVG PRESSURE GPRESSURE VOLUME PRESSAVG GPRESSAVG
ENERGY: 900000 8.3159 25.5740 11.2102 0.0000 -11104.9882 1513.2975 0.0000 0.0000 1545.3000 -8001.2906 263.7823 -9546.5906 -7998.6895 263.7823 -201.6922 -134.1490 29637.5271 -201.6922 -134.1490
ENERGY: 1100000 2.2968 21.9012 10.6169 0.0000 -10515.6752 1296.9255 0.0000 0.0000 1716.9400 -7466.9947 293.0812 -9183.9347 -7464.3565 300.2537 -1244.7717 -1157.5000 31043.3438 3.2158 3.0969
ENERGY: 1300000 11.7996 25.8552 10.0396 0.0000 -10691.3609 1466.3121 0.0000 0.0000 1764.0484 -7413.3061 301.1226 -9177.3545 -7411.0441 300.4189 289.2792 391.7909 30280.6402 4.8661 4.8095
ENERGY: 1500000 7.8442 25.2238 8.9468 0.0000 -10611.3492 1400.8897 0.0000 0.0000 1715.1537 -7453.2911 292.7763 -9168.4447 -7449.3847 300.4054 -574.0092 -499.5901 30673.2277 3.6902 3.6763
ENERGY: 1700000 7.5592 26.6515 8.9311 0.0000 -10740.9036 1483.1881 0.0000 0.0000 1779.8321 -7434.7416 303.8169 -9214.5736 -7431.2067 299.8702 399.1054 523.9519 30236.8809 1.6944 1.8215
ENERGY: 1900000 6.1969 27.9749 11.9849 0.0000 -10710.5707 1437.0730 0.0000 0.0000 1740.6214 -7486.7196 297.1237 -9227.3411 -7484.4661 300.0103 202.0298 222.6497 30016.1404 4.4255 4.2636
TCL: Exiting due to exit command.
