Info: SIMULATION PARAMETERS:
Info: TIMESTEP               2
Info: NUMBER OF STEPS        0
Info: STEPS PER CYCLE        10
Info: PERIODIC CELL BASIS 1  34.207 0 0
Info: PERIODIC CELL BASIS 2  0 36.762 0
Info: PERIODIC CELL BASIS 3  0 0 34.954
Info: PERIODIC CELL CENTER   0 0 0
Info: WRAPPING WATERS AROUND PERIODIC BOUNDARIES ON OUTPUT.
Info: WRAPPING ALL CLUSTERS AROUND PERIODIC BOUNDARIES ON OUTPUT.
Info: FIRST LDB TIMESTEP     50
Info: LAST LDB TIMESTEP     -1
Info: HOM BACKGROUND SCALING 1
Info: PME BACKGROUND SCALING 1
Info: MIN ATOMS PER PATCH    40
Info: EMPTY PATCH LOAD       40 ATOMS
Info: INITIAL TEMPERATURE    300
Info: CENTER OF MASS MOVING INITIALLY? NO
Info: DIELECTRIC             1
Info: EXCLUDE                SCALED ONE-FOUR
Info: 1-4 ELECTROSTATICS SCALED BY 0.833333
Info: MODIFIED 1-4 VDW PARAMETERS WILL BE USED
Info: DCD FILENAME           mobley_5616693_equil.dcd
Info: DCD FREQUENCY          100000
Info: DCD FIRST STEP         100000
Info: DCD FILE WILL CONTAIN UNIT CELL DATA
Info: XST FILENAME           mobley_5616693_equil.xst
Info: XST FREQUENCY          100000
Info: NO VELOCITY DCD OUTPUT
Info: NO FORCE DCD OUTPUT
Info: OUTPUT FILENAME        mobley_5616693_equil
Info: BINARY OUTPUT FILES WILL BE USED
Info: RESTART FILENAME       mobley_5616693_equil.restart
Info: RESTART FREQUENCY      100000
Info: BINARY RESTART FILES WILL BE USED
Info: CUTOFF                 9
Info: PAIRLIST DISTANCE      11
Info: PAIRLIST SHRINK RATE   0.01
Info: PAIRLIST GROW RATE     0.01
Info: PAIRLIST TRIGGER       0.3
Info: PAIRLISTS PER CYCLE    2
Info: PAIRLISTS ENABLED
Info: MARGIN                 8
Info: HYDROGEN GROUP CUTOFF  2.5
Info: PATCH DIMENSION        21.5
Info: ENERGY OUTPUT STEPS    100000
Info: ENERGY EVALUATION STEPS    100000
Info: OUTPUT ENERGY PRECISION 4
Info: CROSSTERM ENERGY INCLUDED IN DIHEDRAL
Info: TIMING OUTPUT STEPS    1000000
Info: PRESSURE OUTPUT STEPS  100000
Info: LANGEVIN DYNAMICS ACTIVE
Info: LANGEVIN TEMPERATURE   30
Info: LANGEVIN USING BBK INTEGRATOR
Info: LANGEVIN DAMPING COEFFICIENT IS 1 INVERSE PS
Info: LANGEVIN DYNAMICS APPLIED TO HYDROGENS
Info: LANGEVIN PISTON PRESSURE CONTROL ACTIVE
Info:        TARGET PRESSURE IS 1.01325 BAR
Info:     OSCILLATION PERIOD IS 50 FS
Info:             DECAY TIME IS 25 FS
Info:     PISTON TEMPERATURE IS 300 K
Info:       PRESSURE CONTROL IS GROUP-BASED
Info:    INITIAL STRAIN RATE IS 0 0 0
Info:       CELL FLUCTUATION IS ISOTROPIC
Info: PARTICLE MESH EWALD (PME) ACTIVE
Info: PME TOLERANCE               1e-06
Info: PME EWALD COEFFICIENT       0.348832
Info: PME INTERPOLATION ORDER     4
Info: PME GRID DIMENSIONS         36 40 36
Info: PME MAXIMUM GRID SPACING    1
Info: FULL ELECTROSTATIC EVALUATION FREQUENCY      2
Info: USING VERLET I (r-RESPA) MTS SCHEME.
Info: C1 SPLITTING OF LONG RANGE ELECTROSTATICS
Info: PLACING ATOMS IN PATCHES BY HYDROGEN GROUPS
Info: RIGID BONDS TO HYDROGEN : ALL
Info:         ERROR TOLERANCE : 1e-08
Info:          MAX ITERATIONS : 100
Info: RIGID WATER USING SETTLE ALGORITHM
Info: RANDOM NUMBER SEED     1743239679
Info: USE HYDROGEN BONDS?    NO
Info: Using AMBER format force field!
Info: AMBER PARM FILE        mobley_5616693.prmtop
Info: COORDINATE PDB         mobley_5616693.pdb
Info: Exclusions will be read from PARM file!
Info: SCNB (VDW SCALING)     2
Info: USING ARITHMETIC MEAN TO COMBINE L-J SIGMA PARAMETERS
Info: BINARY COORDINATES     mobley_5616693_min.coor
Info: SUMMARY OF PARAMETERS:
Info: 6 BONDS
Info: 7 ANGLES
Info:   7 HARMONIC
Info:   0 COSINE-BASED
Info: 11 DIHEDRAL
Info: 0 IMPROPER
Info: 0 CROSSTERM
Info: 0 VDW
Info: 21 VDW_PAIRS
Info: 0 NBTHOLE_PAIRS
Info: STRUCTURE SUMMARY:
Info: 2906 ATOMS
Info: 2906 BONDS
Info: 57 ANGLES
Info: 103 DIHEDRALS
Info: 0 IMPROPERS
Info: 0 CROSSTERMS
Info: 3044 EXCLUSIONS
Info: 2895 RIGID BONDS
Info: 5823 DEGREES OF FREEDOM
Info: 970 HYDROGEN GROUPS
Info: 4 ATOMS IN LARGEST HYDROGEN GROUP
Info: 970 MIGRATION GROUPS
Info: 4 ATOMS IN LARGEST MIGRATION GROUP
Info: TOTAL MASS = 17431.6 amu
Info: TOTAL CHARGE = -0.000100005 e
Info: MASS DENSITY = 0.658545 g/cm^3
Info: ATOM DENSITY = 0.0661127 atoms/A^3
Info: ADDED 0 IMPLICIT EXCLUSIONS
Info: NONBONDED TABLE R-SQUARED SPACING: 0.0625
Info: NONBONDED TABLE SIZE: 705 POINTS
Info: REMOVING COM VELOCITY 0.14011 -0.0409101 -0.0966327
TCL: Running for 100000 steps
ETITLE: TS BOND ANGLE DIHED IMPRP ELECT VDW BOUNDARY MISC KINETIC TOTAL TEMP POTENTIAL TOTAL3 TEMPAVG PRESSURE GPRESSURE VOLUME PRESSAVG GPRESSAVG
ENERGY: 0 0.5902 1.9503 5.1317 0.0000 -13387.5455 2371.8377 0.0000 0.0000 1739.2469 -9268.7887 300.6110 -11008.0356 -9268.4662 300.6110 546.0529 579.1286 43955.2749 546.0529 579.1286
ENERGY: 100000 1.4550 3.9724 5.1568 0.0000 -13982.2813 2501.8364 0.0000 0.0000 168.1084 -11301.7524 29.0558 -11469.8608 -11301.1720 30.9420 387.2194 432.9476 29048.2165 3.6347 3.6235
TCL: Running 100000 steps at 60 kelvin.
TCL: Setting parameter langevinTemp to 60
TCL: Running for 100000 steps
ETITLE: TS BOND ANGLE DIHED IMPRP ELECT VDW BOUNDARY MISC KINETIC TOTAL TEMP POTENTIAL TOTAL3 TEMPAVG PRESSURE GPRESSURE VOLUME PRESSAVG GPRESSAVG
ENERGY: 100000 1.4550 3.9724 5.1568 0.0000 -13982.2813 2501.8364 0.0000 0.0000 168.0257 -11301.8351 29.0415 -11469.8608 -11301.4554 29.0415 383.9977 433.0004 29048.2165 383.9977 433.0004
ENERGY: 200000 1.2620 3.7702 5.3031 0.0000 -13871.7046 2431.5123 0.0000 0.0000 344.7132 -11085.1438 59.5801 -11429.8570 -11084.7420 60.0280 279.1559 379.7957 28596.8647 4.5708 4.5732
TCL: Running 100000 steps at 90 kelvin.
TCL: Setting parameter langevinTemp to 90
TCL: Running for 100000 steps
ETITLE: TS BOND ANGLE DIHED IMPRP ELECT VDW BOUNDARY MISC KINETIC TOTAL TEMP POTENTIAL TOTAL3 TEMPAVG PRESSURE GPRESSURE VOLUME PRESSAVG GPRESSAVG
ENERGY: 200000 1.2620 3.7702 5.3031 0.0000 -13871.7046 2431.5123 0.0000 0.0000 344.5356 -11085.3214 59.5494 -11429.8570 -11084.5039 59.5494 317.7817 379.5322 28596.8647 317.7817 379.5322
ENERGY: 300000 0.9149 4.2733 5.5991 0.0000 -13651.7064 2310.6864 0.0000 0.0000 526.2652 -10803.9675 90.9595 -11330.2327 -10802.3159 90.0984 -237.2257 -168.7797 28534.6814 2.8194 2.8362
TCL: Running 100000 steps at 120 kelvin.
TCL: Setting parameter langevinTemp to 120
TCL: Running for 100000 steps
ETITLE: TS BOND ANGLE DIHED IMPRP ELECT VDW BOUNDARY MISC KINETIC TOTAL TEMP POTENTIAL TOTAL3 TEMPAVG PRESSURE GPRESSURE VOLUME PRESSAVG GPRESSAVG
ENERGY: 300000 0.9149 4.2733 5.5991 0.0000 -13651.7064 2310.6864 0.0000 0.0000 526.0094 -10804.2233 90.9153 -11330.2327 -10802.8315 90.9153 -212.5159 -168.8101 28534.6814 -212.5159 -168.8101
ENERGY: 400000 2.8985 8.3005 5.0735 0.0000 -13448.3437 2250.4283 0.0000 0.0000 686.3705 -10495.2724 118.6321 -11181.6429 -10493.3388 119.9067 -310.0561 -230.3774 28554.8519 4.2321 4.3016
TCL: Running 100000 steps at 150 kelvin.
TCL: Setting parameter langevinTemp to 150
TCL: Running for 100000 steps
ETITLE: TS BOND ANGLE DIHED IMPRP ELECT VDW BOUNDARY MISC KINETIC TOTAL TEMP POTENTIAL TOTAL3 TEMPAVG PRESSURE GPRESSURE VOLUME PRESSAVG GPRESSAVG
ENERGY: 400000 2.8985 8.3005 5.0735 0.0000 -13448.3437 2250.4283 0.0000 0.0000 686.0267 -10495.6163 118.5727 -11181.6429 -10494.5253 118.5727 -286.5146 -229.5450 28554.8519 -286.5146 -229.5450
ENERGY: 500000 2.2446 7.3916 5.7402 0.0000 -13274.7352 2201.1190 0.0000 0.0000 893.9533 -10164.2865 154.5107 -11058.2398 -10161.5332 150.3858 -85.0883 13.4515 28169.7703 4.5996 4.6106
TCL: Running 100000 steps at 180 kelvin.
TCL: Setting parameter langevinTemp to 180
TCL: Running for 100000 steps
ETITLE: TS BOND ANGLE DIHED IMPRP ELECT VDW BOUNDARY MISC KINETIC TOTAL TEMP POTENTIAL TOTAL3 TEMPAVG PRESSURE GPRESSURE VOLUME PRESSAVG GPRESSAVG
ENERGY: 500000 2.2446 7.3916 5.7402 0.0000 -13274.7352 2201.1190 0.0000 0.0000 893.5379 -10164.7019 154.4389 -11058.2398 -10162.8452 154.4389 -41.5840 13.8590 28169.7703 -41.5840 13.8590
ENERGY: 600000 2.4877 10.3880 6.1966 0.0000 -12819.1758 2074.7112 0.0000 0.0000 1018.4404 -9706.9519 176.0270 -10725.3922 -9704.3111 179.9456 61.5318 146.1093 28499.4685 5.2088 5.2523
TCL: Running 100000 steps at 210 kelvin.
TCL: Setting parameter langevinTemp to 210
TCL: Running for 100000 steps
ETITLE: TS BOND ANGLE DIHED IMPRP ELECT VDW BOUNDARY MISC KINETIC TOTAL TEMP POTENTIAL TOTAL3 TEMPAVG PRESSURE GPRESSURE VOLUME PRESSAVG GPRESSAVG
ENERGY: 600000 2.4877 10.3880 6.1966 0.0000 -12819.1758 2074.7112 0.0000 0.0000 1017.9333 -9707.4590 175.9393 -10725.3922 -9705.5187 175.9393 89.0050 146.3907 28499.4685 89.0050 146.3907
ENERGY: 700000 4.5881 10.1600 6.9320 0.0000 -12125.4076 1882.2451 0.0000 0.0000 1167.0611 -9054.4211 201.7145 -10221.4822 -9052.7994 209.8380 630.9096 652.3806 28108.1493 5.1155 5.2113
TCL: Running 100000 steps at 240 kelvin.
TCL: Setting parameter langevinTemp to 240
TCL: Running for 100000 steps
ETITLE: TS BOND ANGLE DIHED IMPRP ELECT VDW BOUNDARY MISC KINETIC TOTAL TEMP POTENTIAL TOTAL3 TEMPAVG PRESSURE GPRESSURE VOLUME PRESSAVG GPRESSAVG
ENERGY: 700000 4.5881 10.1600 6.9320 0.0000 -12125.4076 1882.2451 0.0000 0.0000 1166.4763 -9055.0060 201.6134 -10221.4822 -9053.0708 201.6134 577.7193 650.5191 28108.1493 577.7193 650.5191
ENERGY: 800000 2.3498 11.8011 5.7147 0.0000 -11455.6108 1628.0995 0.0000 0.0000 1390.9906 -8416.6551 240.4184 -9807.6457 -8412.7487 240.3881 -277.0691 -194.0852 28842.9531 3.1444 3.0493
TCL: Running 100000 steps at 270 kelvin.
TCL: Setting parameter langevinTemp to 270
TCL: Running for 100000 steps
ETITLE: TS BOND ANGLE DIHED IMPRP ELECT VDW BOUNDARY MISC KINETIC TOTAL TEMP POTENTIAL TOTAL3 TEMPAVG PRESSURE GPRESSURE VOLUME PRESSAVG GPRESSAVG
ENERGY: 800000 2.3498 11.8011 5.7147 0.0000 -11455.6108 1628.0995 0.0000 0.0000 1390.2824 -8417.3633 240.2960 -9807.6457 -8414.8587 240.2960 -280.8818 -193.1636 28842.9531 -280.8818 -193.1636
ENERGY: 900000 2.6455 14.9160 6.5066 0.0000 -10921.3554 1510.2770 0.0000 0.0000 1552.4653 -7834.5450 268.3277 -9387.0103 -7829.7075 270.6885 -289.9252 -161.9465 29336.5936 3.0051 3.1278
TCL: Running 1000000 steps at 300 kelvin.
TCL: Setting parameter langevinTemp to 300
TCL: Running for 1000000 steps
ETITLE: TS BOND ANGLE DIHED IMPRP ELECT VDW BOUNDARY MISC KINETIC TOTAL TEMP POTENTIAL TOTAL3 TEMPAVG PRESSURE GPRESSURE VOLUME PRESSAVG GPRESSAVG
ENERGY: 900000 2.6455 14.9160 6.5066 0.0000 -10921.3554 1510.2770 0.0000 0.0000 1551.6752 -7835.3351 268.1911 -9387.0103 -7832.6805 268.1911 -253.9674 -162.6931 29336.5936 -253.9674 -162.6931
ENERGY: 1100000 4.8762 20.8962 9.9786 0.0000 -10482.4593 1435.5300 0.0000 0.0000 1715.9395 -7295.2388 296.5825 -9011.1784 -7293.0756 299.7122 70.3148 142.1194 30187.5591 4.5706 4.4658
ENERGY: 1300000 7.1004 12.3575 5.5053 0.0000 -10396.4724 1314.7207 0.0000 0.0000 1766.6948 -7290.0936 305.3551 -9056.7884 -7286.6170 300.0637 -830.8888 -711.4643 29828.0398 3.3612 3.2071
ENERGY: 1500000 2.9329 15.5685 6.5282 0.0000 -10367.6800 1364.6926 0.0000 0.0000 1772.2282 -7205.7297 306.3115 -8977.9579 -7201.8217 300.2551 -338.2932 -246.2592 30464.0588 4.6183 4.7129
ENERGY: 1700000 2.3732 14.5456 7.4084 0.0000 -10360.3915 1309.4634 0.0000 0.0000 1734.0170 -7292.5838 299.7070 -9026.6009 -7289.7423 300.0577 -806.9060 -701.3133 30398.4835 2.8885 2.9006
ENERGY: 1900000 2.1780 14.6992 7.2417 0.0000 -10565.9408 1439.4251 0.0000 0.0000 1695.4713 -7406.9255 293.0448 -9102.3968 -7403.8665 301.4633 315.5048 367.4175 29731.4989 2.9582 2.8890
TCL: Exiting due to exit command.
