Info: SIMULATION PARAMETERS:
Info: TIMESTEP               2
Info: NUMBER OF STEPS        0
Info: STEPS PER CYCLE        10
Info: PERIODIC CELL BASIS 1  34.986 0 0
Info: PERIODIC CELL BASIS 2  0 33.399 0
Info: PERIODIC CELL BASIS 3  0 0 37.451
Info: PERIODIC CELL CENTER   0 0 0
Info: WRAPPING WATERS AROUND PERIODIC BOUNDARIES ON OUTPUT.
Info: WRAPPING ALL CLUSTERS AROUND PERIODIC BOUNDARIES ON OUTPUT.
Info: FIRST LDB TIMESTEP     50
Info: LAST LDB TIMESTEP     -1
Info: HOM BACKGROUND SCALING 1
Info: PME BACKGROUND SCALING 1
Info: MIN ATOMS PER PATCH    40
Info: EMPTY PATCH LOAD       40 ATOMS
Info: INITIAL TEMPERATURE    300
Info: CENTER OF MASS MOVING INITIALLY? NO
Info: DIELECTRIC             1
Info: EXCLUDE                SCALED ONE-FOUR
Info: 1-4 ELECTROSTATICS SCALED BY 0.833333
Info: MODIFIED 1-4 VDW PARAMETERS WILL BE USED
Info: DCD FILENAME           mobley_5520946_equil.dcd
Info: DCD FREQUENCY          100000
Info: DCD FIRST STEP         100000
Info: DCD FILE WILL CONTAIN UNIT CELL DATA
Info: XST FILENAME           mobley_5520946_equil.xst
Info: XST FREQUENCY          100000
Info: NO VELOCITY DCD OUTPUT
Info: NO FORCE DCD OUTPUT
Info: OUTPUT FILENAME        mobley_5520946_equil
Info: BINARY OUTPUT FILES WILL BE USED
Info: RESTART FILENAME       mobley_5520946_equil.restart
Info: RESTART FREQUENCY      100000
Info: BINARY RESTART FILES WILL BE USED
Info: CUTOFF                 9
Info: PAIRLIST DISTANCE      11
Info: PAIRLIST SHRINK RATE   0.01
Info: PAIRLIST GROW RATE     0.01
Info: PAIRLIST TRIGGER       0.3
Info: PAIRLISTS PER CYCLE    2
Info: PAIRLISTS ENABLED
Info: MARGIN                 8
Info: HYDROGEN GROUP CUTOFF  2.5
Info: PATCH DIMENSION        21.5
Info: ENERGY OUTPUT STEPS    100000
Info: ENERGY EVALUATION STEPS    100000
Info: OUTPUT ENERGY PRECISION 4
Info: CROSSTERM ENERGY INCLUDED IN DIHEDRAL
Info: TIMING OUTPUT STEPS    1000000
Info: PRESSURE OUTPUT STEPS  100000
Info: LANGEVIN DYNAMICS ACTIVE
Info: LANGEVIN TEMPERATURE   30
Info: LANGEVIN USING BBK INTEGRATOR
Info: LANGEVIN DAMPING COEFFICIENT IS 1 INVERSE PS
Info: LANGEVIN DYNAMICS APPLIED TO HYDROGENS
Info: LANGEVIN PISTON PRESSURE CONTROL ACTIVE
Info:        TARGET PRESSURE IS 1.01325 BAR
Info:     OSCILLATION PERIOD IS 50 FS
Info:             DECAY TIME IS 25 FS
Info:     PISTON TEMPERATURE IS 300 K
Info:       PRESSURE CONTROL IS GROUP-BASED
Info:    INITIAL STRAIN RATE IS 0 0 0
Info:       CELL FLUCTUATION IS ISOTROPIC
Info: PARTICLE MESH EWALD (PME) ACTIVE
Info: PME TOLERANCE               1e-06
Info: PME EWALD COEFFICIENT       0.348832
Info: PME INTERPOLATION ORDER     4
Info: PME GRID DIMENSIONS         36 36 40
Info: PME MAXIMUM GRID SPACING    1
Info: FULL ELECTROSTATIC EVALUATION FREQUENCY      2
Info: USING VERLET I (r-RESPA) MTS SCHEME.
Info: C1 SPLITTING OF LONG RANGE ELECTROSTATICS
Info: PLACING ATOMS IN PATCHES BY HYDROGEN GROUPS
Info: RIGID BONDS TO HYDROGEN : ALL
Info:         ERROR TOLERANCE : 1e-08
Info:          MAX ITERATIONS : 100
Info: RIGID WATER USING SETTLE ALGORITHM
Info: RANDOM NUMBER SEED     1743208593
Info: USE HYDROGEN BONDS?    NO
Info: Using AMBER format force field!
Info: AMBER PARM FILE        mobley_5520946.prmtop
Info: COORDINATE PDB         mobley_5520946.pdb
Info: Exclusions will be read from PARM file!
Info: SCNB (VDW SCALING)     2
Info: USING ARITHMETIC MEAN TO COMBINE L-J SIGMA PARAMETERS
Info: BINARY COORDINATES     mobley_5520946_min.coor
Info: SUMMARY OF PARAMETERS:
Info: 6 BONDS
Info: 4 ANGLES
Info:   4 HARMONIC
Info:   0 COSINE-BASED
Info: 3 DIHEDRAL
Info: 0 IMPROPER
Info: 0 CROSSTERM
Info: 0 VDW
Info: 21 VDW_PAIRS
Info: 0 NBTHOLE_PAIRS
Info: STRUCTURE SUMMARY:
Info: 2950 ATOMS
Info: 2950 BONDS
Info: 19 ANGLES
Info: 32 DIHEDRALS
Info: 0 IMPROPERS
Info: 0 CROSSTERMS
Info: 2992 EXCLUSIONS
Info: 2943 RIGID BONDS
Info: 5907 DEGREES OF FREEDOM
Info: 986 HYDROGEN GROUPS
Info: 3 ATOMS IN LARGEST HYDROGEN GROUP
Info: 986 MIGRATION GROUPS
Info: 3 ATOMS IN LARGEST MIGRATION GROUP
Info: TOTAL MASS = 17747.8 amu
Info: TOTAL CHARGE = -2.04891e-08 e
Info: MASS DENSITY = 0.673462 g/cm^3
Info: ATOM DENSITY = 0.067411 atoms/A^3
Info: ADDED 0 IMPLICIT EXCLUSIONS
Info: NONBONDED TABLE R-SQUARED SPACING: 0.0625
Info: NONBONDED TABLE SIZE: 705 POINTS
Info: REMOVING COM VELOCITY -0.0453484 -0.225028 -0.144597
TCL: Running for 100000 steps
ETITLE: TS BOND ANGLE DIHED IMPRP ELECT VDW BOUNDARY MISC KINETIC TOTAL TEMP POTENTIAL TOTAL3 TEMPAVG PRESSURE GPRESSURE VOLUME PRESSAVG GPRESSAVG
ENERGY: 0 0.1326 0.1270 0.0353 0.0000 -13641.1135 2402.3619 0.0000 0.0000 1748.5017 -9489.9551 297.9130 -11238.4567 -9489.6179 297.9130 368.9074 410.0044 43761.3967 368.9074 410.0044
ENERGY: 100000 0.4814 0.4760 0.4047 0.0000 -14194.5331 2409.2952 0.0000 0.0000 177.0188 -11606.8571 30.1608 -11783.8759 -11606.1266 30.9171 -893.8616 -860.8572 28918.7576 3.5267 3.4753
TCL: Running 100000 steps at 60 kelvin.
TCL: Setting parameter langevinTemp to 60
TCL: Running for 100000 steps
ETITLE: TS BOND ANGLE DIHED IMPRP ELECT VDW BOUNDARY MISC KINETIC TOTAL TEMP POTENTIAL TOTAL3 TEMPAVG PRESSURE GPRESSURE VOLUME PRESSAVG GPRESSAVG
ENERGY: 100000 0.4814 0.4760 0.4047 0.0000 -14194.5331 2409.2952 0.0000 0.0000 176.9362 -11606.9397 30.1467 -11783.8759 -11606.4928 30.1467 -917.1456 -860.8358 28918.7576 -917.1456 -860.8358
ENERGY: 200000 1.0104 0.8815 0.6251 0.0000 -14091.9974 2403.1464 0.0000 0.0000 346.8092 -11339.5247 59.0900 -11686.3339 -11338.5833 59.9057 -419.7999 -348.2510 28861.2322 5.2616 5.2697
TCL: Running 100000 steps at 90 kelvin.
TCL: Setting parameter langevinTemp to 90
TCL: Running for 100000 steps
ETITLE: TS BOND ANGLE DIHED IMPRP ELECT VDW BOUNDARY MISC KINETIC TOTAL TEMP POTENTIAL TOTAL3 TEMPAVG PRESSURE GPRESSURE VOLUME PRESSAVG GPRESSAVG
ENERGY: 200000 1.0104 0.8815 0.6251 0.0000 -14091.9974 2403.1464 0.0000 0.0000 346.6390 -11339.6949 59.0610 -11686.3339 -11338.8334 59.0610 -413.1531 -348.5183 28861.2322 -413.1531 -348.5183
ENERGY: 300000 1.0301 1.3820 0.9385 0.0000 -13947.4073 2359.0986 0.0000 0.0000 532.0493 -11052.9086 90.6516 -11584.9580 -11051.5884 89.8986 -364.8030 -311.5242 28718.3449 2.8371 2.8064
TCL: Running 100000 steps at 120 kelvin.
TCL: Setting parameter langevinTemp to 120
TCL: Running for 100000 steps
ETITLE: TS BOND ANGLE DIHED IMPRP ELECT VDW BOUNDARY MISC KINETIC TOTAL TEMP POTENTIAL TOTAL3 TEMPAVG PRESSURE GPRESSURE VOLUME PRESSAVG GPRESSAVG
ENERGY: 300000 1.0301 1.3820 0.9385 0.0000 -13947.4073 2359.0986 0.0000 0.0000 531.7951 -11053.1629 90.6083 -11584.9580 -11051.7658 90.6083 -365.0813 -311.8359 28718.3449 -365.0813 -311.8359
ENERGY: 400000 1.2114 1.1700 2.1653 0.0000 -13774.9620 2302.4270 0.0000 0.0000 715.8094 -10752.1791 121.9609 -11467.9884 -10749.8255 120.0450 -214.1441 -175.9108 28619.8971 3.1363 3.0174
TCL: Running 100000 steps at 150 kelvin.
TCL: Setting parameter langevinTemp to 150
TCL: Running for 100000 steps
ETITLE: TS BOND ANGLE DIHED IMPRP ELECT VDW BOUNDARY MISC KINETIC TOTAL TEMP POTENTIAL TOTAL3 TEMPAVG PRESSURE GPRESSURE VOLUME PRESSAVG GPRESSAVG
ENERGY: 400000 1.2114 1.1700 2.1653 0.0000 -13774.9620 2302.4270 0.0000 0.0000 715.4532 -10752.5353 121.9003 -11467.9884 -10751.5208 121.9003 -227.2749 -174.9133 28619.8971 -227.2749 -174.9133
ENERGY: 500000 1.3075 1.6437 0.3920 0.0000 -13448.3435 2133.7044 0.0000 0.0000 877.3762 -10433.9198 149.4890 -11311.2960 -10431.1757 150.0094 -1287.3941 -1207.4159 29042.7415 3.8591 3.9322
TCL: Running 100000 steps at 180 kelvin.
TCL: Setting parameter langevinTemp to 180
TCL: Running for 100000 steps
ETITLE: TS BOND ANGLE DIHED IMPRP ELECT VDW BOUNDARY MISC KINETIC TOTAL TEMP POTENTIAL TOTAL3 TEMPAVG PRESSURE GPRESSURE VOLUME PRESSAVG GPRESSAVG
ENERGY: 500000 1.3075 1.6437 0.3920 0.0000 -13448.3435 2133.7044 0.0000 0.0000 876.9335 -10434.3625 149.4136 -11311.2960 -10432.5799 149.4136 -1247.5948 -1205.7220 29042.7415 -1247.5948 -1205.7220
ENERGY: 600000 2.0423 2.0866 1.3336 0.0000 -13258.8798 2242.2561 0.0000 0.0000 1074.3796 -9936.7817 183.0548 -11011.1614 -9934.4790 179.7908 892.3512 975.5506 28746.8850 3.6722 3.6088
TCL: Running 100000 steps at 210 kelvin.
TCL: Setting parameter langevinTemp to 210
TCL: Running for 100000 steps
ETITLE: TS BOND ANGLE DIHED IMPRP ELECT VDW BOUNDARY MISC KINETIC TOTAL TEMP POTENTIAL TOTAL3 TEMPAVG PRESSURE GPRESSURE VOLUME PRESSAVG GPRESSAVG
ENERGY: 600000 2.0423 2.0866 1.3336 0.0000 -13258.8798 2242.2561 0.0000 0.0000 1073.8578 -9937.3036 182.9659 -11011.1614 -9935.7896 182.9659 914.2929 975.2144 28746.8850 914.2929 975.2144
ENERGY: 700000 2.5421 2.3618 1.2567 0.0000 -12363.1887 1880.0137 0.0000 0.0000 1234.8550 -9242.1593 210.3969 -10477.0143 -9239.6039 209.7973 -134.8952 -112.4454 28814.1714 4.6019 4.4762
TCL: Running 100000 steps at 240 kelvin.
TCL: Setting parameter langevinTemp to 240
TCL: Running for 100000 steps
ETITLE: TS BOND ANGLE DIHED IMPRP ELECT VDW BOUNDARY MISC KINETIC TOTAL TEMP POTENTIAL TOTAL3 TEMPAVG PRESSURE GPRESSURE VOLUME PRESSAVG GPRESSAVG
ENERGY: 700000 2.5421 2.3618 1.2567 0.0000 -12363.1887 1880.0137 0.0000 0.0000 1234.1989 -9242.8154 210.2851 -10477.0143 -9240.3279 210.2851 -187.7713 -113.2864 28814.1714 -187.7713 -113.2864
ENERGY: 800000 0.9715 3.6993 1.6720 0.0000 -11763.1707 1686.9716 0.0000 0.0000 1391.0642 -8678.7920 237.0121 -10069.8563 -8676.7780 239.8622 -104.9866 0.2615 29063.9007 4.1103 3.9283
TCL: Running 100000 steps at 270 kelvin.
TCL: Setting parameter langevinTemp to 270
TCL: Running for 100000 steps
ETITLE: TS BOND ANGLE DIHED IMPRP ELECT VDW BOUNDARY MISC KINETIC TOTAL TEMP POTENTIAL TOTAL3 TEMPAVG PRESSURE GPRESSURE VOLUME PRESSAVG GPRESSAVG
ENERGY: 800000 0.9715 3.6993 1.6720 0.0000 -11763.1707 1686.9716 0.0000 0.0000 1390.3470 -8679.5093 236.8899 -10069.8563 -8677.1271 236.8899 -80.7753 -1.1867 29063.9007 -80.7753 -1.1867
ENERGY: 900000 1.5515 3.7227 2.6067 0.0000 -11189.0037 1533.9506 0.0000 0.0000 1593.7644 -8053.4079 271.5486 -9647.1723 -8050.0661 270.2453 96.8980 154.3888 29437.1230 3.3412 3.4050
TCL: Running 1000000 steps at 300 kelvin.
TCL: Setting parameter langevinTemp to 300
TCL: Running for 1000000 steps
ETITLE: TS BOND ANGLE DIHED IMPRP ELECT VDW BOUNDARY MISC KINETIC TOTAL TEMP POTENTIAL TOTAL3 TEMPAVG PRESSURE GPRESSURE VOLUME PRESSAVG GPRESSAVG
ENERGY: 900000 1.5515 3.7227 2.6067 0.0000 -11189.0037 1533.9506 0.0000 0.0000 1592.9833 -8054.1889 271.4155 -9647.1723 -8051.4058 271.4155 65.2786 155.4388 29437.1230 65.2786 155.4388
ENERGY: 1100000 0.7022 5.5066 2.8339 0.0000 -10717.1075 1483.0789 0.0000 0.0000 1802.8346 -7422.1514 307.1703 -9224.9859 -7419.2147 300.4730 251.7360 305.8024 30733.3243 3.4921 3.3496
ENERGY: 1300000 3.8696 2.1792 1.9124 0.0000 -10617.9292 1350.1111 0.0000 0.0000 1778.3776 -7481.4793 303.0033 -9259.8569 -7476.5827 299.9327 -815.1764 -709.4199 30682.0552 2.7433 2.6490
ENERGY: 1500000 1.0024 3.8911 2.3519 0.0000 -10712.9658 1444.8837 0.0000 0.0000 1791.5008 -7469.3359 305.2393 -9260.8368 -7465.9459 299.9253 83.3396 147.7484 30331.1977 3.2530 3.3451
ENERGY: 1700000 0.8780 3.5773 3.6124 0.0000 -10573.8116 1332.3387 0.0000 0.0000 1790.8691 -7442.5362 305.1317 -9233.4053 -7437.6858 300.3453 -893.3047 -720.9404 30961.9609 3.2520 3.2097
ENERGY: 1900000 1.0517 4.7709 2.4042 0.0000 -10638.1701 1412.0029 0.0000 0.0000 1749.6972 -7468.2432 298.1167 -9217.9404 -7464.1230 300.4076 -142.7783 -26.6678 30855.3881 3.1250 2.9843
TCL: Exiting due to exit command.
