Info: SIMULATION PARAMETERS:
Info: TIMESTEP               2
Info: NUMBER OF STEPS        0
Info: STEPS PER CYCLE        10
Info: PERIODIC CELL BASIS 1  33.251 0 0
Info: PERIODIC CELL BASIS 2  0 37.796 0
Info: PERIODIC CELL BASIS 3  0 0 35.723
Info: PERIODIC CELL CENTER   0 0 0
Info: WRAPPING WATERS AROUND PERIODIC BOUNDARIES ON OUTPUT.
Info: WRAPPING ALL CLUSTERS AROUND PERIODIC BOUNDARIES ON OUTPUT.
Info: FIRST LDB TIMESTEP     50
Info: LAST LDB TIMESTEP     -1
Info: HOM BACKGROUND SCALING 1
Info: PME BACKGROUND SCALING 1
Info: MIN ATOMS PER PATCH    40
Info: EMPTY PATCH LOAD       40 ATOMS
Info: INITIAL TEMPERATURE    300
Info: CENTER OF MASS MOVING INITIALLY? NO
Info: DIELECTRIC             1
Info: EXCLUDE                SCALED ONE-FOUR
Info: 1-4 ELECTROSTATICS SCALED BY 0.833333
Info: MODIFIED 1-4 VDW PARAMETERS WILL BE USED
Info: DCD FILENAME           mobley_3525176_equil.dcd
Info: DCD FREQUENCY          100000
Info: DCD FIRST STEP         100000
Info: DCD FILE WILL CONTAIN UNIT CELL DATA
Info: XST FILENAME           mobley_3525176_equil.xst
Info: XST FREQUENCY          100000
Info: NO VELOCITY DCD OUTPUT
Info: NO FORCE DCD OUTPUT
Info: OUTPUT FILENAME        mobley_3525176_equil
Info: BINARY OUTPUT FILES WILL BE USED
Info: RESTART FILENAME       mobley_3525176_equil.restart
Info: RESTART FREQUENCY      100000
Info: BINARY RESTART FILES WILL BE USED
Info: CUTOFF                 9
Info: PAIRLIST DISTANCE      11
Info: PAIRLIST SHRINK RATE   0.01
Info: PAIRLIST GROW RATE     0.01
Info: PAIRLIST TRIGGER       0.3
Info: PAIRLISTS PER CYCLE    2
Info: PAIRLISTS ENABLED
Info: MARGIN                 8
Info: HYDROGEN GROUP CUTOFF  2.5
Info: PATCH DIMENSION        21.5
Info: ENERGY OUTPUT STEPS    100000
Info: ENERGY EVALUATION STEPS    100000
Info: OUTPUT ENERGY PRECISION 4
Info: CROSSTERM ENERGY INCLUDED IN DIHEDRAL
Info: TIMING OUTPUT STEPS    1000000
Info: PRESSURE OUTPUT STEPS  100000
Info: LANGEVIN DYNAMICS ACTIVE
Info: LANGEVIN TEMPERATURE   30
Info: LANGEVIN USING BBK INTEGRATOR
Info: LANGEVIN DAMPING COEFFICIENT IS 1 INVERSE PS
Info: LANGEVIN DYNAMICS APPLIED TO HYDROGENS
Info: LANGEVIN PISTON PRESSURE CONTROL ACTIVE
Info:        TARGET PRESSURE IS 1.01325 BAR
Info:     OSCILLATION PERIOD IS 50 FS
Info:             DECAY TIME IS 25 FS
Info:     PISTON TEMPERATURE IS 300 K
Info:       PRESSURE CONTROL IS GROUP-BASED
Info:    INITIAL STRAIN RATE IS 0 0 0
Info:       CELL FLUCTUATION IS ISOTROPIC
Info: PARTICLE MESH EWALD (PME) ACTIVE
Info: PME TOLERANCE               1e-06
Info: PME EWALD COEFFICIENT       0.348832
Info: PME INTERPOLATION ORDER     4
Info: PME GRID DIMENSIONS         36 40 36
Info: PME MAXIMUM GRID SPACING    1
Info: FULL ELECTROSTATIC EVALUATION FREQUENCY      2
Info: USING VERLET I (r-RESPA) MTS SCHEME.
Info: C1 SPLITTING OF LONG RANGE ELECTROSTATICS
Info: PLACING ATOMS IN PATCHES BY HYDROGEN GROUPS
Info: RIGID BONDS TO HYDROGEN : ALL
Info:         ERROR TOLERANCE : 1e-08
Info:          MAX ITERATIONS : 100
Info: RIGID WATER USING SETTLE ALGORITHM
Info: RANDOM NUMBER SEED     1743257225
Info: USE HYDROGEN BONDS?    NO
Info: Using AMBER format force field!
Info: AMBER PARM FILE        mobley_3525176.prmtop
Info: COORDINATE PDB         mobley_3525176.pdb
Info: Exclusions will be read from PARM file!
Info: SCNB (VDW SCALING)     2
Info: USING ARITHMETIC MEAN TO COMBINE L-J SIGMA PARAMETERS
Info: BINARY COORDINATES     mobley_3525176_min.coor
Info: SUMMARY OF PARAMETERS:
Info: 7 BONDS
Info: 8 ANGLES
Info:   8 HARMONIC
Info:   0 COSINE-BASED
Info: 9 DIHEDRAL
Info: 0 IMPROPER
Info: 0 CROSSTERM
Info: 0 VDW
Info: 21 VDW_PAIRS
Info: 0 NBTHOLE_PAIRS
Info: STRUCTURE SUMMARY:
Info: 2970 ATOMS
Info: 2970 BONDS
Info: 48 ANGLES
Info: 76 DIHEDRALS
Info: 0 IMPROPERS
Info: 0 CROSSTERMS
Info: 3081 EXCLUSIONS
Info: 2959 RIGID BONDS
Info: 5951 DEGREES OF FREEDOM
Info: 992 HYDROGEN GROUPS
Info: 4 ATOMS IN LARGEST HYDROGEN GROUP
Info: 992 MIGRATION GROUPS
Info: 4 ATOMS IN LARGEST MIGRATION GROUP
Info: TOTAL MASS = 17821.9 amu
Info: TOTAL CHARGE = 2.6077e-08 e
Info: MASS DENSITY = 0.659198 g/cm^3
Info: ATOM DENSITY = 0.0661543 atoms/A^3
Info: ADDED 0 IMPLICIT EXCLUSIONS
Info: NONBONDED TABLE R-SQUARED SPACING: 0.0625
Info: NONBONDED TABLE SIZE: 705 POINTS
Info: REMOVING COM VELOCITY -0.119642 -0.0353152 -0.00906143
TCL: Running for 100000 steps
ETITLE: TS BOND ANGLE DIHED IMPRP ELECT VDW BOUNDARY MISC KINETIC TOTAL TEMP POTENTIAL TOTAL3 TEMPAVG PRESSURE GPRESSURE VOLUME PRESSAVG GPRESSAVG
ENERGY: 0 0.2068 0.2065 0.8894 0.0000 -13753.5675 2416.3627 0.0000 0.0000 1790.9790 -9544.9231 302.8942 -11335.9021 -9544.5851 302.8942 321.9212 354.6443 44895.0516 321.9212 354.6443
ENERGY: 100000 0.8969 1.5051 1.1131 0.0000 -14252.9848 2528.5297 0.0000 0.0000 180.5322 -11540.4077 30.5320 -11720.9399 -11540.0870 30.8584 338.0243 397.9299 29472.5338 3.3683 3.3714
TCL: Running 100000 steps at 60 kelvin.
TCL: Setting parameter langevinTemp to 60
TCL: Running for 100000 steps
ETITLE: TS BOND ANGLE DIHED IMPRP ELECT VDW BOUNDARY MISC KINETIC TOTAL TEMP POTENTIAL TOTAL3 TEMPAVG PRESSURE GPRESSURE VOLUME PRESSAVG GPRESSAVG
ENERGY: 100000 0.8969 1.5051 1.1131 0.0000 -14252.9848 2528.5297 0.0000 0.0000 180.4456 -11540.4943 30.5173 -11720.9399 -11540.1857 30.5173 345.4935 397.8495 29472.5338 345.4935 397.8495
ENERGY: 200000 1.6260 2.0634 1.7708 0.0000 -14052.0312 2372.4659 0.0000 0.0000 357.4861 -11316.6190 60.4588 -11674.1051 -11315.3801 59.8721 -857.6062 -787.5293 29666.6758 3.8281 3.8940
TCL: Running 100000 steps at 90 kelvin.
TCL: Setting parameter langevinTemp to 90
TCL: Running for 100000 steps
ETITLE: TS BOND ANGLE DIHED IMPRP ELECT VDW BOUNDARY MISC KINETIC TOTAL TEMP POTENTIAL TOTAL3 TEMPAVG PRESSURE GPRESSURE VOLUME PRESSAVG GPRESSAVG
ENERGY: 200000 1.6260 2.0634 1.7708 0.0000 -14052.0312 2372.4659 0.0000 0.0000 357.3049 -11316.8002 60.4282 -11674.1051 -11315.8755 60.4282 -847.8055 -787.5939 29666.6758 -847.8055 -787.5939
ENERGY: 300000 1.6230 2.3655 2.7937 0.0000 -13947.4613 2355.4952 0.0000 0.0000 521.3318 -11063.8521 88.1687 -11585.1839 -11062.7553 89.9996 -525.8974 -479.4768 29284.5833 4.1080 4.1323
TCL: Running 100000 steps at 120 kelvin.
TCL: Setting parameter langevinTemp to 120
TCL: Running for 100000 steps
ETITLE: TS BOND ANGLE DIHED IMPRP ELECT VDW BOUNDARY MISC KINETIC TOTAL TEMP POTENTIAL TOTAL3 TEMPAVG PRESSURE GPRESSURE VOLUME PRESSAVG GPRESSAVG
ENERGY: 300000 1.6230 2.3655 2.7937 0.0000 -13947.4613 2355.4952 0.0000 0.0000 521.0680 -11064.1159 88.1241 -11585.1839 -11062.9332 88.1241 -533.6839 -479.5102 29284.5833 -533.6839 -479.5102
ENERGY: 400000 1.8760 4.6338 2.0321 0.0000 -13792.1702 2307.9556 0.0000 0.0000 727.9270 -10747.7457 123.1086 -11475.6727 -10745.2754 120.0629 -484.4482 -417.8732 29263.2724 4.6880 4.7422
TCL: Running 100000 steps at 150 kelvin.
TCL: Setting parameter langevinTemp to 150
TCL: Running for 100000 steps
ETITLE: TS BOND ANGLE DIHED IMPRP ELECT VDW BOUNDARY MISC KINETIC TOTAL TEMP POTENTIAL TOTAL3 TEMPAVG PRESSURE GPRESSURE VOLUME PRESSAVG GPRESSAVG
ENERGY: 400000 1.8760 4.6338 2.0321 0.0000 -13792.1702 2307.9556 0.0000 0.0000 727.5865 -10748.0863 123.0510 -11475.6727 -10746.4619 123.0510 -487.9125 -417.6467 29263.2724 -487.9125 -417.6467
ENERGY: 500000 1.5480 3.0822 3.1963 0.0000 -13534.1969 2231.5071 0.0000 0.0000 880.5590 -10414.3043 148.9220 -11294.8632 -10412.0526 150.0598 -155.6318 -43.0718 28946.3496 4.7773 4.7700
TCL: Running 100000 steps at 180 kelvin.
TCL: Setting parameter langevinTemp to 180
TCL: Running for 100000 steps
ETITLE: TS BOND ANGLE DIHED IMPRP ELECT VDW BOUNDARY MISC KINETIC TOTAL TEMP POTENTIAL TOTAL3 TEMPAVG PRESSURE GPRESSURE VOLUME PRESSAVG GPRESSAVG
ENERGY: 500000 1.5480 3.0822 3.1963 0.0000 -13534.1969 2231.5071 0.0000 0.0000 880.1297 -10414.7336 148.8494 -11294.8632 -10412.8248 148.8494 -92.5751 -42.6140 28946.3496 -92.5751 -42.6140
ENERGY: 600000 2.0859 4.6170 3.5538 0.0000 -13118.4147 2080.2686 0.0000 0.0000 1066.4457 -9961.4437 180.3596 -11027.8894 -9958.5201 180.1223 -609.1315 -525.6583 29208.0434 4.1813 4.3140
TCL: Running 100000 steps at 210 kelvin.
TCL: Setting parameter langevinTemp to 210
TCL: Running for 100000 steps
ETITLE: TS BOND ANGLE DIHED IMPRP ELECT VDW BOUNDARY MISC KINETIC TOTAL TEMP POTENTIAL TOTAL3 TEMPAVG PRESSURE GPRESSURE VOLUME PRESSAVG GPRESSAVG
ENERGY: 600000 2.0859 4.6170 3.5538 0.0000 -13118.4147 2080.2686 0.0000 0.0000 1065.9151 -9961.9742 180.2698 -11027.8894 -9959.6964 180.2698 -586.2374 -525.9357 29208.0434 -586.2374 -525.9357
ENERGY: 700000 2.9550 3.9685 2.6855 0.0000 -12345.5568 1857.9227 0.0000 0.0000 1241.4310 -9236.5941 209.9535 -10478.0251 -9233.4920 210.0418 -215.7858 -158.2570 29126.6570 4.2586 4.2578
TCL: Running 100000 steps at 240 kelvin.
TCL: Setting parameter langevinTemp to 240
TCL: Running for 100000 steps
ETITLE: TS BOND ANGLE DIHED IMPRP ELECT VDW BOUNDARY MISC KINETIC TOTAL TEMP POTENTIAL TOTAL3 TEMPAVG PRESSURE GPRESSURE VOLUME PRESSAVG GPRESSAVG
ENERGY: 700000 2.9550 3.9685 2.6855 0.0000 -12345.5568 1857.9227 0.0000 0.0000 1240.8105 -9237.2146 209.8485 -10478.0251 -9235.1491 209.8485 -228.9643 -156.3328 29126.6570 -228.9643 -156.3328
ENERGY: 800000 3.3290 7.8582 4.0416 0.0000 -11782.8127 1706.6212 0.0000 0.0000 1420.9355 -8640.0273 240.3116 -10060.9627 -8636.3170 240.2526 81.3589 168.2992 29138.6719 4.6222 4.5091
TCL: Running 100000 steps at 270 kelvin.
TCL: Setting parameter langevinTemp to 270
TCL: Running for 100000 steps
ETITLE: TS BOND ANGLE DIHED IMPRP ELECT VDW BOUNDARY MISC KINETIC TOTAL TEMP POTENTIAL TOTAL3 TEMPAVG PRESSURE GPRESSURE VOLUME PRESSAVG GPRESSAVG
ENERGY: 800000 3.3290 7.8582 4.0416 0.0000 -11782.8128 1706.6212 0.0000 0.0000 1420.2380 -8640.7247 240.1937 -10060.9627 -8638.2765 240.1937 98.8824 169.0505 29138.6719 98.8824 169.0505
ENERGY: 900000 2.0631 8.5027 4.4564 0.0000 -11274.3690 1622.7388 0.0000 0.0000 1594.2410 -8042.3670 269.6214 -9636.6079 -8039.0094 270.0397 370.9484 481.3100 30137.3085 2.2610 2.2862
TCL: Running 1000000 steps at 300 kelvin.
TCL: Setting parameter langevinTemp to 300
TCL: Running for 1000000 steps
ETITLE: TS BOND ANGLE DIHED IMPRP ELECT VDW BOUNDARY MISC KINETIC TOTAL TEMP POTENTIAL TOTAL3 TEMPAVG PRESSURE GPRESSURE VOLUME PRESSAVG GPRESSAVG
ENERGY: 900000 2.0631 8.5027 4.4564 0.0000 -11274.3690 1622.7388 0.0000 0.0000 1593.4610 -8043.1469 269.4895 -9636.6079 -8040.5339 269.4895 388.2006 480.6797 30137.3085 388.2006 480.6797
ENERGY: 1100000 5.1423 10.7557 5.2398 0.0000 -10682.1864 1417.7920 0.0000 0.0000 1753.6917 -7489.5648 296.5881 -9243.2565 -7486.7498 300.3885 -422.9645 -302.2584 30876.3715 3.1663 2.9655
ENERGY: 1300000 4.7983 17.1248 5.2835 0.0000 -10665.9893 1390.5037 0.0000 0.0000 1800.8789 -7447.4003 304.5685 -9248.2792 -7441.4103 299.9100 -408.2612 -334.2758 30534.5596 4.0118 3.9369
ENERGY: 1500000 2.0993 10.9971 3.3467 0.0000 -10701.3740 1415.3791 0.0000 0.0000 1740.4432 -7529.1086 294.3475 -9269.5519 -7526.9138 300.0660 -196.7712 -121.9044 30430.5008 4.9226 4.8693
ENERGY: 1700000 2.1357 12.4625 3.2610 0.0000 -10794.2573 1450.7971 0.0000 0.0000 1748.5368 -7577.0642 295.7163 -9325.6010 -7573.4582 300.6408 -233.8246 -140.9490 30848.1273 1.5692 1.4645
ENERGY: 1900000 4.2173 8.9550 4.2430 0.0000 -10808.6887 1472.3091 0.0000 0.0000 1780.5215 -7538.4428 301.1256 -9318.9643 -7533.5599 300.3869 33.5580 128.7589 30597.0765 3.7639 3.8171
TCL: Exiting due to exit command.
