Info: SIMULATION PARAMETERS:
Info: TIMESTEP               2
Info: NUMBER OF STEPS        0
Info: STEPS PER CYCLE        10
Info: PERIODIC CELL BASIS 1  37.133 0 0
Info: PERIODIC CELL BASIS 2  0 37.549 0
Info: PERIODIC CELL BASIS 3  0 0 31.349
Info: PERIODIC CELL CENTER   0 0 0
Info: WRAPPING WATERS AROUND PERIODIC BOUNDARIES ON OUTPUT.
Info: WRAPPING ALL CLUSTERS AROUND PERIODIC BOUNDARIES ON OUTPUT.
Info: FIRST LDB TIMESTEP     50
Info: LAST LDB TIMESTEP     -1
Info: HOM BACKGROUND SCALING 1
Info: PME BACKGROUND SCALING 1
Info: MIN ATOMS PER PATCH    40
Info: EMPTY PATCH LOAD       40 ATOMS
Info: INITIAL TEMPERATURE    300
Info: CENTER OF MASS MOVING INITIALLY? NO
Info: DIELECTRIC             1
Info: EXCLUDE                SCALED ONE-FOUR
Info: 1-4 ELECTROSTATICS SCALED BY 0.833333
Info: MODIFIED 1-4 VDW PARAMETERS WILL BE USED
Info: DCD FILENAME           mobley_172879_equil.dcd
Info: DCD FREQUENCY          100000
Info: DCD FIRST STEP         100000
Info: DCD FILE WILL CONTAIN UNIT CELL DATA
Info: XST FILENAME           mobley_172879_equil.xst
Info: XST FREQUENCY          100000
Info: NO VELOCITY DCD OUTPUT
Info: NO FORCE DCD OUTPUT
Info: OUTPUT FILENAME        mobley_172879_equil
Info: BINARY OUTPUT FILES WILL BE USED
Info: RESTART FILENAME       mobley_172879_equil.restart
Info: RESTART FREQUENCY      100000
Info: BINARY RESTART FILES WILL BE USED
Info: CUTOFF                 9
Info: PAIRLIST DISTANCE      11
Info: PAIRLIST SHRINK RATE   0.01
Info: PAIRLIST GROW RATE     0.01
Info: PAIRLIST TRIGGER       0.3
Info: PAIRLISTS PER CYCLE    2
Info: PAIRLISTS ENABLED
Info: MARGIN                 8
Info: HYDROGEN GROUP CUTOFF  2.5
Info: PATCH DIMENSION        21.5
Info: ENERGY OUTPUT STEPS    100000
Info: ENERGY EVALUATION STEPS    100000
Info: OUTPUT ENERGY PRECISION 4
Info: CROSSTERM ENERGY INCLUDED IN DIHEDRAL
Info: TIMING OUTPUT STEPS    1000000
Info: PRESSURE OUTPUT STEPS  100000
Info: LANGEVIN DYNAMICS ACTIVE
Info: LANGEVIN TEMPERATURE   30
Info: LANGEVIN USING BBK INTEGRATOR
Info: LANGEVIN DAMPING COEFFICIENT IS 1 INVERSE PS
Info: LANGEVIN DYNAMICS APPLIED TO HYDROGENS
Info: LANGEVIN PISTON PRESSURE CONTROL ACTIVE
Info:        TARGET PRESSURE IS 1.01325 BAR
Info:     OSCILLATION PERIOD IS 50 FS
Info:             DECAY TIME IS 25 FS
Info:     PISTON TEMPERATURE IS 300 K
Info:       PRESSURE CONTROL IS GROUP-BASED
Info:    INITIAL STRAIN RATE IS 0 0 0
Info:       CELL FLUCTUATION IS ISOTROPIC
Info: PARTICLE MESH EWALD (PME) ACTIVE
Info: PME TOLERANCE               1e-06
Info: PME EWALD COEFFICIENT       0.348832
Info: PME INTERPOLATION ORDER     4
Info: PME GRID DIMENSIONS         40 40 32
Info: PME MAXIMUM GRID SPACING    1
Info: FULL ELECTROSTATIC EVALUATION FREQUENCY      2
Info: USING VERLET I (r-RESPA) MTS SCHEME.
Info: C1 SPLITTING OF LONG RANGE ELECTROSTATICS
Info: PLACING ATOMS IN PATCHES BY HYDROGEN GROUPS
Info: RIGID BONDS TO HYDROGEN : ALL
Info:         ERROR TOLERANCE : 1e-08
Info:          MAX ITERATIONS : 100
Info: RIGID WATER USING SETTLE ALGORITHM
Info: RANDOM NUMBER SEED     1743219284
Info: USE HYDROGEN BONDS?    NO
Info: Using AMBER format force field!
Info: AMBER PARM FILE        mobley_172879.prmtop
Info: COORDINATE PDB         mobley_172879.pdb
Info: Exclusions will be read from PARM file!
Info: SCNB (VDW SCALING)     2
Info: USING ARITHMETIC MEAN TO COMBINE L-J SIGMA PARAMETERS
Info: BINARY COORDINATES     mobley_172879_min.coor
Info: SUMMARY OF PARAMETERS:
Info: 5 BONDS
Info: 4 ANGLES
Info:   4 HARMONIC
Info:   0 COSINE-BASED
Info: 3 DIHEDRAL
Info: 0 IMPROPER
Info: 0 CROSSTERM
Info: 0 VDW
Info: 15 VDW_PAIRS
Info: 0 NBTHOLE_PAIRS
Info: STRUCTURE SUMMARY:
Info: 2917 ATOMS
Info: 2919 BONDS
Info: 38 ANGLES
Info: 68 DIHEDRALS
Info: 0 IMPROPERS
Info: 0 CROSSTERMS
Info: 3004 EXCLUSIONS
Info: 2903 RIGID BONDS
Info: 5848 DEGREES OF FREEDOM
Info: 979 HYDROGEN GROUPS
Info: 3 ATOMS IN LARGEST HYDROGEN GROUP
Info: 979 MIGRATION GROUPS
Info: 3 ATOMS IN LARGEST MIGRATION GROUP
Info: TOTAL MASS = 17569.6 amu
Info: TOTAL CHARGE = 2.98023e-08 e
Info: MASS DENSITY = 0.667482 g/cm^3
Info: ATOM DENSITY = 0.0667351 atoms/A^3
Info: ADDED 0 IMPLICIT EXCLUSIONS
Info: NONBONDED TABLE R-SQUARED SPACING: 0.0625
Info: NONBONDED TABLE SIZE: 705 POINTS
Info: REMOVING COM VELOCITY 0.261473 0.0918898 0.180741
TCL: Running for 100000 steps
ETITLE: TS BOND ANGLE DIHED IMPRP ELECT VDW BOUNDARY MISC KINETIC TOTAL TEMP POTENTIAL TOTAL3 TEMPAVG PRESSURE GPRESSURE VOLUME PRESSAVG GPRESSAVG
ENERGY: 0 0.4585 0.1350 0.0516 0.0000 -13421.7626 2341.4374 0.0000 0.0000 1723.2693 -9356.4109 296.5761 -11079.6802 -9356.0799 296.5761 203.9585 223.0229 43710.1307 203.9585 223.0229
ENERGY: 100000 1.4133 0.9837 0.5705 0.0000 -14014.0565 2441.3427 0.0000 0.0000 172.6184 -11397.1279 29.7078 -11569.7463 -11396.7607 30.8941 -311.7500 -263.1827 28676.2202 4.4096 4.4819
TCL: Running 100000 steps at 60 kelvin.
TCL: Setting parameter langevinTemp to 60
TCL: Running for 100000 steps
ETITLE: TS BOND ANGLE DIHED IMPRP ELECT VDW BOUNDARY MISC KINETIC TOTAL TEMP POTENTIAL TOTAL3 TEMPAVG PRESSURE GPRESSURE VOLUME PRESSAVG GPRESSAVG
ENERGY: 100000 1.4133 0.9837 0.5705 0.0000 -14014.0565 2441.3427 0.0000 0.0000 172.5305 -11397.2158 29.6926 -11569.7463 -11396.8503 29.6926 -309.8358 -263.1769 28676.2202 -309.8358 -263.1769
ENERGY: 200000 1.1356 1.5899 1.4907 0.0000 -13949.5738 2428.2915 0.0000 0.0000 352.8440 -11164.2221 60.7247 -11517.0661 -11163.3191 59.9744 86.7329 93.2142 28345.3563 4.2371 4.1796
TCL: Running 100000 steps at 90 kelvin.
TCL: Setting parameter langevinTemp to 90
TCL: Running for 100000 steps
ETITLE: TS BOND ANGLE DIHED IMPRP ELECT VDW BOUNDARY MISC KINETIC TOTAL TEMP POTENTIAL TOTAL3 TEMPAVG PRESSURE GPRESSURE VOLUME PRESSAVG GPRESSAVG
ENERGY: 200000 1.1356 1.5899 1.4907 0.0000 -13949.5738 2428.2915 0.0000 0.0000 352.6686 -11164.3974 60.6946 -11517.0661 -11163.6519 60.6946 54.5777 93.2415 28345.3563 54.5777 93.2415
ENERGY: 300000 2.2103 2.3816 1.4649 0.0000 -13660.4414 2271.6802 0.0000 0.0000 523.2061 -10859.4982 90.0442 -11382.7043 -10858.2842 90.0665 -808.6502 -729.8199 28723.7397 3.4664 3.3350
TCL: Running 100000 steps at 120 kelvin.
TCL: Setting parameter langevinTemp to 120
TCL: Running for 100000 steps
ETITLE: TS BOND ANGLE DIHED IMPRP ELECT VDW BOUNDARY MISC KINETIC TOTAL TEMP POTENTIAL TOTAL3 TEMPAVG PRESSURE GPRESSURE VOLUME PRESSAVG GPRESSAVG
ENERGY: 300000 2.2103 2.3816 1.4649 0.0000 -13660.4414 2271.6802 0.0000 0.0000 522.9434 -10859.7609 89.9990 -11382.7043 -10858.6122 89.9990 -788.4097 -729.9468 28723.7397 -788.4097 -729.9468
ENERGY: 400000 3.8120 3.9916 1.5214 0.0000 -13676.0008 2389.4308 0.0000 0.0000 692.5163 -10584.7287 119.1826 -11277.2450 -10583.1805 119.8611 599.1189 668.9325 28396.1639 4.1482 4.1860
TCL: Running 100000 steps at 150 kelvin.
TCL: Setting parameter langevinTemp to 150
TCL: Running for 100000 steps
ETITLE: TS BOND ANGLE DIHED IMPRP ELECT VDW BOUNDARY MISC KINETIC TOTAL TEMP POTENTIAL TOTAL3 TEMPAVG PRESSURE GPRESSURE VOLUME PRESSAVG GPRESSAVG
ENERGY: 400000 3.8120 3.9916 1.5214 0.0000 -13676.0008 2389.4308 0.0000 0.0000 692.1615 -10585.0835 119.1216 -11277.2450 -10583.6908 119.1216 613.1003 668.5179 28396.1639 613.1003 668.5179
ENERGY: 500000 2.6541 3.6411 3.1598 0.0000 -13465.4659 2335.6299 0.0000 0.0000 899.7280 -10220.6530 154.8440 -11120.3810 -10218.6738 150.2601 1036.8119 1052.5281 28390.1996 3.9674 3.9353
TCL: Running 100000 steps at 180 kelvin.
TCL: Setting parameter langevinTemp to 180
TCL: Running for 100000 steps
ETITLE: TS BOND ANGLE DIHED IMPRP ELECT VDW BOUNDARY MISC KINETIC TOTAL TEMP POTENTIAL TOTAL3 TEMPAVG PRESSURE GPRESSURE VOLUME PRESSAVG GPRESSAVG
ENERGY: 500000 2.6541 3.6411 3.1598 0.0000 -13465.4659 2335.6299 0.0000 0.0000 899.2889 -10221.0921 154.7684 -11120.3810 -10219.5314 154.7684 1019.2212 1052.3502 28390.1996 1019.2212 1052.3502
ENERGY: 600000 3.6177 4.5693 4.6259 0.0000 -12912.5452 2109.6522 0.0000 0.0000 1058.9538 -9731.1264 182.2468 -10790.0802 -9728.8746 179.9704 452.0703 499.5752 28186.5927 3.2691 3.2910
TCL: Running 100000 steps at 210 kelvin.
TCL: Setting parameter langevinTemp to 210
TCL: Running for 100000 steps
ETITLE: TS BOND ANGLE DIHED IMPRP ELECT VDW BOUNDARY MISC KINETIC TOTAL TEMP POTENTIAL TOTAL3 TEMPAVG PRESSURE GPRESSURE VOLUME PRESSAVG GPRESSAVG
ENERGY: 600000 3.6177 4.5693 4.6259 0.0000 -12912.5452 2109.6522 0.0000 0.0000 1058.4451 -9731.6351 182.1593 -10790.0802 -9729.8710 182.1593 430.4478 500.9191 28186.5927 430.4478 500.9191
ENERGY: 700000 5.1472 8.0146 3.8179 0.0000 -12246.1344 1861.2315 0.0000 0.0000 1220.9285 -9146.9947 210.1228 -10367.9232 -9144.3461 210.2734 -107.4457 -33.5119 28180.1301 4.1480 4.2176
TCL: Running 100000 steps at 240 kelvin.
TCL: Setting parameter langevinTemp to 240
TCL: Running for 100000 steps
ETITLE: TS BOND ANGLE DIHED IMPRP ELECT VDW BOUNDARY MISC KINETIC TOTAL TEMP POTENTIAL TOTAL3 TEMPAVG PRESSURE GPRESSURE VOLUME PRESSAVG GPRESSAVG
ENERGY: 700000 5.1472 8.0146 3.8179 0.0000 -12246.1344 1861.2315 0.0000 0.0000 1220.3099 -9147.6133 210.0164 -10367.9232 -9145.1347 210.0164 -115.5534 -33.0175 28180.1301 -115.5534 -33.0175
ENERGY: 800000 2.1580 2.7691 3.0088 0.0000 -11735.8956 1748.2336 0.0000 0.0000 1488.9077 -8490.8185 256.2423 -9979.7262 -8487.3436 240.4428 669.3571 698.1482 28529.0959 3.6756 3.5314
TCL: Running 100000 steps at 270 kelvin.
TCL: Setting parameter langevinTemp to 270
TCL: Running for 100000 steps
ETITLE: TS BOND ANGLE DIHED IMPRP ELECT VDW BOUNDARY MISC KINETIC TOTAL TEMP POTENTIAL TOTAL3 TEMPAVG PRESSURE GPRESSURE VOLUME PRESSAVG GPRESSAVG
ENERGY: 800000 2.1580 2.7691 3.0088 0.0000 -11735.8956 1748.2336 0.0000 0.0000 1488.2455 -8491.4806 256.1283 -9979.7262 -8488.7932 256.1283 607.1144 698.4586 28529.0959 607.1144 698.4586
ENERGY: 900000 4.5214 5.5516 4.9059 0.0000 -11091.7030 1521.4115 0.0000 0.0000 1558.9339 -7996.3787 268.2938 -9555.3126 -7992.5179 269.8467 -276.9348 -193.9808 29165.8080 3.9761 4.2328
TCL: Running 1000000 steps at 300 kelvin.
TCL: Setting parameter langevinTemp to 300
TCL: Running for 1000000 steps
ETITLE: TS BOND ANGLE DIHED IMPRP ELECT VDW BOUNDARY MISC KINETIC TOTAL TEMP POTENTIAL TOTAL3 TEMPAVG PRESSURE GPRESSURE VOLUME PRESSAVG GPRESSAVG
ENERGY: 900000 4.5214 5.5516 4.9059 0.0000 -11091.7030 1521.4115 0.0000 0.0000 1558.1658 -7997.1468 268.1617 -9555.3126 -7994.3753 268.1617 -282.9617 -194.9844 29165.8080 -282.9617 -194.9844
ENERGY: 1100000 5.8382 4.6448 5.2061 0.0000 -10680.2866 1493.9232 0.0000 0.0000 1765.4846 -7405.1897 303.8414 -9170.6743 -7400.9318 301.1514 706.6577 783.4166 29643.3588 2.6118 2.5755
ENERGY: 1300000 3.9854 5.1501 7.6126 0.0000 -10489.8972 1354.1275 0.0000 0.0000 1791.0797 -7327.9418 308.2464 -9119.0216 -7324.4537 300.8292 -438.0726 -374.3362 29735.0686 3.9654 3.8437
ENERGY: 1500000 4.4979 3.9281 6.3448 0.0000 -10363.0736 1308.8108 0.0000 0.0000 1754.2322 -7285.2599 301.9048 -9039.4921 -7282.9857 300.2755 -839.0062 -694.4392 30350.6944 2.9455 3.0699
ENERGY: 1700000 4.3623 6.0232 3.8365 0.0000 -10525.5788 1398.9271 0.0000 0.0000 1735.9757 -7376.4541 298.7629 -9112.4298 -7375.9188 300.0809 -284.2689 -177.8509 30338.2893 3.0997 2.9079
ENERGY: 1900000 5.0849 2.9014 7.0907 0.0000 -10478.7087 1384.1726 0.0000 0.0000 1778.2519 -7301.2072 306.0387 -9079.4591 -7295.6273 300.1723 -160.3393 -11.0192 30081.5845 3.5710 3.7175
TCL: Exiting due to exit command.
