Info: SIMULATION PARAMETERS:
Info: TIMESTEP               2
Info: NUMBER OF STEPS        0
Info: STEPS PER CYCLE        10
Info: PERIODIC CELL BASIS 1  30.9808 0 0
Info: PERIODIC CELL BASIS 2  0 31.3357 0
Info: PERIODIC CELL BASIS 3  0 0 31.6118
Info: PERIODIC CELL CENTER   0 0 0
Info: WRAPPING WATERS AROUND PERIODIC BOUNDARIES ON OUTPUT.
Info: WRAPPING ALL CLUSTERS AROUND PERIODIC BOUNDARIES ON OUTPUT.
Info: FIRST LDB TIMESTEP     50
Info: LAST LDB TIMESTEP     -1
Info: HOM BACKGROUND SCALING 1
Info: PME BACKGROUND SCALING 1
Info: MIN ATOMS PER PATCH    40
Info: EMPTY PATCH LOAD       40 ATOMS
Info: VELOCITY FILE          mobley_4364398_equil.vel
Info: CENTER OF MASS MOVING INITIALLY? NO
Info: DIELECTRIC             1
Info: EXCLUDE                SCALED ONE-FOUR
Info: 1-4 ELECTROSTATICS SCALED BY 0.833333
Info: MODIFIED 1-4 VDW PARAMETERS WILL BE USED
Info: DCD FILENAME           mobley_4364398_prod.dcd
Info: DCD FREQUENCY          100000
Info: DCD FIRST STEP         100000
Info: DCD FILE WILL CONTAIN UNIT CELL DATA
Info: XST FILENAME           mobley_4364398_prod.xst
Info: XST FREQUENCY          100000
Info: NO VELOCITY DCD OUTPUT
Info: NO FORCE DCD OUTPUT
Info: OUTPUT FILENAME        mobley_4364398_prod
Info: BINARY OUTPUT FILES WILL BE USED
Info: RESTART FILENAME       mobley_4364398_prod.restart
Info: RESTART FREQUENCY      100000
Info: BINARY RESTART FILES WILL BE USED
Info: CUTOFF                 9
Info: PAIRLIST DISTANCE      11
Info: PAIRLIST SHRINK RATE   0.01
Info: PAIRLIST GROW RATE     0.01
Info: PAIRLIST TRIGGER       0.3
Info: PAIRLISTS PER CYCLE    2
Info: PAIRLISTS ENABLED
Info: MARGIN                 2
Info: HYDROGEN GROUP CUTOFF  2.5
Info: PATCH DIMENSION        15.5
Info: ENERGY OUTPUT STEPS    100000
Info: ENERGY EVALUATION STEPS    100000
Info: OUTPUT ENERGY PRECISION 4
Info: CROSSTERM ENERGY INCLUDED IN DIHEDRAL
Info: TIMING OUTPUT STEPS    1000000
Info: PRESSURE OUTPUT STEPS  100000
Info: ALCHEMICAL FEP ON
Info: FEP CURRENT LAMBDA VALUE     1
Info: FEP COMPARISON LAMBDA VALUE  0.95
Info: FEP INTRA-ALCHEMICAL NON-BONDED INTERACTIONS WILL BE RETAINED
Info: FEP INTRA-ALCHEMICAL BONDED INTERACTIONS WILL BE RETAINED
Info: FEP VDW SHIFTING COEFFICIENT 5
Info: FEP ELEC. ACTIVE FOR ANNIHILATED PARTICLES BETWEEN LAMBDA = 0 AND LAMBDA = 0.5
Info: FEP ELEC. ACTIVE FOR EXNIHILATED PARTICLES BETWEEN LAMBDA = 0.5 AND LAMBDA = 1
Info: FEP VDW ACTIVE FOR ANNIHILATED PARTICLES BETWEEN LAMBDA = 0 AND LAMBDA = 1
Info: FEP VDW ACTIVE FOR EXNIHILATED PARTICLES BETWEEN LAMBDA = 0 AND LAMBDA = 1
Info: FEP BOND ACTIVE FOR ANNIHILATED PARTICLES BETWEEN LAMBDA = 1 AND LAMBDA = 1
Info: FEP BOND ACTIVE FOR EXNIHILATED PARTICLES BETWEEN LAMBDA = 0 AND LAMBDA = 0
Info: LANGEVIN DYNAMICS ACTIVE
Info: LANGEVIN TEMPERATURE   300
Info: LANGEVIN USING BBK INTEGRATOR
Info: LANGEVIN DAMPING COEFFICIENT IS 1 INVERSE PS
Info: LANGEVIN DYNAMICS APPLIED TO HYDROGENS
Info: LANGEVIN PISTON PRESSURE CONTROL ACTIVE
Info:        TARGET PRESSURE IS 1.01325 BAR
Info:     OSCILLATION PERIOD IS 50 FS
Info:             DECAY TIME IS 25 FS
Info:     PISTON TEMPERATURE IS 300 K
Info:       PRESSURE CONTROL IS GROUP-BASED
Info:    INITIAL STRAIN RATE IS 0.000130774 0.000130774 0.000130774
Info:       CELL FLUCTUATION IS ISOTROPIC
Info: PARTICLE MESH EWALD (PME) ACTIVE
Info: PME TOLERANCE               1e-06
Info: PME EWALD COEFFICIENT       0.348832
Info: PME INTERPOLATION ORDER     4
Info: PME GRID DIMENSIONS         32 32 32
Info: PME MAXIMUM GRID SPACING    1
Info: PME CALCULATION WILL BE PERFORMED ON GPU
Info: FULL ELECTROSTATIC EVALUATION FREQUENCY      2
Info: USING VERLET I (r-RESPA) MTS SCHEME.
Info: C1 SPLITTING OF LONG RANGE ELECTROSTATICS
Info: PLACING ATOMS IN PATCHES BY HYDROGEN GROUPS
Info: RIGID BONDS TO HYDROGEN : ALL
Info:         ERROR TOLERANCE : 1e-08
Info:          MAX ITERATIONS : 100
Info: RIGID WATER USING SETTLE ALGORITHM
Info: RANDOM NUMBER SEED     1743471397
Info: USE HYDROGEN BONDS?    NO
Info: Using AMBER format force field!
Info: AMBER PARM FILE        mobley_4364398.prmtop
Info: COORDINATE PDB         mobley_4364398.pdb
Info: Exclusions will be read from PARM file!
Info: SCNB (VDW SCALING)     2
Info: USING ARITHMETIC MEAN TO COMBINE L-J SIGMA PARAMETERS
Info: BINARY COORDINATES     mobley_4364398_equil.coor
Info: SUMMARY OF PARAMETERS:
Info: 4 BONDS
Info: 2 ANGLES
Info:   2 HARMONIC
Info:   0 COSINE-BASED
Info: 0 DIHEDRAL
Info: 0 IMPROPER
Info: 0 CROSSTERM
Info: 0 VDW
Info: 15 VDW_PAIRS
Info: 0 NBTHOLE_PAIRS
Info: To read alchdata from file: mobley_4364398.pdb
Info: To read alchflag data from column: 5
Info: STRUCTURE SUMMARY:
Info: 2987 ATOMS
Info: 2986 BONDS
Info: 6 ANGLES
Info: 0 DIHEDRALS
Info: 0 IMPROPERS
Info: 0 CROSSTERMS
Info: 2992 EXCLUSIONS
Info: 2985 RIGID BONDS
Info: ALCH: 0 ATOMS TO DISAPPEAR IN FINAL STATE
Info: ALCH: 5 ATOMS TO APPEAR IN FINAL STATE
Info: 5976 DEGREES OF FREEDOM
Info: 996 HYDROGEN GROUPS
Info: 4 ATOMS IN LARGEST HYDROGEN GROUP
Info: 996 MIGRATION GROUPS
Info: 4 ATOMS IN LARGEST MIGRATION GROUP
Info: TOTAL MASS = 18049.8 amu
Info: TOTAL CHARGE = -9.99942e-05 e
Info: MASS DENSITY = 0.976678 g/cm^3
Info: ATOM DENSITY = 0.0973316 atoms/A^3
Info: ADDED 0 IMPLICIT EXCLUSIONS
Info: NONBONDED TABLE R-SQUARED SPACING: 0.0625
Info: NONBONDED TABLE SIZE: 705 POINTS
Info: REMOVING COM VELOCITY 0.117569 0.199802 0.045877
Info: Use 3D box decompostion in PME FFT.
Info: Updated CUDA force table with 4096 elements.
Info: Updated CUDA LJ table with 5 x 5 elements.
Info: Found 8 unique exclusion lists needing 8 bytes
TCL: Running for 1500000 steps
ETITLE: TS BOND ANGLE DIHED IMPRP ELECT VDW BOUNDARY MISC KINETIC TOTAL TEMP POTENTIAL TOTALAVG TEMPAVG PRESSURE GPRESSURE VOLUME PRESSAVG GPRESSAVG
ENERGY: 0 1.0053 2.4221 0.0000 0.0000 -10874.3261 1399.7359 0.0000 0.0000 1819.6095 -7651.5532 306.4488 -9471.1627 -7651.5532 306.4488 -644.3290 -554.7480 30688.8949 -644.3290 -554.7480
ENERGY: 300000 0.0589 3.7647 0.0000 0.0000 -10826.2398 1436.1125 0.0000 0.0000 1726.6114 -7659.6923 290.7866 -9386.3037 -7610.1342 302.1940 -132.0844 -50.5456 30667.0562 -15.2576 44.1159
ENERGY: 600000 0.1511 1.0521 0.0000 0.0000 -10813.4729 1443.5769 0.0000 0.0000 1842.1241 -7526.5688 310.2406 -9368.6929 -7606.9066 302.1166 -268.4530 -188.8219 31173.8133 -28.0492 40.9996
ENERGY: 900000 0.0006 2.3211 0.0000 0.0000 -10886.0579 1468.2283 0.0000 0.0000 1797.9706 -7617.5374 302.8045 -9415.5079 -7611.9613 301.2297 17.0558 148.2648 30617.3070 -121.0748 -48.2392
ENERGY: 1200000 0.4520 1.3415 0.0000 0.0000 -10959.5039 1487.9265 0.0000 0.0000 1780.4752 -7689.3087 299.8581 -9469.7839 -7609.7463 301.3952 290.2085 376.6500 30247.0308 -184.4026 -112.9188
ENERGY: 1500000 0.0454 1.6772 0.0000 0.0000 -10889.1394 1477.7856 0.0000 0.0000 1786.1692 -7623.4620 300.8170 -9409.6312 -7613.7428 301.1661 163.8109 183.0242 30517.6336 -215.8006 -141.6967
TCL: Running FEP window   2: Lambda1 0.95   Lambda2 0.8999999999999999 [dLambda -0.050000000000000044]
TCL: Setting parameter firsttimestep to 0
TCL: Setting parameter alchLambda to 0.95
Info: NONBONDED TABLE R-SQUARED SPACING: 0.0625
Info: NONBONDED TABLE SIZE: 705 POINTS
TCL: Setting parameter alchLambda2 to 0.8999999999999999
Info: NONBONDED TABLE R-SQUARED SPACING: 0.0625
Info: NONBONDED TABLE SIZE: 705 POINTS
TCL: Running for 1500000 steps
ETITLE: TS BOND ANGLE DIHED IMPRP ELECT VDW BOUNDARY MISC KINETIC TOTAL TEMP POTENTIAL TOTALAVG TEMPAVG PRESSURE GPRESSURE VOLUME PRESSAVG GPRESSAVG
ENERGY: 0 0.0454 1.6772 0.0000 0.0000 -10888.3656 1477.6219 0.0000 0.0000 1785.2738 -7623.7471 300.6662 -9409.0210 -7623.7471 300.6662 96.0158 173.4269 30517.6336 96.0158 173.4269
ENERGY: 300000 0.0097 3.8996 0.0000 0.0000 -10802.5642 1452.2387 0.0000 0.0000 1790.6629 -7555.7533 301.5738 -9346.4162 -7566.8053 300.5112 -107.4436 -82.9017 31386.2626 -105.6434 -36.6041
ENERGY: 600000 0.2036 3.9394 0.0000 0.0000 -10916.0723 1450.0028 0.0000 0.0000 1822.2616 -7639.6649 306.8955 -9461.9265 -7593.8518 302.0861 -0.8428 19.5063 30356.8020 -100.6391 -36.8016
ENERGY: 900000 0.5508 1.5673 0.0000 0.0000 -10930.0858 1491.4912 0.0000 0.0000 1773.1715 -7663.3049 298.6280 -9436.4765 -7607.8982 301.4613 386.0238 416.7558 30482.5498 -115.9858 -70.8117
ENERGY: 1200000 0.0013 0.7711 0.0000 0.0000 -10884.4528 1441.3942 0.0000 0.0000 1751.9712 -7690.3149 295.0576 -9442.2862 -7608.5446 301.5557 -318.1618 -207.6716 30785.1202 -142.1800 -93.2493
ENERGY: 1500000 0.0078 2.5417 0.0000 0.0000 -10723.6015 1384.7708 0.0000 0.0000 1784.0277 -7552.2536 300.4564 -9336.2813 -7610.9709 300.5307 -612.4903 -533.9716 31264.0464 -149.8297 -98.5113
TCL: Running FEP window   3: Lambda1 0.8999999999999999 Lambda2 0.8499999999999999 [dLambda -0.050000000000000044]
TCL: Setting parameter firsttimestep to 0
TCL: Setting parameter alchLambda to 0.8999999999999999
Info: NONBONDED TABLE R-SQUARED SPACING: 0.0625
Info: NONBONDED TABLE SIZE: 705 POINTS
TCL: Setting parameter alchLambda2 to 0.8499999999999999
Info: NONBONDED TABLE R-SQUARED SPACING: 0.0625
Info: NONBONDED TABLE SIZE: 705 POINTS
TCL: Running for 1500000 steps
ETITLE: TS BOND ANGLE DIHED IMPRP ELECT VDW BOUNDARY MISC KINETIC TOTAL TEMP POTENTIAL TOTALAVG TEMPAVG PRESSURE GPRESSURE VOLUME PRESSAVG GPRESSAVG
ENERGY: 0 0.0078 2.5417 0.0000 0.0000 -10723.0808 1384.9546 0.0000 0.0000 1783.1166 -7552.4602 300.3029 -9335.5768 -7552.4602 300.3029 -611.5805 -534.8853 31264.0464 -611.5805 -534.8853
ENERGY: 300000 0.0056 1.4579 0.0000 0.0000 -10891.5342 1474.6425 0.0000 0.0000 1827.4288 -7587.9994 307.7657 -9415.4282 -7572.0638 301.1739 64.4751 115.9258 30820.8490 -142.1657 -77.8427
ENERGY: 600000 0.0066 1.7945 0.0000 0.0000 -10881.4490 1503.9692 0.0000 0.0000 1767.7362 -7607.9426 297.7126 -9375.6787 -7587.0178 298.2804 365.7835 419.6838 30752.2272 -176.2540 -105.5734
ENERGY: 900000 0.7020 0.9676 0.0000 0.0000 -10953.4543 1517.3254 0.0000 0.0000 1755.8795 -7678.5797 295.7158 -9434.4592 -7605.9750 297.1063 280.4410 403.9753 30785.1407 -118.4014 -52.6227
ENERGY: 1200000 0.0033 1.1275 0.0000 0.0000 -10787.2685 1445.0431 0.0000 0.0000 1737.3046 -7603.7900 292.5875 -9341.0946 -7607.7915 297.2300 -117.9667 -44.9125 31008.2347 -126.5869 -54.8211
ENERGY: 1500000 0.0121 5.5651 0.0000 0.0000 -11027.0765 1567.1490 0.0000 0.0000 1784.5220 -7669.8283 300.5396 -9454.3503 -7599.7191 298.2496 886.3131 995.5442 30189.7041 -3.9699 58.8461
TCL: Running FEP window   4: Lambda1 0.8499999999999999 Lambda2 0.7999999999999998 [dLambda -0.050000000000000044]
TCL: Setting parameter firsttimestep to 0
TCL: Setting parameter alchLambda to 0.8499999999999999
Info: NONBONDED TABLE R-SQUARED SPACING: 0.0625
Info: NONBONDED TABLE SIZE: 705 POINTS
TCL: Setting parameter alchLambda2 to 0.7999999999999998
Info: NONBONDED TABLE R-SQUARED SPACING: 0.0625
Info: NONBONDED TABLE SIZE: 705 POINTS
TCL: Running for 1500000 steps
ETITLE: TS BOND ANGLE DIHED IMPRP ELECT VDW BOUNDARY MISC KINETIC TOTAL TEMP POTENTIAL TOTALAVG TEMPAVG PRESSURE GPRESSURE VOLUME PRESSAVG GPRESSAVG
ENERGY: 0 0.0121 5.5651 0.0000 0.0000 -11026.6396 1567.3582 0.0000 0.0000 1783.6646 -7670.0396 300.3952 -9453.7042 -7670.0396 300.3952 911.3260 992.4960 30189.7041 911.3260 992.4960
ENERGY: 300000 0.0002 2.9889 0.0000 0.0000 -10741.8012 1356.1637 0.0000 0.0000 1797.0307 -7585.6177 302.6462 -9382.6484 -7636.7828 299.5019 -867.1882 -849.3360 31345.0023 -230.7387 -149.2065
ENERGY: 600000 0.0047 2.0414 0.0000 0.0000 -10725.8100 1373.0815 0.0000 0.0000 1812.4177 -7538.2647 305.2376 -9350.6823 -7631.5272 297.7523 -549.1843 -461.7528 30817.1440 -237.5688 -168.3361
ENERGY: 900000 0.0210 4.3266 0.0000 0.0000 -10949.2385 1509.7273 0.0000 0.0000 1820.0057 -7615.1579 306.5156 -9435.1637 -7628.0185 300.2049 230.6244 269.7902 30757.7163 -153.4652 -97.3929
ENERGY: 1200000 0.0114 1.4216 0.0000 0.0000 -10809.9421 1388.0962 0.0000 0.0000 1724.4922 -7695.9206 290.4297 -9420.4128 -7632.1383 298.8075 -873.0155 -804.9287 31011.2307 -276.8630 -224.7633
ENERGY: 1500000 0.2927 3.1920 0.0000 0.0000 -10954.6631 1498.6617 0.0000 0.0000 1755.6685 -7696.8482 295.6802 -9452.5167 -7635.0796 298.6704 62.1823 138.5407 30808.2944 -267.6070 -205.9892
TCL: Running FEP window   5: Lambda1 0.7999999999999998 Lambda2 0.7499999999999998 [dLambda -0.050000000000000044]
TCL: Setting parameter firsttimestep to 0
TCL: Setting parameter alchLambda to 0.7999999999999998
Info: NONBONDED TABLE R-SQUARED SPACING: 0.0625
Info: NONBONDED TABLE SIZE: 705 POINTS
TCL: Setting parameter alchLambda2 to 0.7499999999999998
Info: NONBONDED TABLE R-SQUARED SPACING: 0.0625
Info: NONBONDED TABLE SIZE: 705 POINTS
TCL: Running for 1500000 steps
ETITLE: TS BOND ANGLE DIHED IMPRP ELECT VDW BOUNDARY MISC KINETIC TOTAL TEMP POTENTIAL TOTALAVG TEMPAVG PRESSURE GPRESSURE VOLUME PRESSAVG GPRESSAVG
ENERGY: 0 0.2927 3.1920 0.0000 0.0000 -10954.4719 1498.4454 0.0000 0.0000 1754.7818 -7697.7600 295.5309 -9452.5418 -7697.7600 295.5309 48.9376 130.7996 30808.2944 48.9376 130.7996
ENERGY: 300000 0.3170 1.3995 0.0000 0.0000 -10938.6457 1513.7045 0.0000 0.0000 1772.1849 -7651.0398 298.4619 -9423.2247 -7602.4356 297.6455 -51.2926 52.0738 31236.5105 70.4277 150.0079
ENERGY: 600000 0.0039 3.7765 0.0000 0.0000 -11000.7648 1545.3191 0.0000 0.0000 1775.8456 -7675.8198 299.0784 -9451.6654 -7624.7260 297.2162 291.5786 323.1945 31048.7495 -29.5664 43.9485
ENERGY: 900000 1.2806 2.1566 0.0000 0.0000 -10682.7043 1361.2142 0.0000 0.0000 1773.3392 -7544.7138 298.6563 -9318.0530 -7622.0799 297.2266 -446.2515 -478.4485 30598.1672 -121.3719 -55.0836
ENERGY: 1200000 0.0179 1.3499 0.0000 0.0000 -10900.8251 1504.7056 0.0000 0.0000 1787.7155 -7607.0361 301.0774 -9394.7516 -7615.0013 299.4534 159.6675 190.9823 31164.2162 -64.3342 4.4941
ENERGY: 1500000 0.0000 3.3335 0.0000 0.0000 -10944.6595 1509.8643 0.0000 0.0000 1784.8233 -7646.6383 300.5903 -9431.4617 -7613.6646 300.2584 606.7460 631.7643 30080.6573 8.8416 75.9666
TCL: Running FEP window   6: Lambda1 0.7499999999999998 Lambda2 0.6999999999999997 [dLambda -0.050000000000000044]
TCL: Setting parameter firsttimestep to 0
TCL: Setting parameter alchLambda to 0.7499999999999998
Info: NONBONDED TABLE R-SQUARED SPACING: 0.0625
Info: NONBONDED TABLE SIZE: 705 POINTS
TCL: Setting parameter alchLambda2 to 0.6999999999999997
Info: NONBONDED TABLE R-SQUARED SPACING: 0.0625
Info: NONBONDED TABLE SIZE: 705 POINTS
TCL: Running for 1500000 steps
ETITLE: TS BOND ANGLE DIHED IMPRP ELECT VDW BOUNDARY MISC KINETIC TOTAL TEMP POTENTIAL TOTALAVG TEMPAVG PRESSURE GPRESSURE VOLUME PRESSAVG GPRESSAVG
ENERGY: 0 0.0000 3.3335 0.0000 0.0000 -10944.3772 1510.1132 0.0000 0.0000 1783.9509 -7646.9796 300.4434 -9430.9304 -7646.9796 300.4434 554.9935 628.0331 30080.6573 554.9935 628.0331
ENERGY: 300000 0.0029 2.0799 0.0000 0.0000 -10714.8170 1350.1675 0.0000 0.0000 1803.4048 -7559.1619 303.7197 -9362.5667 -7608.5163 303.1837 -740.1550 -698.9482 30944.4215 -352.8409 -302.9353
ENERGY: 600000 0.4294 2.4953 0.0000 0.0000 -11088.2828 1593.9785 0.0000 0.0000 1837.4214 -7653.9583 309.4486 -9491.3796 -7633.6632 300.4256 907.8634 990.5280 30428.9325 -143.8124 -89.6532
ENERGY: 900000 0.0293 0.6897 0.0000 0.0000 -10914.9175 1468.1612 0.0000 0.0000 1761.9972 -7684.0401 296.7461 -9446.0373 -7647.3304 299.1019 261.0303 330.0097 30090.9201 -60.5821 -4.7980
ENERGY: 1200000 0.0018 1.1435 0.0000 0.0000 -10860.6524 1478.3470 0.0000 0.0000 1820.2682 -7560.8918 306.5598 -9381.1601 -7632.2459 300.2193 57.2794 166.7219 30809.0858 -53.8105 2.3274
ENERGY: 1500000 1.1841 0.9064 0.0000 0.0000 -10589.5562 1290.4113 0.0000 0.0000 1762.5685 -7534.4859 296.8423 -9297.0543 -7613.7063 300.5481 -1236.5952 -1159.8406 31004.9497 -153.3047 -93.2905
TCL: Running FEP window   7: Lambda1 0.6999999999999997 Lambda2 0.6499999999999997 [dLambda -0.050000000000000044]
TCL: Setting parameter firsttimestep to 0
TCL: Setting parameter alchLambda to 0.6999999999999997
Info: NONBONDED TABLE R-SQUARED SPACING: 0.0625
Info: NONBONDED TABLE SIZE: 705 POINTS
TCL: Setting parameter alchLambda2 to 0.6499999999999997
Info: NONBONDED TABLE R-SQUARED SPACING: 0.0625
Info: NONBONDED TABLE SIZE: 705 POINTS
TCL: Running for 1500000 steps
ETITLE: TS BOND ANGLE DIHED IMPRP ELECT VDW BOUNDARY MISC KINETIC TOTAL TEMP POTENTIAL TOTALAVG TEMPAVG PRESSURE GPRESSURE VOLUME PRESSAVG GPRESSAVG
ENERGY: 0 1.1841 0.9064 0.0000 0.0000 -10589.3759 1290.4272 0.0000 0.0000 1761.6948 -7535.1634 296.6952 -9296.8582 -7535.1634 296.6952 -1245.0855 -1165.2158 31004.9497 -1245.0855 -1165.2158
ENERGY: 300000 0.6531 2.4277 0.0000 0.0000 -10899.2375 1459.5498 0.0000 0.0000 1863.6693 -7572.9376 313.8692 -9436.6069 -7614.6325 300.6981 -20.7357 93.0837 30590.3957 -287.6328 -196.0531
ENERGY: 600000 0.0003 2.2950 0.0000 0.0000 -10898.3319 1458.4780 0.0000 0.0000 1788.9696 -7648.5889 301.2886 -9437.5585 -7603.3359 300.7563 -31.2142 -14.9705 30436.6382 -288.7771 -217.2565
ENERGY: 900000 0.5117 2.9047 0.0000 0.0000 -10819.7698 1402.2854 0.0000 0.0000 1731.9225 -7682.1456 291.6811 -9414.0681 -7612.9411 298.8773 -534.5775 -519.6547 30902.3653 -236.7766 -177.3627
ENERGY: 1200000 0.0001 4.6749 0.0000 0.0000 -10758.8906 1433.9789 0.0000 0.0000 1726.9814 -7593.2554 290.8489 -9320.2368 -7606.8982 298.6888 -62.5863 -47.7540 30856.3113 -163.5381 -110.8397
ENERGY: 1500000 0.3312 1.1817 0.0000 0.0000 -10808.5980 1444.8586 0.0000 0.0000 1779.2672 -7582.9592 299.6546 -9362.2264 -7594.4800 299.3973 -155.1766 -85.9491 30851.2063 -159.8744 -108.5225
TCL: Running FEP window   8: Lambda1 0.6499999999999997 Lambda2 0.5999999999999996 [dLambda -0.050000000000000044]
TCL: Setting parameter firsttimestep to 0
TCL: Setting parameter alchLambda to 0.6499999999999997
Info: NONBONDED TABLE R-SQUARED SPACING: 0.0625
Info: NONBONDED TABLE SIZE: 705 POINTS
TCL: Setting parameter alchLambda2 to 0.5999999999999996
Info: NONBONDED TABLE R-SQUARED SPACING: 0.0625
Info: NONBONDED TABLE SIZE: 705 POINTS
TCL: Running for 1500000 steps
ETITLE: TS BOND ANGLE DIHED IMPRP ELECT VDW BOUNDARY MISC KINETIC TOTAL TEMP POTENTIAL TOTALAVG TEMPAVG PRESSURE GPRESSURE VOLUME PRESSAVG GPRESSAVG
ENERGY: 0 0.3312 1.1817 0.0000 0.0000 -10808.4262 1444.8763 0.0000 0.0000 1778.4109 -7583.6260 299.5104 -9362.0369 -7583.6260 299.5104 -164.6196 -89.2370 30851.2063 -164.6196 -89.2370
ENERGY: 300000 0.0392 2.0756 0.0000 0.0000 -10901.1586 1431.2609 0.0000 0.0000 1768.0353 -7699.7475 297.7630 -9467.7829 -7637.7457 297.3401 -486.1808 -394.6962 30738.1738 -286.5525 -218.1995
ENERGY: 600000 0.0000 2.1116 0.0000 0.0000 -11067.6316 1648.8024 0.0000 0.0000 1752.7151 -7664.0025 295.1828 -9416.7176 -7624.8252 299.7358 1597.1442 1656.7737 30133.0748 170.5800 227.3403
ENERGY: 900000 0.0111 1.6971 0.0000 0.0000 -10873.0420 1524.0393 0.0000 0.0000 1771.8064 -7575.4881 298.3981 -9347.2945 -7603.9069 300.1784 770.0212 924.8110 30201.5979 166.2023 230.5499
ENERGY: 1200000 0.0060 1.5109 0.0000 0.0000 -10963.6942 1512.7344 0.0000 0.0000 1738.0766 -7711.3663 292.7175 -9449.4429 -7610.0667 299.2691 121.7042 213.2594 30704.2012 40.5058 109.9784
ENERGY: 1500000 0.7032 1.4412 0.0000 0.0000 -10920.5784 1544.4300 0.0000 0.0000 1771.3063 -7602.6977 298.3139 -9374.0040 -7604.2490 299.7465 665.7754 718.5345 30481.3344 67.2388 138.3749
TCL: Running FEP window   9: Lambda1 0.5999999999999996 Lambda2 0.5499999999999996 [dLambda -0.050000000000000044]
TCL: Setting parameter firsttimestep to 0
TCL: Setting parameter alchLambda to 0.5999999999999996
Info: NONBONDED TABLE R-SQUARED SPACING: 0.0625
Info: NONBONDED TABLE SIZE: 705 POINTS
TCL: Setting parameter alchLambda2 to 0.5499999999999996
Info: NONBONDED TABLE R-SQUARED SPACING: 0.0625
Info: NONBONDED TABLE SIZE: 705 POINTS
TCL: Running for 1500000 steps
ETITLE: TS BOND ANGLE DIHED IMPRP ELECT VDW BOUNDARY MISC KINETIC TOTAL TEMP POTENTIAL TOTALAVG TEMPAVG PRESSURE GPRESSURE VOLUME PRESSAVG GPRESSAVG
ENERGY: 0 0.7032 1.4412 0.0000 0.0000 -10920.3621 1544.3835 0.0000 0.0000 1770.4139 -7603.4204 298.1636 -9373.8343 -7603.4204 298.1636 628.5761 712.7813 30481.3344 628.5761 712.7813
ENERGY: 300000 0.0201 2.2380 0.0000 0.0000 -10986.4156 1506.6705 0.0000 0.0000 1717.4050 -7760.0819 289.2361 -9477.4869 -7659.1461 297.3884 288.1052 321.6059 30419.9211 200.0152 251.3002
ENERGY: 600000 0.1037 0.9506 0.0000 0.0000 -10905.8871 1449.0762 0.0000 0.0000 1766.3252 -7689.4315 297.4750 -9455.7566 -7661.1083 296.9950 -212.8715 -132.4918 30716.6813 104.6536 174.8086
ENERGY: 900000 0.0128 4.3177 0.0000 0.0000 -10789.7182 1432.7612 0.0000 0.0000 1780.7921 -7571.8344 299.9114 -9352.6265 -7640.6504 297.7688 -207.4681 -161.5303 30831.9270 62.0267 137.7742
ENERGY: 1200000 0.1446 0.9071 0.0000 0.0000 -10728.6203 1364.6020 0.0000 0.0000 1757.2479 -7605.7187 295.9462 -9362.9666 -7633.4659 297.6463 -334.7623 -346.4662 30343.5444 39.5747 106.7982
ENERGY: 1500000 0.2922 1.4825 0.0000 0.0000 -10677.6912 1334.8521 0.0000 0.0000 1765.7933 -7575.2710 297.3854 -9341.0643 -7632.4370 298.2855 -747.0930 -751.5274 30974.9091 -98.5208 -38.3238
TCL: Running FEP window  10: Lambda1 0.5499999999999996 Lambda2 0.4999999999999996 [dLambda -0.04999999999999999]
TCL: Setting parameter firsttimestep to 0
TCL: Setting parameter alchLambda to 0.5499999999999996
Info: NONBONDED TABLE R-SQUARED SPACING: 0.0625
Info: NONBONDED TABLE SIZE: 705 POINTS
TCL: Setting parameter alchLambda2 to 0.4999999999999996
Info: NONBONDED TABLE R-SQUARED SPACING: 0.0625
Info: NONBONDED TABLE SIZE: 705 POINTS
TCL: Running for 1500000 steps
ETITLE: TS BOND ANGLE DIHED IMPRP ELECT VDW BOUNDARY MISC KINETIC TOTAL TEMP POTENTIAL TOTALAVG TEMPAVG PRESSURE GPRESSURE VOLUME PRESSAVG GPRESSAVG
ENERGY: 0 0.2922 1.4825 0.0000 0.0000 -10677.6981 1335.1369 0.0000 0.0000 1764.8928 -7575.8937 297.2338 -9340.7865 -7575.8937 297.2338 -839.8698 -753.9838 30974.9091 -839.8698 -753.9838
ENERGY: 300000 0.3917 1.1166 0.0000 0.0000 -10945.4157 1476.8562 0.0000 0.0000 1780.8356 -7686.2157 299.9187 -9467.0512 -7633.6302 300.1065 -44.5198 75.1363 30727.0922 -141.1163 -79.4852
ENERGY: 600000 0.1909 2.8615 0.0000 0.0000 -10782.4359 1431.6859 0.0000 0.0000 1768.4704 -7579.2272 297.8363 -9347.6976 -7630.8904 298.2396 -262.7828 -229.3455 30978.5539 -118.8738 -64.7476
ENERGY: 900000 0.5352 2.0028 0.0000 0.0000 -10678.7072 1389.5299 0.0000 0.0000 1751.0586 -7535.5807 294.9039 -9286.6393 -7613.5015 297.0504 -428.0888 -378.3985 31204.4104 -278.8502 -221.2717
ENERGY: 1200000 0.2529 2.4853 0.0000 0.0000 -11052.9566 1600.2258 0.0000 0.0000 1800.1238 -7649.8687 303.1672 -9449.9926 -7620.4713 298.3124 807.0066 919.5175 30534.0127 -238.3965 -177.2875
ENERGY: 1500000 0.6605 2.5581 0.0000 0.0000 -10887.2998 1488.3576 0.0000 0.0000 1789.0925 -7606.6311 301.3093 -9395.7236 -7617.1025 298.4642 161.6255 238.1488 30800.3611 -263.7856 -198.9045
TCL: Running FEP window  11: Lambda1 0.4999999999999996 Lambda2 0.4499999999999996 [dLambda -0.04999999999999999]
TCL: Setting parameter firsttimestep to 0
TCL: Setting parameter alchLambda to 0.4999999999999996
Info: NONBONDED TABLE R-SQUARED SPACING: 0.0625
Info: NONBONDED TABLE SIZE: 705 POINTS
TCL: Setting parameter alchLambda2 to 0.4499999999999996
Info: NONBONDED TABLE R-SQUARED SPACING: 0.0625
Info: NONBONDED TABLE SIZE: 705 POINTS
TCL: Running for 1500000 steps
ETITLE: TS BOND ANGLE DIHED IMPRP ELECT VDW BOUNDARY MISC KINETIC TOTAL TEMP POTENTIAL TOTALAVG TEMPAVG PRESSURE GPRESSURE VOLUME PRESSAVG GPRESSAVG
ENERGY: 0 0.6605 2.5581 0.0000 0.0000 -10886.8854 1488.1766 0.0000 0.0000 1788.1922 -7607.2981 301.1577 -9395.4903 -7607.2981 301.1577 149.4344 232.3486 30800.3611 149.4344 232.3486
ENERGY: 300000 0.0498 1.7250 0.0000 0.0000 -10873.4544 1416.2801 0.0000 0.0000 1775.5445 -7679.8549 299.0277 -9455.3995 -7634.4136 302.1315 -713.5074 -648.8921 31110.8862 -123.3404 -48.7562
ENERGY: 600000 0.8479 1.3563 0.0000 0.0000 -10830.2445 1458.5339 0.0000 0.0000 1801.1176 -7568.3888 303.3345 -9369.5064 -7630.2779 303.5010 -23.6432 91.2800 30882.6609 -98.8084 -25.6048
ENERGY: 900000 0.0197 2.8158 0.0000 0.0000 -10867.5992 1469.2281 0.0000 0.0000 1825.7053 -7569.8303 307.4755 -9395.5356 -7621.3691 303.4027 238.5430 280.8849 30527.8976 -19.9240 45.5680
ENERGY: 1200000 0.0395 1.2976 0.0000 0.0000 -10871.9543 1483.4331 0.0000 0.0000 1769.5978 -7617.5864 298.0261 -9387.1842 -7619.7237 302.2217 413.0619 437.9951 30489.7722 48.6031 97.7045
ENERGY: 1500000 0.0498 2.1568 0.0000 0.0000 -10936.6433 1527.9094 0.0000 0.0000 1752.2019 -7654.3253 295.0964 -9406.5273 -7624.9649 301.0240 669.3345 749.5630 30156.9678 63.6463 120.1512
TCL: Running FEP window  12: Lambda1 0.4499999999999996 Lambda2 0.39999999999999963 [dLambda -0.04999999999999999]
TCL: Setting parameter firsttimestep to 0
TCL: Setting parameter alchLambda to 0.4499999999999996
Info: NONBONDED TABLE R-SQUARED SPACING: 0.0625
Info: NONBONDED TABLE SIZE: 705 POINTS
TCL: Setting parameter alchLambda2 to 0.39999999999999963
Info: NONBONDED TABLE R-SQUARED SPACING: 0.0625
Info: NONBONDED TABLE SIZE: 705 POINTS
TCL: Running for 1500000 steps
ETITLE: TS BOND ANGLE DIHED IMPRP ELECT VDW BOUNDARY MISC KINETIC TOTAL TEMP POTENTIAL TOTALAVG TEMPAVG PRESSURE GPRESSURE VOLUME PRESSAVG GPRESSAVG
ENERGY: 0 0.0498 2.1568 0.0000 0.0000 -10936.6444 1527.5871 0.0000 0.0000 1751.3289 -7655.5217 294.9494 -9406.8506 -7655.5217 294.9494 662.5864 741.4986 30156.9678 662.5864 741.4986
ENERGY: 300000 0.0378 2.8513 0.0000 0.0000 -10857.3290 1509.5810 0.0000 0.0000 1815.2005 -7529.6584 305.7063 -9344.8589 -7568.7995 300.5622 536.7364 627.4884 30863.4864 -23.7659 32.1577
ENERGY: 600000 0.0172 2.0275 0.0000 0.0000 -10948.8269 1493.0715 0.0000 0.0000 1780.7812 -7672.9295 299.9096 -9453.7107 -7600.1592 299.6476 171.3646 239.3628 30514.9844 54.7136 107.1286
ENERGY: 900000 0.0014 1.8260 0.0000 0.0000 -10877.2629 1446.7273 0.0000 0.0000 1840.2094 -7588.4988 309.9182 -9428.7082 -7571.5170 302.1925 -98.9234 -24.6993 30645.5965 46.2734 101.3829
ENERGY: 1200000 0.1835 2.2130 0.0000 0.0000 -10956.9408 1527.9432 0.0000 0.0000 1739.0044 -7687.5967 292.8738 -9426.6011 -7587.7313 300.8535 69.5122 163.0691 30893.3701 24.1530 82.9690
ENERGY: 1500000 0.1829 1.1943 0.0000 0.0000 -10831.2482 1484.7483 0.0000 0.0000 1781.4550 -7563.6678 300.0231 -9345.1228 -7589.2724 299.7421 92.5001 167.9608 31202.5048 -54.7161 6.1456
TCL: Running FEP window  13: Lambda1 0.39999999999999963 Lambda2 0.34999999999999964 [dLambda -0.04999999999999999]
TCL: Setting parameter firsttimestep to 0
TCL: Setting parameter alchLambda to 0.39999999999999963
Info: NONBONDED TABLE R-SQUARED SPACING: 0.0625
Info: NONBONDED TABLE SIZE: 705 POINTS
TCL: Setting parameter alchLambda2 to 0.34999999999999964
Info: NONBONDED TABLE R-SQUARED SPACING: 0.0625
Info: NONBONDED TABLE SIZE: 705 POINTS
TCL: Running for 1500000 steps
ETITLE: TS BOND ANGLE DIHED IMPRP ELECT VDW BOUNDARY MISC KINETIC TOTAL TEMP POTENTIAL TOTALAVG TEMPAVG PRESSURE GPRESSURE VOLUME PRESSAVG GPRESSAVG
ENERGY: 0 0.1829 1.1943 0.0000 0.0000 -10831.2483 1484.3262 0.0000 0.0000 1780.5466 -7564.9984 299.8701 -9345.5450 -7564.9984 299.8701 80.9698 159.0709 31202.5048 80.9698 159.0709
ENERGY: 300000 0.0794 0.8351 0.0000 0.0000 -10789.6127 1352.3889 0.0000 0.0000 1744.2823 -7692.0270 293.7626 -9436.3093 -7608.7967 299.2222 -797.8022 -749.7325 30370.8362 -247.6191 -177.3702
ENERGY: 600000 1.0481 1.8487 0.0000 0.0000 -10935.8712 1459.5193 0.0000 0.0000 1781.7516 -7691.7036 300.0730 -9473.4552 -7614.8426 299.0316 -144.5473 -78.9643 30621.5597 -140.3338 -77.1587
ENERGY: 900000 0.5126 2.0654 0.0000 0.0000 -10817.5184 1383.4619 0.0000 0.0000 1814.8660 -7616.6126 305.6500 -9431.4786 -7615.4665 299.8181 -564.1186 -433.6885 30482.7070 -176.5242 -105.5909
ENERGY: 1200000 0.2102 1.3620 0.0000 0.0000 -10788.7473 1455.0010 0.0000 0.0000 1789.8102 -7542.3639 301.4302 -9332.1741 -7600.5451 300.9577 208.5233 344.3233 30438.8878 -135.2142 -62.0071
ENERGY: 1500000 0.0383 1.1466 0.0000 0.0000 -11031.4112 1528.3279 0.0000 0.0000 1752.9166 -7748.9818 295.2168 -9501.8984 -7614.7050 299.9235 334.9679 411.1669 30294.4389 -87.5752 -18.3058
TCL: Running FEP window  14: Lambda1 0.34999999999999964 Lambda2 0.29999999999999966 [dLambda -0.04999999999999999]
TCL: Setting parameter firsttimestep to 0
TCL: Setting parameter alchLambda to 0.34999999999999964
Info: NONBONDED TABLE R-SQUARED SPACING: 0.0625
Info: NONBONDED TABLE SIZE: 705 POINTS
TCL: Setting parameter alchLambda2 to 0.29999999999999966
Info: NONBONDED TABLE R-SQUARED SPACING: 0.0625
Info: NONBONDED TABLE SIZE: 705 POINTS
TCL: Running for 1500000 steps
ETITLE: TS BOND ANGLE DIHED IMPRP ELECT VDW BOUNDARY MISC KINETIC TOTAL TEMP POTENTIAL TOTALAVG TEMPAVG PRESSURE GPRESSURE VOLUME PRESSAVG GPRESSAVG
ENERGY: 0 0.0383 1.1466 0.0000 0.0000 -11031.4121 1528.1401 0.0000 0.0000 1752.0504 -7750.0367 295.0709 -9502.0871 -7750.0367 295.0709 331.5972 407.9901 30294.4389 331.5972 407.9901
ENERGY: 300000 0.0688 1.0652 0.0000 0.0000 -10862.7835 1430.0304 0.0000 0.0000 1786.1690 -7645.4502 300.8170 -9431.6192 -7657.6636 297.4609 -461.9046 -392.8443 30793.4144 86.2647 143.5499
ENERGY: 600000 0.1959 1.8977 0.0000 0.0000 -10928.3545 1514.5835 0.0000 0.0000 1778.0377 -7633.6397 299.4475 -9411.6774 -7661.3137 297.8517 333.3315 435.4283 30694.2477 -31.2170 43.8140
ENERGY: 900000 0.0000 1.8306 0.0000 0.0000 -10867.4674 1477.7847 0.0000 0.0000 1764.8734 -7622.9787 297.2305 -9387.8521 -7655.1087 297.2677 9.1895 114.6641 30853.1395 -54.5981 31.1786
ENERGY: 1200000 0.0486 2.3335 0.0000 0.0000 -10940.1123 1484.8145 0.0000 0.0000 1827.9441 -7624.9717 307.8525 -9452.9157 -7656.7050 297.3722 252.2284 288.0043 30453.3761 61.0025 138.6557
ENERGY: 1500000 0.0471 2.2839 0.0000 0.0000 -10840.0683 1453.0412 0.0000 0.0000 1806.2914 -7578.4048 304.2059 -9384.6962 -7644.0040 298.6327 -160.4805 -117.3946 31154.8066 6.4266 76.4741
TCL: Running FEP window  15: Lambda1 0.29999999999999966 Lambda2 0.24999999999999967 [dLambda -0.04999999999999999]
TCL: Setting parameter firsttimestep to 0
TCL: Setting parameter alchLambda to 0.29999999999999966
Info: NONBONDED TABLE R-SQUARED SPACING: 0.0625
Info: NONBONDED TABLE SIZE: 705 POINTS
TCL: Setting parameter alchLambda2 to 0.24999999999999967
Info: NONBONDED TABLE R-SQUARED SPACING: 0.0625
Info: NONBONDED TABLE SIZE: 705 POINTS
TCL: Running for 1500000 steps
ETITLE: TS BOND ANGLE DIHED IMPRP ELECT VDW BOUNDARY MISC KINETIC TOTAL TEMP POTENTIAL TOTALAVG TEMPAVG PRESSURE GPRESSURE VOLUME PRESSAVG GPRESSAVG
ENERGY: 0 0.0471 2.2839 0.0000 0.0000 -10840.0683 1452.2301 0.0000 0.0000 1805.4222 -7580.0851 304.0595 -9385.5073 -7580.0851 304.0595 -206.3383 -124.8075 31154.8066 -206.3383 -124.8075
ENERGY: 300000 0.1036 2.2182 0.0000 0.0000 -10901.9284 1509.2126 0.0000 0.0000 1764.4251 -7625.9690 297.1550 -9390.3941 -7634.6150 298.1699 315.7524 356.8002 30867.1740 -111.6574 -50.3304
ENERGY: 600000 0.9155 3.3155 0.0000 0.0000 -10995.9189 1568.6369 0.0000 0.0000 1820.1143 -7602.9369 306.5339 -9423.0511 -7623.6644 298.5789 810.6260 858.7577 30571.2300 85.7393 144.7018
ENERGY: 900000 0.6180 3.3625 0.0000 0.0000 -10845.1493 1489.9192 0.0000 0.0000 1789.7682 -7561.4814 301.4231 -9351.2496 -7616.2596 298.9845 651.9883 681.6756 30317.3657 160.2515 214.6338
ENERGY: 1200000 1.2480 2.7581 0.0000 0.0000 -10868.8749 1427.0952 0.0000 0.0000 1767.7528 -7670.0207 297.7154 -9437.7736 -7621.8115 298.3913 -257.3273 -205.5128 30736.1280 169.6278 225.8003
ENERGY: 1500000 0.0000 2.1620 0.0000 0.0000 -10925.6471 1539.0423 0.0000 0.0000 1817.3953 -7567.0475 306.0759 -9384.4428 -7627.5400 298.1153 524.2716 559.1434 30815.7829 194.8065 247.1667
TCL: Running FEP window  16: Lambda1 0.24999999999999967 Lambda2 0.19999999999999968 [dLambda -0.04999999999999999]
TCL: Setting parameter firsttimestep to 0
TCL: Setting parameter alchLambda to 0.24999999999999967
Info: NONBONDED TABLE R-SQUARED SPACING: 0.0625
Info: NONBONDED TABLE SIZE: 705 POINTS
TCL: Setting parameter alchLambda2 to 0.19999999999999968
Info: NONBONDED TABLE R-SQUARED SPACING: 0.0625
Info: NONBONDED TABLE SIZE: 705 POINTS
TCL: Running for 1500000 steps
ETITLE: TS BOND ANGLE DIHED IMPRP ELECT VDW BOUNDARY MISC KINETIC TOTAL TEMP POTENTIAL TOTALAVG TEMPAVG PRESSURE GPRESSURE VOLUME PRESSAVG GPRESSAVG
ENERGY: 0 0.0000 2.1620 0.0000 0.0000 -10925.6456 1539.2632 0.0000 0.0000 1816.4989 -7567.7214 305.9250 -9384.2204 -7567.7214 305.9250 497.1909 559.1270 30815.7829 497.1909 559.1270
ENERGY: 300000 2.4048 1.2004 0.0000 0.0000 -10774.2357 1399.8122 0.0000 0.0000 1778.9757 -7591.8427 299.6055 -9370.8184 -7603.5111 299.3675 -311.2076 -175.1279 30708.1588 107.6961 180.6910
ENERGY: 600000 1.1516 3.8639 0.0000 0.0000 -11013.8151 1546.2383 0.0000 0.0000 1746.2865 -7716.2748 294.1002 -9462.5613 -7627.0694 300.8450 383.0896 449.1823 30577.2451 83.1878 149.5123
ENERGY: 900000 0.4558 3.0927 0.0000 0.0000 -10808.7139 1429.7904 0.0000 0.0000 1726.1035 -7649.2715 290.7011 -9375.3750 -7639.5985 299.9103 -523.7790 -451.9787 31354.6934 -19.0677 50.3036
ENERGY: 1200000 0.0234 1.7967 0.0000 0.0000 -10831.0582 1466.9303 0.0000 0.0000 1751.6385 -7610.6693 295.0015 -9362.3077 -7634.7371 299.3776 -57.7381 26.7793 30973.5257 -12.2187 62.0188
ENERGY: 1500000 0.0056 2.6878 0.0000 0.0000 -10807.6417 1462.2049 0.0000 0.0000 1694.0303 -7648.7132 285.2995 -9342.7434 -7631.1380 299.5881 -232.2758 -166.4345 31232.6457 33.1128 101.1493
TCL: Running FEP window  17: Lambda1 0.19999999999999968 Lambda2 0.1499999999999997 [dLambda -0.04999999999999999]
TCL: Setting parameter firsttimestep to 0
TCL: Setting parameter alchLambda to 0.19999999999999968
Info: NONBONDED TABLE R-SQUARED SPACING: 0.0625
Info: NONBONDED TABLE SIZE: 705 POINTS
TCL: Setting parameter alchLambda2 to 0.1499999999999997
Info: NONBONDED TABLE R-SQUARED SPACING: 0.0625
Info: NONBONDED TABLE SIZE: 705 POINTS
TCL: Running for 1500000 steps
ETITLE: TS BOND ANGLE DIHED IMPRP ELECT VDW BOUNDARY MISC KINETIC TOTAL TEMP POTENTIAL TOTALAVG TEMPAVG PRESSURE GPRESSURE VOLUME PRESSAVG GPRESSAVG
ENERGY: 0 0.0056 2.6878 0.0000 0.0000 -10807.6409 1461.8012 0.0000 0.0000 1693.1177 -7650.0287 285.1458 -9343.1464 -7650.0287 285.1458 -259.4776 -171.0337 31232.6457 -259.4776 -171.0337
ENERGY: 300000 0.1104 3.8026 0.0000 0.0000 -10937.5813 1554.9245 0.0000 0.0000 1831.9751 -7546.7687 308.5314 -9378.7439 -7587.3353 299.5819 856.3290 961.1568 30460.3136 -16.0951 109.7862
ENERGY: 600000 0.2276 0.7246 0.0000 0.0000 -10958.8084 1528.2109 0.0000 0.0000 1770.3663 -7659.2789 298.1556 -9429.6452 -7603.4149 300.7440 409.1286 466.3825 30691.9497 153.3113 238.1637
ENERGY: 900000 0.1537 1.6145 0.0000 0.0000 -10954.5744 1530.5593 0.0000 0.0000 1786.2176 -7636.0292 300.8252 -9422.2469 -7612.8929 300.6021 417.4859 535.5862 30478.4210 194.6464 275.2939
ENERGY: 1200000 0.0716 5.2266 0.0000 0.0000 -10939.3000 1484.0116 0.0000 0.0000 1800.6829 -7649.3073 303.2613 -9449.9902 -7614.8528 300.5019 49.1227 124.4626 30534.6453 195.9247 267.1413
ENERGY: 1500000 0.2418 1.3740 0.0000 0.0000 -10829.1998 1425.9867 0.0000 0.0000 1800.8981 -7600.6992 303.2976 -9401.5973 -7608.7198 300.4782 -326.9326 -213.0380 30811.7624 100.2086 174.1053
TCL: Running FEP window  18: Lambda1 0.1499999999999997 Lambda2 0.09999999999999969 [dLambda -0.05 ]
TCL: Setting parameter firsttimestep to 0
TCL: Setting parameter alchLambda to 0.1499999999999997
Info: NONBONDED TABLE R-SQUARED SPACING: 0.0625
Info: NONBONDED TABLE SIZE: 705 POINTS
TCL: Setting parameter alchLambda2 to 0.09999999999999969
Info: NONBONDED TABLE R-SQUARED SPACING: 0.0625
Info: NONBONDED TABLE SIZE: 705 POINTS
TCL: Running for 1500000 steps
ETITLE: TS BOND ANGLE DIHED IMPRP ELECT VDW BOUNDARY MISC KINETIC TOTAL TEMP POTENTIAL TOTALAVG TEMPAVG PRESSURE GPRESSURE VOLUME PRESSAVG GPRESSAVG
ENERGY: 0 0.2418 1.3740 0.0000 0.0000 -10829.2002 1426.2826 0.0000 0.0000 1799.9882 -7601.3136 303.1443 -9401.3018 -7601.3136 303.1443 -311.4598 -214.4697 30811.7624 -311.4598 -214.4697
ENERGY: 300000 2.2072 1.8958 0.0000 0.0000 -10864.2220 1381.6532 0.0000 0.0000 1736.5974 -7741.8684 292.4684 -9478.4658 -7615.7748 300.2300 -983.4400 -940.0615 30983.0120 -526.0492 -476.4661
ENERGY: 600000 0.1249 1.9456 0.0000 0.0000 -10737.4354 1440.7204 0.0000 0.0000 1786.2367 -7508.4079 300.8284 -9294.6446 -7599.1615 301.8810 321.8869 323.2025 30420.5361 -55.6817 -17.8507
ENERGY: 900000 0.0690 1.7667 0.0000 0.0000 -10911.5350 1492.1102 0.0000 0.0000 1772.2318 -7645.3572 298.4698 -9417.5891 -7605.5221 300.4963 -114.0530 36.6868 31071.8973 -7.3804 47.0101
ENERGY: 1200000 0.0091 2.0279 0.0000 0.0000 -10839.9302 1428.8915 0.0000 0.0000 1815.2263 -7593.7754 305.7107 -9409.0018 -7616.3763 300.3291 -475.7662 -444.6870 31103.4108 -52.1292 0.8809
ENERGY: 1500000 0.0572 2.1666 0.0000 0.0000 -10894.9950 1447.4920 0.0000 0.0000 1788.2081 -7657.0711 301.1604 -9445.2793 -7620.4508 300.8291 -102.9558 -51.1115 30297.6125 -88.2018 -34.1841
TCL: Running FEP window  19: Lambda1 0.09999999999999969 Lambda2 0.049999999999999684 [dLambda -0.05 ]
TCL: Setting parameter firsttimestep to 0
TCL: Setting parameter alchLambda to 0.09999999999999969
Info: NONBONDED TABLE R-SQUARED SPACING: 0.0625
Info: NONBONDED TABLE SIZE: 705 POINTS
TCL: Setting parameter alchLambda2 to 0.049999999999999684
Info: NONBONDED TABLE R-SQUARED SPACING: 0.0625
Info: NONBONDED TABLE SIZE: 705 POINTS
TCL: Running for 1500000 steps
ETITLE: TS BOND ANGLE DIHED IMPRP ELECT VDW BOUNDARY MISC KINETIC TOTAL TEMP POTENTIAL TOTALAVG TEMPAVG PRESSURE GPRESSURE VOLUME PRESSAVG GPRESSAVG
ENERGY: 0 0.0572 2.1666 0.0000 0.0000 -10894.9939 1446.6687 0.0000 0.0000 1787.3414 -7658.7601 301.0144 -9446.1015 -7658.7601 301.0144 -159.1557 -57.3073 30297.6125 -159.1557 -57.3073
ENERGY: 300000 0.1251 3.9213 0.0000 0.0000 -10777.2225 1397.5599 0.0000 0.0000 1802.4901 -7573.1261 303.5657 -9375.6162 -7607.4226 301.1925 -334.2126 -341.4210 30743.5758 -136.2940 -108.7822
ENERGY: 600000 0.0823 5.2983 0.0000 0.0000 -10984.8437 1500.8594 0.0000 0.0000 1799.3453 -7679.2583 303.0361 -9478.6037 -7594.3863 302.8954 381.5025 417.1248 30037.8715 -90.1710 -59.9017
ENERGY: 900000 0.1367 2.5066 0.0000 0.0000 -10820.2391 1371.8141 0.0000 0.0000 1764.6416 -7681.1400 297.1915 -9445.7817 -7614.7553 301.4225 -903.8047 -871.3225 30834.9758 -192.6694 -151.9946
ENERGY: 1200000 0.0040 1.7834 0.0000 0.0000 -10919.7554 1549.6715 0.0000 0.0000 1728.7648 -7639.5318 291.1493 -9368.2966 -7622.7579 300.1910 614.7813 663.2645 30643.3532 -38.9878 2.1193
ENERGY: 1500000 0.5081 1.2185 0.0000 0.0000 -10850.0372 1465.1526 0.0000 0.0000 1811.8478 -7571.3101 305.1417 -9383.1579 -7618.4313 301.0499 -30.7419 36.5171 30813.5891 6.5480 49.5003
TCL: Running FEP window  20: Lambda1 0.049999999999999684 Lambda2 0.0    [dLambda -0.049999999999999684]
TCL: Setting parameter firsttimestep to 0
TCL: Setting parameter alchLambda to 0.049999999999999684
Info: NONBONDED TABLE R-SQUARED SPACING: 0.0625
Info: NONBONDED TABLE SIZE: 705 POINTS
TCL: Setting parameter alchLambda2 to 0.0
Info: NONBONDED TABLE R-SQUARED SPACING: 0.0625
Info: NONBONDED TABLE SIZE: 705 POINTS
TCL: Running for 1500000 steps
ETITLE: TS BOND ANGLE DIHED IMPRP ELECT VDW BOUNDARY MISC KINETIC TOTAL TEMP POTENTIAL TOTALAVG TEMPAVG PRESSURE GPRESSURE VOLUME PRESSAVG GPRESSAVG
ENERGY: 0 0.5081 1.2185 0.0000 0.0000 -10850.0384 1465.3588 0.0000 0.0000 1811.0059 -7571.9471 304.9999 -9382.9530 -7571.9471 304.9999 -41.9262 38.2088 30813.5891 -41.9262 38.2088
ENERGY: 300000 0.1943 0.9593 0.0000 0.0000 -10783.3153 1405.9933 0.0000 0.0000 1841.4825 -7534.6860 310.1326 -9376.1685 -7571.8734 302.6587 -590.9256 -534.7096 31228.9165 -270.1676 -200.9209
ENERGY: 600000 0.6272 0.8906 0.0000 0.0000 -10782.2269 1440.1886 0.0000 0.0000 1745.6270 -7594.8935 293.9891 -9340.5204 -7572.1512 301.8647 45.9124 118.6639 30555.3241 -179.9649 -112.0562
ENERGY: 900000 0.3804 0.9205 0.0000 0.0000 -10843.8765 1448.6640 0.0000 0.0000 1756.0641 -7637.8476 295.7469 -9393.9116 -7578.9471 300.7829 48.6694 94.4406 30448.1781 -121.0803 -49.2492
ENERGY: 1200000 0.0622 2.0021 0.0000 0.0000 -10979.3492 1430.8496 0.0000 0.0000 1791.0927 -7755.3425 301.6462 -9546.4353 -7594.2791 300.9263 -825.1803 -684.8720 30789.2388 -239.1815 -158.7070
ENERGY: 1500000 0.0618 3.6927 0.0000 0.0000 -10869.6339 1479.5698 0.0000 0.0000 1781.8024 -7604.5071 300.0816 -9386.3096 -7595.2888 301.3704 214.6610 331.8542 30452.0657 -186.0314 -102.7394
TCL: Exiting due to exit command.
