Info: SIMULATION PARAMETERS:
Info: TIMESTEP               2
Info: NUMBER OF STEPS        0
Info: STEPS PER CYCLE        10
Info: PERIODIC CELL BASIS 1  34.207 0 0
Info: PERIODIC CELL BASIS 2  0 32.158 0
Info: PERIODIC CELL BASIS 3  0 0 39.527
Info: PERIODIC CELL CENTER   0 0 0
Info: WRAPPING WATERS AROUND PERIODIC BOUNDARIES ON OUTPUT.
Info: WRAPPING ALL CLUSTERS AROUND PERIODIC BOUNDARIES ON OUTPUT.
Info: FIRST LDB TIMESTEP     50
Info: LAST LDB TIMESTEP     -1
Info: HOM BACKGROUND SCALING 1
Info: PME BACKGROUND SCALING 1
Info: MIN ATOMS PER PATCH    40
Info: EMPTY PATCH LOAD       40 ATOMS
Info: INITIAL TEMPERATURE    300
Info: CENTER OF MASS MOVING INITIALLY? NO
Info: DIELECTRIC             1
Info: EXCLUDE                SCALED ONE-FOUR
Info: 1-4 ELECTROSTATICS SCALED BY 0.833333
Info: MODIFIED 1-4 VDW PARAMETERS WILL BE USED
Info: DCD FILENAME           mobley_1592519_equil.dcd
Info: DCD FREQUENCY          100000
Info: DCD FIRST STEP         100000
Info: DCD FILE WILL CONTAIN UNIT CELL DATA
Info: XST FILENAME           mobley_1592519_equil.xst
Info: XST FREQUENCY          100000
Info: NO VELOCITY DCD OUTPUT
Info: NO FORCE DCD OUTPUT
Info: OUTPUT FILENAME        mobley_1592519_equil
Info: BINARY OUTPUT FILES WILL BE USED
Info: RESTART FILENAME       mobley_1592519_equil.restart
Info: RESTART FREQUENCY      100000
Info: BINARY RESTART FILES WILL BE USED
Info: CUTOFF                 9
Info: PAIRLIST DISTANCE      11
Info: PAIRLIST SHRINK RATE   0.01
Info: PAIRLIST GROW RATE     0.01
Info: PAIRLIST TRIGGER       0.3
Info: PAIRLISTS PER CYCLE    2
Info: PAIRLISTS ENABLED
Info: MARGIN                 8
Info: HYDROGEN GROUP CUTOFF  2.5
Info: PATCH DIMENSION        21.5
Info: ENERGY OUTPUT STEPS    100000
Info: ENERGY EVALUATION STEPS    100000
Info: OUTPUT ENERGY PRECISION 4
Info: CROSSTERM ENERGY INCLUDED IN DIHEDRAL
Info: TIMING OUTPUT STEPS    1000000
Info: PRESSURE OUTPUT STEPS  100000
Info: LANGEVIN DYNAMICS ACTIVE
Info: LANGEVIN TEMPERATURE   30
Info: LANGEVIN USING BBK INTEGRATOR
Info: LANGEVIN DAMPING COEFFICIENT IS 1 INVERSE PS
Info: LANGEVIN DYNAMICS APPLIED TO HYDROGENS
Info: LANGEVIN PISTON PRESSURE CONTROL ACTIVE
Info:        TARGET PRESSURE IS 1.01325 BAR
Info:     OSCILLATION PERIOD IS 50 FS
Info:             DECAY TIME IS 25 FS
Info:     PISTON TEMPERATURE IS 300 K
Info:       PRESSURE CONTROL IS GROUP-BASED
Info:    INITIAL STRAIN RATE IS 0 0 0
Info:       CELL FLUCTUATION IS ISOTROPIC
Info: PARTICLE MESH EWALD (PME) ACTIVE
Info: PME TOLERANCE               1e-06
Info: PME EWALD COEFFICIENT       0.348832
Info: PME INTERPOLATION ORDER     4
Info: PME GRID DIMENSIONS         36 36 40
Info: PME MAXIMUM GRID SPACING    1
Info: FULL ELECTROSTATIC EVALUATION FREQUENCY      2
Info: USING VERLET I (r-RESPA) MTS SCHEME.
Info: C1 SPLITTING OF LONG RANGE ELECTROSTATICS
Info: PLACING ATOMS IN PATCHES BY HYDROGEN GROUPS
Info: RIGID BONDS TO HYDROGEN : ALL
Info:         ERROR TOLERANCE : 1e-08
Info:          MAX ITERATIONS : 100
Info: RIGID WATER USING SETTLE ALGORITHM
Info: RANDOM NUMBER SEED     1743259491
Info: USE HYDROGEN BONDS?    NO
Info: Using AMBER format force field!
Info: AMBER PARM FILE        mobley_1592519.prmtop
Info: COORDINATE PDB         mobley_1592519.pdb
Info: Exclusions will be read from PARM file!
Info: SCNB (VDW SCALING)     2
Info: USING ARITHMETIC MEAN TO COMBINE L-J SIGMA PARAMETERS
Info: BINARY COORDINATES     mobley_1592519_min.coor
Info: SUMMARY OF PARAMETERS:
Info: 9 BONDS
Info: 13 ANGLES
Info:   13 HARMONIC
Info:   0 COSINE-BASED
Info: 20 DIHEDRAL
Info: 0 IMPROPER
Info: 0 CROSSTERM
Info: 0 VDW
Info: 36 VDW_PAIRS
Info: 0 NBTHOLE_PAIRS
Info: STRUCTURE SUMMARY:
Info: 2927 ATOMS
Info: 2926 BONDS
Info: 46 ANGLES
Info: 72 DIHEDRALS
Info: 0 IMPROPERS
Info: 0 CROSSTERMS
Info: 3028 EXCLUSIONS
Info: 2917 RIGID BONDS
Info: 5864 DEGREES OF FREEDOM
Info: 977 HYDROGEN GROUPS
Info: 4 ATOMS IN LARGEST HYDROGEN GROUP
Info: 977 MIGRATION GROUPS
Info: 4 ATOMS IN LARGEST MIGRATION GROUP
Info: TOTAL MASS = 17565.7 amu
Info: TOTAL CHARGE = -0.000200029 e
Info: MASS DENSITY = 0.670851 g/cm^3
Info: ATOM DENSITY = 0.067317 atoms/A^3
Info: ADDED 0 IMPLICIT EXCLUSIONS
Info: NONBONDED TABLE R-SQUARED SPACING: 0.0625
Info: NONBONDED TABLE SIZE: 705 POINTS
Info: REMOVING COM VELOCITY 0.011665 -0.152695 -0.0169195
TCL: Running for 100000 steps
ETITLE: TS BOND ANGLE DIHED IMPRP ELECT VDW BOUNDARY MISC KINETIC TOTAL TEMP POTENTIAL TOTAL3 TEMPAVG PRESSURE GPRESSURE VOLUME PRESSAVG GPRESSAVG
ENERGY: 0 0.0741 0.5134 4.2295 0.0000 -13511.2472 2381.7013 0.0000 0.0000 1754.3362 -9370.3927 301.0990 -11124.7289 -9370.0458 301.0990 567.4649 603.4690 43480.8347 567.4649 603.4690
ENERGY: 100000 0.5098 1.6768 4.6460 0.0000 -14001.2438 2347.0207 0.0000 0.0000 176.1561 -11471.2345 30.2339 -11647.3905 -11470.5553 30.9591 -666.5483 -629.3521 28099.2195 6.5685 6.6359
TCL: Running 100000 steps at 60 kelvin.
TCL: Setting parameter langevinTemp to 60
TCL: Running for 100000 steps
ETITLE: TS BOND ANGLE DIHED IMPRP ELECT VDW BOUNDARY MISC KINETIC TOTAL TEMP POTENTIAL TOTAL3 TEMPAVG PRESSURE GPRESSURE VOLUME PRESSAVG GPRESSAVG
ENERGY: 100000 0.5098 1.6768 4.6460 0.0000 -14001.2438 2347.0207 0.0000 0.0000 176.0729 -11471.3177 30.2196 -11647.3905 -11470.8255 30.2196 -675.0354 -629.3202 28099.2195 -675.0354 -629.3202
ENERGY: 200000 0.2873 3.5000 4.7612 0.0000 -14023.6395 2452.8150 0.0000 0.0000 350.3678 -11211.9082 60.1341 -11562.2760 -11211.6302 59.9682 464.7894 514.8625 28247.6138 4.4552 4.4819
TCL: Running 100000 steps at 90 kelvin.
TCL: Setting parameter langevinTemp to 90
TCL: Running for 100000 steps
ETITLE: TS BOND ANGLE DIHED IMPRP ELECT VDW BOUNDARY MISC KINETIC TOTAL TEMP POTENTIAL TOTAL3 TEMPAVG PRESSURE GPRESSURE VOLUME PRESSAVG GPRESSAVG
ENERGY: 200000 0.2873 3.5000 4.7612 0.0000 -14023.6395 2452.8150 0.0000 0.0000 350.1942 -11212.0818 60.1043 -11562.2760 -11211.3137 60.1043 467.6658 514.3573 28247.6138 467.6658 514.3573
ENERGY: 300000 0.7978 4.9900 4.9496 0.0000 -13651.0445 2188.4834 0.0000 0.0000 541.9428 -10909.8810 93.0143 -11451.8237 -10908.5748 89.9695 -1151.6664 -1116.3666 28345.1830 3.7590 3.6723
TCL: Running 100000 steps at 120 kelvin.
TCL: Setting parameter langevinTemp to 120
TCL: Running for 100000 steps
ETITLE: TS BOND ANGLE DIHED IMPRP ELECT VDW BOUNDARY MISC KINETIC TOTAL TEMP POTENTIAL TOTAL3 TEMPAVG PRESSURE GPRESSURE VOLUME PRESSAVG GPRESSAVG
ENERGY: 300000 0.7978 4.9900 4.9496 0.0000 -13651.0445 2188.4834 0.0000 0.0000 541.6840 -10910.1397 92.9699 -11451.8237 -10908.7528 92.9699 -1170.5957 -1116.5838 28345.1830 -1170.5957 -1116.5838
ENERGY: 400000 2.4955 3.8765 4.9944 0.0000 -13558.1174 2198.2120 0.0000 0.0000 708.5859 -10639.9531 121.6155 -11348.5390 -10637.3831 120.0379 -890.0151 -840.7830 28397.5089 4.0086 3.9018
TCL: Running 100000 steps at 150 kelvin.
TCL: Setting parameter langevinTemp to 150
TCL: Running for 100000 steps
ETITLE: TS BOND ANGLE DIHED IMPRP ELECT VDW BOUNDARY MISC KINETIC TOTAL TEMP POTENTIAL TOTAL3 TEMPAVG PRESSURE GPRESSURE VOLUME PRESSAVG GPRESSAVG
ENERGY: 400000 2.4955 3.8765 4.9944 0.0000 -13558.1174 2198.2120 0.0000 0.0000 708.2484 -10640.2906 121.5576 -11348.5390 -10638.6062 121.5576 -900.9431 -840.4570 28397.5089 -900.9431 -840.4570
ENERGY: 500000 0.6672 4.0116 4.4087 0.0000 -13471.8626 2317.3454 0.0000 0.0000 838.3532 -10307.0765 143.8876 -11145.4297 -10305.8571 150.3421 898.4342 961.3872 28448.2962 3.9395 3.9600
TCL: Running 100000 steps at 180 kelvin.
TCL: Setting parameter langevinTemp to 180
TCL: Running for 100000 steps
ETITLE: TS BOND ANGLE DIHED IMPRP ELECT VDW BOUNDARY MISC KINETIC TOTAL TEMP POTENTIAL TOTAL3 TEMPAVG PRESSURE GPRESSURE VOLUME PRESSAVG GPRESSAVG
ENERGY: 500000 0.6672 4.0116 4.4087 0.0000 -13471.8626 2317.3454 0.0000 0.0000 837.9406 -10307.4891 143.8168 -11145.4297 -10306.2683 143.8168 908.6456 961.4575 28448.2962 908.6456 961.4575
ENERGY: 600000 1.2831 6.4782 4.6729 0.0000 -12808.5830 1988.9111 0.0000 0.0000 1065.0303 -9742.2074 182.7925 -10807.2378 -9740.8845 180.0487 -720.6758 -635.3616 28628.6305 2.9605 2.8117
TCL: Running 100000 steps at 210 kelvin.
TCL: Setting parameter langevinTemp to 210
TCL: Running for 100000 steps
ETITLE: TS BOND ANGLE DIHED IMPRP ELECT VDW BOUNDARY MISC KINETIC TOTAL TEMP POTENTIAL TOTAL3 TEMPAVG PRESSURE GPRESSURE VOLUME PRESSAVG GPRESSAVG
ENERGY: 600000 1.2831 6.4782 4.6729 0.0000 -12808.5830 1988.9111 0.0000 0.0000 1064.5065 -9742.7313 182.7026 -10807.2378 -9740.4974 182.7026 -718.8706 -636.3191 28628.6305 -718.8706 -636.3191
ENERGY: 700000 1.4207 12.1603 5.6374 0.0000 -12338.7195 1935.2685 0.0000 0.0000 1201.6088 -9182.6237 206.2337 -10384.2326 -9179.7546 209.8519 526.6991 661.0927 28468.6822 3.8102 3.8501
TCL: Running 100000 steps at 240 kelvin.
TCL: Setting parameter langevinTemp to 240
TCL: Running for 100000 steps
ETITLE: TS BOND ANGLE DIHED IMPRP ELECT VDW BOUNDARY MISC KINETIC TOTAL TEMP POTENTIAL TOTAL3 TEMPAVG PRESSURE GPRESSURE VOLUME PRESSAVG GPRESSAVG
ENERGY: 700000 1.4207 12.1603 5.6374 0.0000 -12338.7195 1935.2685 0.0000 0.0000 1200.9888 -9183.2438 206.1272 -10384.2326 -9181.1747 206.1272 592.0689 660.4571 28468.6822 592.0689 660.4571
ENERGY: 800000 2.0224 10.1149 6.5193 0.0000 -11513.9632 1602.0994 0.0000 0.0000 1407.1179 -8486.0894 241.5054 -9893.2073 -8481.0680 240.0738 -958.2009 -873.8858 29449.3331 3.2825 3.1170
TCL: Running 100000 steps at 270 kelvin.
TCL: Setting parameter langevinTemp to 270
TCL: Running for 100000 steps
ETITLE: TS BOND ANGLE DIHED IMPRP ELECT VDW BOUNDARY MISC KINETIC TOTAL TEMP POTENTIAL TOTAL3 TEMPAVG PRESSURE GPRESSURE VOLUME PRESSAVG GPRESSAVG
ENERGY: 800000 2.0224 10.1149 6.5193 0.0000 -11513.9632 1602.0994 0.0000 0.0000 1406.4183 -8486.7889 241.3854 -9893.2073 -8483.6541 241.3854 -934.8914 -873.1838 29449.3331 -934.8914 -873.1838
ENERGY: 900000 0.6599 9.3385 4.8719 0.0000 -11263.4814 1656.7521 0.0000 0.0000 1574.7046 -8017.1544 270.2686 -9591.8589 -8012.0353 269.7705 720.9174 834.1227 29371.9847 3.6795 3.4469
TCL: Running 1000000 steps at 300 kelvin.
TCL: Setting parameter langevinTemp to 300
TCL: Running for 1000000 steps
ETITLE: TS BOND ANGLE DIHED IMPRP ELECT VDW BOUNDARY MISC KINETIC TOTAL TEMP POTENTIAL TOTAL3 TEMPAVG PRESSURE GPRESSURE VOLUME PRESSAVG GPRESSAVG
ENERGY: 900000 0.6599 9.3385 4.8719 0.0000 -11263.4814 1656.7521 0.0000 0.0000 1573.9193 -8017.9396 270.1338 -9591.8589 -8015.3216 270.1338 749.5737 835.9467 29371.9847 749.5737 835.9467
ENERGY: 1100000 4.6929 10.1629 5.7298 0.0000 -10677.2522 1486.2691 0.0000 0.0000 1695.4402 -7474.9573 290.9906 -9170.3975 -7469.5563 300.3107 358.5683 400.9732 30368.4594 3.2262 3.2949
ENERGY: 1300000 2.5995 12.8429 6.6968 0.0000 -10650.6894 1448.9854 0.0000 0.0000 1765.6892 -7413.8756 303.0475 -9179.5648 -7410.8351 300.1902 190.1490 244.4780 30242.6416 3.0226 2.8779
ENERGY: 1500000 0.7136 13.5169 6.1199 0.0000 -10546.6015 1357.2184 0.0000 0.0000 1726.4386 -7442.5940 296.3109 -9169.0327 -7437.3629 299.9882 -336.0605 -290.0340 29786.7792 3.7100 3.4557
ENERGY: 1700000 2.8450 15.7709 6.1047 0.0000 -10662.8606 1488.4657 0.0000 0.0000 1804.0690 -7345.6054 309.6347 -9149.6743 -7341.5634 300.4487 761.0467 798.4496 29944.2435 4.0776 3.9494
ENERGY: 1900000 2.0717 15.8375 7.0526 0.0000 -10613.8822 1427.9143 0.0000 0.0000 1742.8465 -7418.1596 299.1270 -9161.0061 -7416.2156 300.1403 -67.3189 11.5821 30191.2234 2.3589 2.3684
TCL: Exiting due to exit command.
