Info: SIMULATION PARAMETERS:
Info: TIMESTEP               2
Info: NUMBER OF STEPS        0
Info: STEPS PER CYCLE        10
Info: PERIODIC CELL BASIS 1  37.38 0 0
Info: PERIODIC CELL BASIS 2  0 34.1 0
Info: PERIODIC CELL BASIS 3  0 0 34.68
Info: PERIODIC CELL CENTER   0 0 0
Info: WRAPPING WATERS AROUND PERIODIC BOUNDARIES ON OUTPUT.
Info: WRAPPING ALL CLUSTERS AROUND PERIODIC BOUNDARIES ON OUTPUT.
Info: FIRST LDB TIMESTEP     50
Info: LAST LDB TIMESTEP     -1
Info: HOM BACKGROUND SCALING 1
Info: PME BACKGROUND SCALING 1
Info: MIN ATOMS PER PATCH    40
Info: EMPTY PATCH LOAD       40 ATOMS
Info: INITIAL TEMPERATURE    300
Info: CENTER OF MASS MOVING INITIALLY? NO
Info: DIELECTRIC             1
Info: EXCLUDE                SCALED ONE-FOUR
Info: 1-4 ELECTROSTATICS SCALED BY 0.833333
Info: MODIFIED 1-4 VDW PARAMETERS WILL BE USED
Info: DCD FILENAME           mobley_5003962_equil.dcd
Info: DCD FREQUENCY          100000
Info: DCD FIRST STEP         100000
Info: DCD FILE WILL CONTAIN UNIT CELL DATA
Info: XST FILENAME           mobley_5003962_equil.xst
Info: XST FREQUENCY          100000
Info: NO VELOCITY DCD OUTPUT
Info: NO FORCE DCD OUTPUT
Info: OUTPUT FILENAME        mobley_5003962_equil
Info: BINARY OUTPUT FILES WILL BE USED
Info: RESTART FILENAME       mobley_5003962_equil.restart
Info: RESTART FREQUENCY      100000
Info: BINARY RESTART FILES WILL BE USED
Info: CUTOFF                 9
Info: PAIRLIST DISTANCE      11
Info: PAIRLIST SHRINK RATE   0.01
Info: PAIRLIST GROW RATE     0.01
Info: PAIRLIST TRIGGER       0.3
Info: PAIRLISTS PER CYCLE    2
Info: PAIRLISTS ENABLED
Info: MARGIN                 8
Info: HYDROGEN GROUP CUTOFF  2.5
Info: PATCH DIMENSION        21.5
Info: ENERGY OUTPUT STEPS    100000
Info: ENERGY EVALUATION STEPS    100000
Info: OUTPUT ENERGY PRECISION 4
Info: CROSSTERM ENERGY INCLUDED IN DIHEDRAL
Info: TIMING OUTPUT STEPS    1000000
Info: PRESSURE OUTPUT STEPS  100000
Info: LANGEVIN DYNAMICS ACTIVE
Info: LANGEVIN TEMPERATURE   30
Info: LANGEVIN USING BBK INTEGRATOR
Info: LANGEVIN DAMPING COEFFICIENT IS 1 INVERSE PS
Info: LANGEVIN DYNAMICS APPLIED TO HYDROGENS
Info: LANGEVIN PISTON PRESSURE CONTROL ACTIVE
Info:        TARGET PRESSURE IS 1.01325 BAR
Info:     OSCILLATION PERIOD IS 50 FS
Info:             DECAY TIME IS 25 FS
Info:     PISTON TEMPERATURE IS 300 K
Info:       PRESSURE CONTROL IS GROUP-BASED
Info:    INITIAL STRAIN RATE IS 0 0 0
Info:       CELL FLUCTUATION IS ISOTROPIC
Info: PARTICLE MESH EWALD (PME) ACTIVE
Info: PME TOLERANCE               1e-06
Info: PME EWALD COEFFICIENT       0.348832
Info: PME INTERPOLATION ORDER     4
Info: PME GRID DIMENSIONS         40 36 36
Info: PME MAXIMUM GRID SPACING    1
Info: FULL ELECTROSTATIC EVALUATION FREQUENCY      2
Info: USING VERLET I (r-RESPA) MTS SCHEME.
Info: C1 SPLITTING OF LONG RANGE ELECTROSTATICS
Info: PLACING ATOMS IN PATCHES BY HYDROGEN GROUPS
Info: RIGID BONDS TO HYDROGEN : ALL
Info:         ERROR TOLERANCE : 1e-08
Info:          MAX ITERATIONS : 100
Info: RIGID WATER USING SETTLE ALGORITHM
Info: RANDOM NUMBER SEED     1743222556
Info: USE HYDROGEN BONDS?    NO
Info: Using AMBER format force field!
Info: AMBER PARM FILE        mobley_5003962.prmtop
Info: COORDINATE PDB         mobley_5003962.pdb
Info: Exclusions will be read from PARM file!
Info: SCNB (VDW SCALING)     2
Info: USING ARITHMETIC MEAN TO COMBINE L-J SIGMA PARAMETERS
Info: BINARY COORDINATES     mobley_5003962_min.coor
Info: SUMMARY OF PARAMETERS:
Info: 8 BONDS
Info: 8 ANGLES
Info: 5 DIHEDRAL
Info: 0 IMPROPER
Info: 0 CROSSTERM
Info: 0 VDW
Info: 28 VDW_PAIRS
Info: 0 NBTHOLE_PAIRS
Info: STRUCTURE SUMMARY:
Info: 2930 ATOMS
Info: 2932 BONDS
Info: 45 ANGLES
Info: 83 DIHEDRALS
Info: 0 IMPROPERS
Info: 0 CROSSTERMS
Info: 3036 EXCLUSIONS
Info: 2913 RIGID BONDS
Info: 5877 DEGREES OF FREEDOM
Info: 985 HYDROGEN GROUPS
Info: 3 ATOMS IN LARGEST HYDROGEN GROUP
Info: 985 MIGRATION GROUPS
Info: 3 ATOMS IN LARGEST MIGRATION GROUP
Info: TOTAL MASS = 17662.7 amu
Info: TOTAL CHARGE = 0.000100043 e
Info: MASS DENSITY = 0.663504 g/cm^3
Info: ATOM DENSITY = 0.0662819 atoms/A^3
Info: ADDED 0 IMPLICIT EXCLUSIONS
Info: NONBONDED TABLE R-SQUARED SPACING: 0.0625
Info: NONBONDED TABLE SIZE: 705 POINTS
Info: REMOVING COM VELOCITY 0.232466 0.145017 0.0960768
TCL: Running for 100000 steps
ETITLE: TS BOND ANGLE DIHED IMPRP ELECT VDW BOUNDARY MISC KINETIC TOTAL TEMP POTENTIAL TOTAL3 TEMPAVG PRESSURE GPRESSURE VOLUME PRESSAVG GPRESSAVG
ENERGY: 0 0.9836 0.9296 0.9426 0.0000 -13421.0271 2354.5553 0.0000 0.0000 1777.6043 -9286.0117 304.4176 -11063.6161 -9285.6515 304.4176 316.5969 350.3151 44205.1394 316.5969 350.3151
ENERGY: 100000 1.1456 1.6668 1.7881 0.0000 -14002.0672 2415.4710 0.0000 0.0000 180.9822 -11401.0135 30.9935 -11581.9957 -11400.6046 30.9822 -142.4590 -109.9681 29054.8455 4.0988 4.1080
TCL: Running 100000 steps at 60 kelvin.
TCL: Setting parameter langevinTemp to 60
TCL: Running for 100000 steps
ETITLE: TS BOND ANGLE DIHED IMPRP ELECT VDW BOUNDARY MISC KINETIC TOTAL TEMP POTENTIAL TOTAL3 TEMPAVG PRESSURE GPRESSURE VOLUME PRESSAVG GPRESSAVG
ENERGY: 100000 1.1456 1.6668 1.7881 0.0000 -14002.0672 2415.4710 0.0000 0.0000 180.8942 -11401.1016 30.9784 -11581.9957 -11400.6889 30.9784 -157.1365 -110.1442 29054.8455 -157.1365 -110.1442
ENERGY: 200000 2.6115 2.0749 2.6121 0.0000 -13889.2664 2331.2046 0.0000 0.0000 346.4006 -11204.3628 59.3217 -11550.7633 -11203.4164 59.9761 -636.6477 -591.3785 28431.4437 1.7888 1.7317
TCL: Running 100000 steps at 90 kelvin.
TCL: Setting parameter langevinTemp to 90
TCL: Running for 100000 steps
ETITLE: TS BOND ANGLE DIHED IMPRP ELECT VDW BOUNDARY MISC KINETIC TOTAL TEMP POTENTIAL TOTAL3 TEMPAVG PRESSURE GPRESSURE VOLUME PRESSAVG GPRESSAVG
ENERGY: 200000 2.6115 2.0749 2.6121 0.0000 -13889.2664 2331.2046 0.0000 0.0000 346.2233 -11204.5400 59.2913 -11550.7633 -11203.9591 59.2913 -644.0594 -591.0059 28431.4437 -644.0594 -591.0059
ENERGY: 300000 3.1119 3.3636 3.8172 0.0000 -13852.5067 2397.0763 0.0000 0.0000 528.9482 -10916.1895 90.5832 -11445.1377 -10915.1098 89.8685 403.7076 463.2074 28171.2231 4.7340 4.6448
TCL: Running 100000 steps at 120 kelvin.
TCL: Setting parameter langevinTemp to 120
TCL: Running for 100000 steps
ETITLE: TS BOND ANGLE DIHED IMPRP ELECT VDW BOUNDARY MISC KINETIC TOTAL TEMP POTENTIAL TOTAL3 TEMPAVG PRESSURE GPRESSURE VOLUME PRESSAVG GPRESSAVG
ENERGY: 300000 3.1119 3.3636 3.8172 0.0000 -13852.5067 2397.0763 0.0000 0.0000 528.6876 -10916.4500 90.5386 -11445.1377 -10915.3200 90.5386 414.8940 463.3998 28171.2231 414.8940 463.3998
ENERGY: 400000 3.6082 2.9601 4.6662 0.0000 -13656.0266 2298.1879 0.0000 0.0000 690.4333 -10656.1710 118.2378 -11346.6042 -10653.9200 119.7762 92.5772 183.1978 28114.4554 3.2054 3.3096
TCL: Running 100000 steps at 150 kelvin.
TCL: Setting parameter langevinTemp to 150
TCL: Running for 100000 steps
ETITLE: TS BOND ANGLE DIHED IMPRP ELECT VDW BOUNDARY MISC KINETIC TOTAL TEMP POTENTIAL TOTAL3 TEMPAVG PRESSURE GPRESSURE VOLUME PRESSAVG GPRESSAVG
ENERGY: 400000 3.6082 2.9601 4.6662 0.0000 -13656.0266 2298.1879 0.0000 0.0000 690.0844 -10656.5198 118.1781 -11346.6042 -10654.8279 118.1781 121.5345 183.3136 28114.4554 121.5345 183.3136
ENERGY: 500000 4.2876 3.7004 4.3543 0.0000 -13562.7721 2385.7105 0.0000 0.0000 907.0095 -10257.7097 155.3269 -11164.7192 -10255.5600 149.5209 1037.8149 1106.4638 28903.5724 3.1713 3.2397
TCL: Running 100000 steps at 180 kelvin.
TCL: Setting parameter langevinTemp to 180
TCL: Running for 100000 steps
ETITLE: TS BOND ANGLE DIHED IMPRP ELECT VDW BOUNDARY MISC KINETIC TOTAL TEMP POTENTIAL TOTAL3 TEMPAVG PRESSURE GPRESSURE VOLUME PRESSAVG GPRESSAVG
ENERGY: 500000 4.2876 3.7004 4.3543 0.0000 -13562.7721 2385.7105 0.0000 0.0000 906.5732 -10258.1460 155.2521 -11164.7192 -10256.6916 155.2521 1051.3230 1106.8301 28903.5724 1051.3230 1106.8301
ENERGY: 600000 2.5070 4.6984 3.9901 0.0000 -12841.9498 2029.9992 0.0000 0.0000 1050.1630 -9750.5920 179.8421 -10800.7551 -9747.9211 179.5321 -537.3428 -442.9049 28927.3653 4.4513 4.4670
TCL: Running 100000 steps at 210 kelvin.
TCL: Setting parameter langevinTemp to 210
TCL: Running for 100000 steps
ETITLE: TS BOND ANGLE DIHED IMPRP ELECT VDW BOUNDARY MISC KINETIC TOTAL TEMP POTENTIAL TOTAL3 TEMPAVG PRESSURE GPRESSURE VOLUME PRESSAVG GPRESSAVG
ENERGY: 600000 2.5070 4.6984 3.9901 0.0000 -12841.9498 2029.9992 0.0000 0.0000 1049.6428 -9751.1123 179.7530 -10800.7551 -9749.1060 179.7530 -509.4943 -441.8038 28927.3653 -509.4943 -441.8038
ENERGY: 700000 3.2969 3.6242 5.5718 0.0000 -12186.0960 1836.4730 0.0000 0.0000 1241.6982 -9095.4318 212.6428 -10337.1300 -9091.8065 209.9967 113.7209 185.5880 28338.8180 2.3780 2.4390
TCL: Running 100000 steps at 240 kelvin.
TCL: Setting parameter langevinTemp to 240
TCL: Running for 100000 steps
ETITLE: TS BOND ANGLE DIHED IMPRP ELECT VDW BOUNDARY MISC KINETIC TOTAL TEMP POTENTIAL TOTAL3 TEMPAVG PRESSURE GPRESSURE VOLUME PRESSAVG GPRESSAVG
ENERGY: 700000 3.2969 3.6242 5.5718 0.0000 -12186.0960 1836.4730 0.0000 0.0000 1241.0610 -9096.0690 212.5337 -10337.1300 -9093.3030 212.5337 103.2470 184.8699 28338.8180 103.2470 184.8699
ENERGY: 800000 5.6473 3.7574 9.3381 0.0000 -11604.9289 1617.6069 0.0000 0.0000 1398.8538 -8569.7255 239.5560 -9968.5792 -8565.6622 240.0359 -603.9719 -490.1650 28719.7143 3.7657 3.7192
TCL: Running 100000 steps at 270 kelvin.
TCL: Setting parameter langevinTemp to 270
TCL: Running for 100000 steps
ETITLE: TS BOND ANGLE DIHED IMPRP ELECT VDW BOUNDARY MISC KINETIC TOTAL TEMP POTENTIAL TOTAL3 TEMPAVG PRESSURE GPRESSURE VOLUME PRESSAVG GPRESSAVG
ENERGY: 800000 5.6473 3.7574 9.3381 0.0000 -11604.9289 1617.6069 0.0000 0.0000 1398.1559 -8570.4233 239.4365 -9968.5792 -8567.6635 239.4365 -575.9984 -489.7801 28719.7143 -575.9984 -489.7801
ENERGY: 900000 4.8136 7.5772 7.1110 0.0000 -11125.1178 1567.0372 0.0000 0.0000 1608.6772 -7929.9016 275.4886 -9538.5788 -7925.2226 269.4647 178.7301 217.8837 29665.1836 3.0814 3.0143
TCL: Running 1000000 steps at 300 kelvin.
TCL: Setting parameter langevinTemp to 300
TCL: Running for 1000000 steps
ETITLE: TS BOND ANGLE DIHED IMPRP ELECT VDW BOUNDARY MISC KINETIC TOTAL TEMP POTENTIAL TOTAL3 TEMPAVG PRESSURE GPRESSURE VOLUME PRESSAVG GPRESSAVG
ENERGY: 900000 4.8136 7.5772 7.1110 0.0000 -11125.1178 1567.0372 0.0000 0.0000 1607.9046 -7930.6741 275.3563 -9538.5788 -7927.6366 275.3563 129.5468 219.4941 29665.1836 129.5468 219.4941
ENERGY: 1100000 6.9636 10.0875 7.6744 0.0000 -10543.0550 1406.3377 0.0000 0.0000 1775.3504 -7336.6416 304.0316 -9111.9920 -7332.9693 300.0274 -341.0781 -217.0037 30150.6889 3.6671 3.7385
ENERGY: 1300000 7.6274 7.0108 10.1336 0.0000 -10553.1352 1379.8297 0.0000 0.0000 1725.5699 -7422.9637 295.5066 -9148.5336 -7420.4702 299.2122 -338.5033 -205.9675 29962.1995 2.7287 2.5269
ENERGY: 1500000 4.6969 5.0262 7.1903 0.0000 -10640.7897 1440.8589 0.0000 0.0000 1718.2169 -7464.8005 294.2474 -9183.0174 -7461.9235 300.6706 -134.0417 -7.1607 30430.3067 2.7212 2.9609
ENERGY: 1700000 6.1490 3.5837 6.8391 0.0000 -10529.2403 1363.8598 0.0000 0.0000 1788.4605 -7360.3483 306.2768 -9148.8087 -7356.6561 299.1092 -751.1727 -640.3545 30587.9089 3.6650 3.6915
ENERGY: 1900000 7.8931 8.1861 7.6709 0.0000 -10486.8202 1435.1938 0.0000 0.0000 1751.4284 -7276.4480 299.9350 -9027.8764 -7271.9397 299.8575 627.1657 604.8790 30342.0975 4.1922 4.2284
TCL: Exiting due to exit command.
