Info: SIMULATION PARAMETERS:
Info: TIMESTEP               2
Info: NUMBER OF STEPS        0
Info: STEPS PER CYCLE        10
Info: PERIODIC CELL BASIS 1  36.005 0 0
Info: PERIODIC CELL BASIS 2  0 35.411 0
Info: PERIODIC CELL BASIS 3  0 0 34.68
Info: PERIODIC CELL CENTER   0 0 0
Info: WRAPPING WATERS AROUND PERIODIC BOUNDARIES ON OUTPUT.
Info: WRAPPING ALL CLUSTERS AROUND PERIODIC BOUNDARIES ON OUTPUT.
Info: FIRST LDB TIMESTEP     50
Info: LAST LDB TIMESTEP     -1
Info: HOM BACKGROUND SCALING 1
Info: PME BACKGROUND SCALING 1
Info: MIN ATOMS PER PATCH    40
Info: EMPTY PATCH LOAD       40 ATOMS
Info: INITIAL TEMPERATURE    300
Info: CENTER OF MASS MOVING INITIALLY? NO
Info: DIELECTRIC             1
Info: EXCLUDE                SCALED ONE-FOUR
Info: 1-4 ELECTROSTATICS SCALED BY 0.833333
Info: MODIFIED 1-4 VDW PARAMETERS WILL BE USED
Info: DCD FILENAME           mobley_2146331_equil.dcd
Info: DCD FREQUENCY          100000
Info: DCD FIRST STEP         100000
Info: DCD FILE WILL CONTAIN UNIT CELL DATA
Info: XST FILENAME           mobley_2146331_equil.xst
Info: XST FREQUENCY          100000
Info: NO VELOCITY DCD OUTPUT
Info: NO FORCE DCD OUTPUT
Info: OUTPUT FILENAME        mobley_2146331_equil
Info: BINARY OUTPUT FILES WILL BE USED
Info: RESTART FILENAME       mobley_2146331_equil.restart
Info: RESTART FREQUENCY      100000
Info: BINARY RESTART FILES WILL BE USED
Info: CUTOFF                 9
Info: PAIRLIST DISTANCE      11
Info: PAIRLIST SHRINK RATE   0.01
Info: PAIRLIST GROW RATE     0.01
Info: PAIRLIST TRIGGER       0.3
Info: PAIRLISTS PER CYCLE    2
Info: PAIRLISTS ENABLED
Info: MARGIN                 8
Info: HYDROGEN GROUP CUTOFF  2.5
Info: PATCH DIMENSION        21.5
Info: ENERGY OUTPUT STEPS    100000
Info: ENERGY EVALUATION STEPS    100000
Info: OUTPUT ENERGY PRECISION 4
Info: CROSSTERM ENERGY INCLUDED IN DIHEDRAL
Info: TIMING OUTPUT STEPS    1000000
Info: PRESSURE OUTPUT STEPS  100000
Info: FIXED ATOMS ACTIVE
Info: LANGEVIN DYNAMICS ACTIVE
Info: LANGEVIN TEMPERATURE   30
Info: LANGEVIN USING BBK INTEGRATOR
Info: LANGEVIN DAMPING COEFFICIENT IS 1 INVERSE PS
Info: LANGEVIN DYNAMICS APPLIED TO HYDROGENS
Info: LANGEVIN PISTON PRESSURE CONTROL ACTIVE
Info:        TARGET PRESSURE IS 1.01325 BAR
Info:     OSCILLATION PERIOD IS 50 FS
Info:             DECAY TIME IS 25 FS
Info:     PISTON TEMPERATURE IS 300 K
Info:       PRESSURE CONTROL IS GROUP-BASED
Info:    INITIAL STRAIN RATE IS 0 0 0
Info:       CELL FLUCTUATION IS ISOTROPIC
Info: PARTICLE MESH EWALD (PME) ACTIVE
Info: PME TOLERANCE               1e-06
Info: PME EWALD COEFFICIENT       0.348832
Info: PME INTERPOLATION ORDER     4
Info: PME GRID DIMENSIONS         40 36 36
Info: PME MAXIMUM GRID SPACING    1
Info: FULL ELECTROSTATIC EVALUATION FREQUENCY      2
Info: USING VERLET I (r-RESPA) MTS SCHEME.
Info: C1 SPLITTING OF LONG RANGE ELECTROSTATICS
Info: PLACING ATOMS IN PATCHES BY HYDROGEN GROUPS
Info: RIGID BONDS TO HYDROGEN : ALL
Info:         ERROR TOLERANCE : 1e-08
Info:          MAX ITERATIONS : 100
Info: RIGID WATER USING SETTLE ALGORITHM
Info: RANDOM NUMBER SEED     1743682384
Info: USE HYDROGEN BONDS?    NO
Info: Using AMBER format force field!
Info: AMBER PARM FILE        mobley_2146331.prmtop
Info: COORDINATE PDB         mobley_2146331.pdb
Info: Exclusions will be read from PARM file!
Info: SCNB (VDW SCALING)     2
Info: USING ARITHMETIC MEAN TO COMBINE L-J SIGMA PARAMETERS
Info: BINARY COORDINATES     mobley_2146331_min.coor
Info: SUMMARY OF PARAMETERS:
Info: 4 BONDS
Info: 2 ANGLES
Info:   2 HARMONIC
Info:   0 COSINE-BASED
Info: 1 DIHEDRAL
Info: 0 IMPROPER
Info: 0 CROSSTERM
Info: 0 VDW
Info: 15 VDW_PAIRS
Info: 0 NBTHOLE_PAIRS
Info: STRUCTURE SUMMARY:
Info: 2932 ATOMS
Info: 2931 BONDS
Info: 3 ANGLES
Info: 1 DIHEDRALS
Info: 0 IMPROPERS
Info: 0 CROSSTERMS
Info: 2934 EXCLUSIONS
Info: 4 FIXED ATOMS
Info: 2930 RIGID BONDS
Info: 2 RIGID BONDS BETWEEN FIXED ATOMS
Info: 5856 DEGREES OF FREEDOM
Info: 978 HYDROGEN GROUPS
Info: 3 ATOMS IN LARGEST HYDROGEN GROUP
Info: 978 MIGRATION GROUPS
Info: 3 ATOMS IN LARGEST MIGRATION GROUP
Info: 2 HYDROGEN GROUPS WITH ALL ATOMS FIXED
Info: TOTAL MASS = 17613.6 amu
Info: TOTAL CHARGE = -9.9998e-05 e
Info: MASS DENSITY = 0.661498 g/cm^3
Info: ATOM DENSITY = 0.0663107 atoms/A^3
Info: ADDED 0 IMPLICIT EXCLUSIONS
Info: NONBONDED TABLE R-SQUARED SPACING: 0.0625
Info: NONBONDED TABLE SIZE: 705 POINTS
Info: REMOVING COM VELOCITY 0.0376663 0.0758646 0.154025
TCL: Running for 100000 steps
ETITLE: TS BOND ANGLE DIHED IMPRP ELECT VDW BOUNDARY MISC KINETIC TOTAL TEMP POTENTIAL TOTAL3 TEMPAVG PRESSURE GPRESSURE VOLUME PRESSAVG GPRESSAVG
ENERGY: 0 0.0000 0.0000 0.0000 0.0000 -13657.9574 2407.4955 0.0000 0.0000 1713.0290 -9537.4328 294.4110 -11250.4618 -9537.1122 294.4110 485.0287 515.5870 44216.0655 485.0287 515.5870
ENERGY: 100000 0.0000 0.0000 0.0000 0.0000 -14319.9040 2555.9414 0.0000 0.0000 175.9280 -11588.0346 30.2360 -11763.9626 -11587.5586 30.9268 770.9225 787.8795 28576.4514 4.7864 4.7329
TCL: Running 100000 steps at 60 kelvin.
TCL: Setting parameter langevinTemp to 60
TCL: Running for 100000 steps
ETITLE: TS BOND ANGLE DIHED IMPRP ELECT VDW BOUNDARY MISC KINETIC TOTAL TEMP POTENTIAL TOTAL3 TEMPAVG PRESSURE GPRESSURE VOLUME PRESSAVG GPRESSAVG
ENERGY: 100000 0.0000 0.0000 0.0000 0.0000 -14319.9040 2555.9414 0.0000 0.0000 175.8432 -11588.1194 30.2214 -11763.9626 -11587.7635 30.2214 749.7705 787.8849 28576.4514 749.7705 787.8849
ENERGY: 200000 0.0000 0.0000 0.0000 0.0000 -14022.9606 2347.9064 0.0000 0.0000 350.8059 -11324.2483 60.2915 -11675.0542 -11323.0295 59.9535 -783.2708 -725.0225 28983.6182 4.7946 4.7929
TCL: Running 100000 steps at 90 kelvin.
TCL: Setting parameter langevinTemp to 90
TCL: Running for 100000 steps
ETITLE: TS BOND ANGLE DIHED IMPRP ELECT VDW BOUNDARY MISC KINETIC TOTAL TEMP POTENTIAL TOTAL3 TEMPAVG PRESSURE GPRESSURE VOLUME PRESSAVG GPRESSAVG
ENERGY: 200000 0.0000 0.0000 0.0000 0.0000 -14022.9606 2347.9064 0.0000 0.0000 350.6319 -11324.4222 60.2616 -11675.0542 -11323.5704 60.2616 -772.0582 -724.9352 28983.6182 -772.0582 -724.9352
ENERGY: 300000 0.0000 0.0000 0.0000 0.0000 -13891.2365 2312.1024 0.0000 0.0000 522.2064 -11056.9277 89.7494 -11579.1341 -11055.5741 90.0349 -695.7066 -637.8688 28939.2468 4.4131 4.4517
TCL: Running 100000 steps at 120 kelvin.
TCL: Setting parameter langevinTemp to 120
TCL: Running for 100000 steps
ETITLE: TS BOND ANGLE DIHED IMPRP ELECT VDW BOUNDARY MISC KINETIC TOTAL TEMP POTENTIAL TOTAL3 TEMPAVG PRESSURE GPRESSURE VOLUME PRESSAVG GPRESSAVG
ENERGY: 300000 0.0000 0.0000 0.0000 0.0000 -13891.2365 2312.1024 0.0000 0.0000 521.9302 -11057.2039 89.7019 -11579.1341 -11056.2394 89.7019 -682.8833 -637.1515 28939.2468 -682.8833 -637.1515
ENERGY: 400000 0.0000 0.0000 0.0000 0.0000 -13717.9267 2279.3999 0.0000 0.0000 713.6733 -10724.8535 122.6560 -11438.5268 -10722.0982 120.0798 -449.2139 -398.9009 28864.3489 3.6281 3.6432
TCL: Running 100000 steps at 150 kelvin.
TCL: Setting parameter langevinTemp to 150
TCL: Running for 100000 steps
ETITLE: TS BOND ANGLE DIHED IMPRP ELECT VDW BOUNDARY MISC KINETIC TOTAL TEMP POTENTIAL TOTAL3 TEMPAVG PRESSURE GPRESSURE VOLUME PRESSAVG GPRESSAVG
ENERGY: 400000 0.0000 0.0000 0.0000 0.0000 -13717.9267 2279.3999 0.0000 0.0000 713.3141 -10725.2128 122.5942 -11438.5268 -10723.8233 122.5942 -435.3635 -397.8559 28864.3489 -435.3635 -397.8559
ENERGY: 500000 0.0000 0.0000 0.0000 0.0000 -13366.0105 2132.6548 0.0000 0.0000 886.0552 -10347.3004 152.2825 -11233.3557 -10345.3060 149.8263 -785.3722 -755.9207 28891.1481 4.3309 4.3178
TCL: Running 100000 steps at 180 kelvin.
TCL: Setting parameter langevinTemp to 180
TCL: Running for 100000 steps
ETITLE: TS BOND ANGLE DIHED IMPRP ELECT VDW BOUNDARY MISC KINETIC TOTAL TEMP POTENTIAL TOTAL3 TEMPAVG PRESSURE GPRESSURE VOLUME PRESSAVG GPRESSAVG
ENERGY: 500000 0.0000 0.0000 0.0000 0.0000 -13366.0105 2132.6548 0.0000 0.0000 885.5840 -10347.7717 152.2015 -11233.3557 -10345.9912 152.2015 -825.6575 -755.7610 28891.1481 -825.6575 -755.7610
ENERGY: 600000 0.0000 0.0000 0.0000 0.0000 -13103.3753 2112.4408 0.0000 0.0000 1054.8183 -9936.1162 181.2871 -10990.9345 -9933.9712 179.5435 -61.5738 31.4167 28716.8191 3.3039 3.3827
TCL: Running 100000 steps at 210 kelvin.
TCL: Setting parameter langevinTemp to 210
TCL: Running for 100000 steps
ETITLE: TS BOND ANGLE DIHED IMPRP ELECT VDW BOUNDARY MISC KINETIC TOTAL TEMP POTENTIAL TOTAL3 TEMPAVG PRESSURE GPRESSURE VOLUME PRESSAVG GPRESSAVG
ENERGY: 600000 0.0000 0.0000 0.0000 0.0000 -13103.3753 2112.4408 0.0000 0.0000 1054.2947 -9936.6398 181.1971 -10990.9345 -9935.1375 181.1971 -25.5327 31.6105 28716.8191 -25.5327 31.6105
ENERGY: 700000 0.0000 0.0000 0.0000 0.0000 -12320.1453 1835.9441 0.0000 0.0000 1220.6493 -9263.5518 209.7878 -10484.2011 -9262.5822 209.8462 -444.7085 -324.3431 28678.3302 2.8490 2.9033
TCL: Running 100000 steps at 240 kelvin.
TCL: Setting parameter langevinTemp to 240
TCL: Running for 100000 steps
ETITLE: TS BOND ANGLE DIHED IMPRP ELECT VDW BOUNDARY MISC KINETIC TOTAL TEMP POTENTIAL TOTAL3 TEMPAVG PRESSURE GPRESSURE VOLUME PRESSAVG GPRESSAVG
ENERGY: 700000 0.0000 0.0000 0.0000 0.0000 -12320.1453 1835.9441 0.0000 0.0000 1220.0763 -9264.1248 209.6893 -10484.2011 -9261.6590 209.6893 -415.3787 -325.0879 28678.3302 -415.3787 -325.0879
ENERGY: 800000 0.0000 0.0000 0.0000 0.0000 -11814.4708 1682.8050 0.0000 0.0000 1448.2645 -8683.4013 248.9071 -10131.6658 -8680.0079 240.3031 -376.3537 -293.1317 28840.4499 2.9919 3.0940
TCL: Running 100000 steps at 270 kelvin.
TCL: Setting parameter langevinTemp to 270
TCL: Running for 100000 steps
ETITLE: TS BOND ANGLE DIHED IMPRP ELECT VDW BOUNDARY MISC KINETIC TOTAL TEMP POTENTIAL TOTAL3 TEMPAVG PRESSURE GPRESSURE VOLUME PRESSAVG GPRESSAVG
ENERGY: 800000 0.0000 0.0000 0.0000 0.0000 -11814.4708 1682.8050 0.0000 0.0000 1447.5754 -8684.0904 248.7886 -10131.6658 -8681.5510 248.7886 -378.4948 -293.7352 28840.4499 -378.4948 -293.7352
ENERGY: 900000 0.0000 0.0000 0.0000 0.0000 -11226.1044 1497.7098 0.0000 0.0000 1532.6967 -8195.6978 263.4181 -9728.3946 -8193.8663 269.8618 -920.3602 -793.5454 29451.8791 4.3334 4.1492
TCL: Running 1000000 steps at 300 kelvin.
TCL: Setting parameter langevinTemp to 300
TCL: Running for 1000000 steps
ETITLE: TS BOND ANGLE DIHED IMPRP ELECT VDW BOUNDARY MISC KINETIC TOTAL TEMP POTENTIAL TOTAL3 TEMPAVG PRESSURE GPRESSURE VOLUME PRESSAVG GPRESSAVG
ENERGY: 900000 0.0000 0.0000 0.0000 0.0000 -11226.1044 1497.7098 0.0000 0.0000 1531.9301 -8196.4645 263.2863 -9728.3946 -8194.3453 263.2863 -878.3050 -793.5199 29451.8791 -878.3050 -793.5199
ENERGY: 1100000 0.0000 0.0000 0.0000 0.0000 -10641.1257 1343.8146 0.0000 0.0000 1735.5382 -7561.7728 298.2796 -9297.3110 -7558.2599 300.1975 -897.1654 -821.1840 30526.7466 3.1541 3.0401
ENERGY: 1300000 0.0000 0.0000 0.0000 0.0000 -10657.9491 1424.6054 0.0000 0.0000 1783.5849 -7449.7588 306.5371 -9233.3437 -7445.5398 300.0127 -316.1721 -217.6126 30833.1458 2.9177 2.8527
ENERGY: 1500000 0.0000 0.0000 0.0000 0.0000 -10704.8789 1441.8210 0.0000 0.0000 1772.9820 -7490.0758 304.7149 -9263.0579 -7487.5303 299.9401 59.5485 111.0183 30289.9321 3.9667 3.9630
ENERGY: 1700000 0.0000 0.0000 0.0000 0.0000 -10779.3589 1434.9883 0.0000 0.0000 1727.1797 -7617.1909 296.8430 -9344.3706 -7615.4227 299.8042 -319.2661 -267.8255 30310.6076 3.3666 3.3441
ENERGY: 1900000 0.0000 0.0000 0.0000 0.0000 -10571.6983 1310.7342 0.0000 0.0000 1763.6462 -7497.3179 303.1104 -9260.9641 -7491.5760 300.0260 -983.1356 -913.4595 30254.1695 3.1865 3.2118
TCL: Exiting due to exit command.
