Info: SIMULATION PARAMETERS:
Info: TIMESTEP               2
Info: NUMBER OF STEPS        0
Info: STEPS PER CYCLE        10
Info: PERIODIC CELL BASIS 1  35.01 0 0
Info: PERIODIC CELL BASIS 2  0 35.411 0
Info: PERIODIC CELL BASIS 3  0 0 35.516
Info: PERIODIC CELL CENTER   0 0 0
Info: WRAPPING WATERS AROUND PERIODIC BOUNDARIES ON OUTPUT.
Info: WRAPPING ALL CLUSTERS AROUND PERIODIC BOUNDARIES ON OUTPUT.
Info: FIRST LDB TIMESTEP     50
Info: LAST LDB TIMESTEP     -1
Info: HOM BACKGROUND SCALING 1
Info: PME BACKGROUND SCALING 1
Info: MIN ATOMS PER PATCH    40
Info: EMPTY PATCH LOAD       40 ATOMS
Info: INITIAL TEMPERATURE    300
Info: CENTER OF MASS MOVING INITIALLY? NO
Info: DIELECTRIC             1
Info: EXCLUDE                SCALED ONE-FOUR
Info: 1-4 ELECTROSTATICS SCALED BY 0.833333
Info: MODIFIED 1-4 VDW PARAMETERS WILL BE USED
Info: DCD FILENAME           mobley_468867_equil.dcd
Info: DCD FREQUENCY          100000
Info: DCD FIRST STEP         100000
Info: DCD FILE WILL CONTAIN UNIT CELL DATA
Info: XST FILENAME           mobley_468867_equil.xst
Info: XST FREQUENCY          100000
Info: NO VELOCITY DCD OUTPUT
Info: NO FORCE DCD OUTPUT
Info: OUTPUT FILENAME        mobley_468867_equil
Info: BINARY OUTPUT FILES WILL BE USED
Info: RESTART FILENAME       mobley_468867_equil.restart
Info: RESTART FREQUENCY      100000
Info: BINARY RESTART FILES WILL BE USED
Info: CUTOFF                 9
Info: PAIRLIST DISTANCE      11
Info: PAIRLIST SHRINK RATE   0.01
Info: PAIRLIST GROW RATE     0.01
Info: PAIRLIST TRIGGER       0.3
Info: PAIRLISTS PER CYCLE    2
Info: PAIRLISTS ENABLED
Info: MARGIN                 8
Info: HYDROGEN GROUP CUTOFF  2.5
Info: PATCH DIMENSION        21.5
Info: ENERGY OUTPUT STEPS    100000
Info: ENERGY EVALUATION STEPS    100000
Info: OUTPUT ENERGY PRECISION 4
Info: CROSSTERM ENERGY INCLUDED IN DIHEDRAL
Info: TIMING OUTPUT STEPS    1000000
Info: PRESSURE OUTPUT STEPS  100000
Info: LANGEVIN DYNAMICS ACTIVE
Info: LANGEVIN TEMPERATURE   30
Info: LANGEVIN USING BBK INTEGRATOR
Info: LANGEVIN DAMPING COEFFICIENT IS 1 INVERSE PS
Info: LANGEVIN DYNAMICS APPLIED TO HYDROGENS
Info: LANGEVIN PISTON PRESSURE CONTROL ACTIVE
Info:        TARGET PRESSURE IS 1.01325 BAR
Info:     OSCILLATION PERIOD IS 50 FS
Info:             DECAY TIME IS 25 FS
Info:     PISTON TEMPERATURE IS 300 K
Info:       PRESSURE CONTROL IS GROUP-BASED
Info:    INITIAL STRAIN RATE IS 0 0 0
Info:       CELL FLUCTUATION IS ISOTROPIC
Info: PARTICLE MESH EWALD (PME) ACTIVE
Info: PME TOLERANCE               1e-06
Info: PME EWALD COEFFICIENT       0.348832
Info: PME INTERPOLATION ORDER     4
Info: PME GRID DIMENSIONS         36 36 36
Info: PME MAXIMUM GRID SPACING    1
Info: FULL ELECTROSTATIC EVALUATION FREQUENCY      2
Info: USING VERLET I (r-RESPA) MTS SCHEME.
Info: C1 SPLITTING OF LONG RANGE ELECTROSTATICS
Info: PLACING ATOMS IN PATCHES BY HYDROGEN GROUPS
Info: RIGID BONDS TO HYDROGEN : ALL
Info:         ERROR TOLERANCE : 1e-08
Info:          MAX ITERATIONS : 100
Info: RIGID WATER USING SETTLE ALGORITHM
Info: RANDOM NUMBER SEED     1743219679
Info: USE HYDROGEN BONDS?    NO
Info: Using AMBER format force field!
Info: AMBER PARM FILE        mobley_468867.prmtop
Info: COORDINATE PDB         mobley_468867.pdb
Info: Exclusions will be read from PARM file!
Info: SCNB (VDW SCALING)     2
Info: USING ARITHMETIC MEAN TO COMBINE L-J SIGMA PARAMETERS
Info: BINARY COORDINATES     mobley_468867_min.coor
Info: SUMMARY OF PARAMETERS:
Info: 10 BONDS
Info: 15 ANGLES
Info:   15 HARMONIC
Info:   0 COSINE-BASED
Info: 15 DIHEDRAL
Info: 0 IMPROPER
Info: 0 CROSSTERM
Info: 0 VDW
Info: 36 VDW_PAIRS
Info: 0 NBTHOLE_PAIRS
Info: STRUCTURE SUMMARY:
Info: 2908 ATOMS
Info: 2910 BONDS
Info: 48 ANGLES
Info: 115 DIHEDRALS
Info: 0 IMPROPERS
Info: 0 CROSSTERMS
Info: 3027 EXCLUSIONS
Info: 2891 RIGID BONDS
Info: 5833 DEGREES OF FREEDOM
Info: 979 HYDROGEN GROUPS
Info: 3 ATOMS IN LARGEST HYDROGEN GROUP
Info: 979 MIGRATION GROUPS
Info: 3 ATOMS IN LARGEST MIGRATION GROUP
Info: TOTAL MASS = 17704.7 amu
Info: TOTAL CHARGE = 9.99968e-05 e
Info: MASS DENSITY = 0.667718 g/cm^3
Info: ATOM DENSITY = 0.066045 atoms/A^3
Info: ADDED 0 IMPLICIT EXCLUSIONS
Info: NONBONDED TABLE R-SQUARED SPACING: 0.0625
Info: NONBONDED TABLE SIZE: 705 POINTS
Info: REMOVING COM VELOCITY -0.0860067 0.183224 0.0637611
TCL: Running for 100000 steps
ETITLE: TS BOND ANGLE DIHED IMPRP ELECT VDW BOUNDARY MISC KINETIC TOTAL TEMP POTENTIAL TOTAL3 TEMPAVG PRESSURE GPRESSURE VOLUME PRESSAVG GPRESSAVG
ENERGY: 0 1.0038 48.0663 11.9907 0.0000 -13387.6604 2354.7611 0.0000 0.0000 1750.1129 -9221.7257 301.9705 -10971.8385 -9221.3712 301.9705 461.4180 486.1307 44030.5742 461.4180 486.1307
ENERGY: 100000 1.7092 48.3085 12.1275 0.0000 -13918.3730 2401.2044 0.0000 0.0000 174.6400 -11280.3834 30.1330 -11455.0234 -11279.7223 30.9762 -242.6864 -177.5389 29045.4147 4.2696 4.2236
TCL: Running 100000 steps at 60 kelvin.
TCL: Setting parameter langevinTemp to 60
TCL: Running for 100000 steps
ETITLE: TS BOND ANGLE DIHED IMPRP ELECT VDW BOUNDARY MISC KINETIC TOTAL TEMP POTENTIAL TOTAL3 TEMPAVG PRESSURE GPRESSURE VOLUME PRESSAVG GPRESSAVG
ENERGY: 100000 1.7092 48.3085 12.1275 0.0000 -13918.3730 2401.2044 0.0000 0.0000 174.5530 -11280.4703 30.1180 -11455.0234 -11280.0857 30.1180 -225.6184 -177.4834 29045.4147 -225.6184 -177.4834
ENERGY: 200000 1.9699 49.6930 12.3084 0.0000 -13892.5949 2450.4136 0.0000 0.0000 349.7176 -11028.4925 60.3415 -11378.2101 -11027.9188 59.8317 521.9599 573.4954 28969.4040 3.8686 3.9389
TCL: Running 100000 steps at 90 kelvin.
TCL: Setting parameter langevinTemp to 90
TCL: Running for 100000 steps
ETITLE: TS BOND ANGLE DIHED IMPRP ELECT VDW BOUNDARY MISC KINETIC TOTAL TEMP POTENTIAL TOTAL3 TEMPAVG PRESSURE GPRESSURE VOLUME PRESSAVG GPRESSAVG
ENERGY: 200000 1.9699 49.6930 12.3084 0.0000 -13892.5949 2450.4136 0.0000 0.0000 349.5453 -11028.6648 60.3117 -11378.2101 -11027.9215 60.3117 524.4160 573.3156 28969.4040 524.4160 573.3156
ENERGY: 300000 1.9441 50.6388 12.4074 0.0000 -13677.0481 2357.9791 0.0000 0.0000 520.9044 -10733.1743 89.8786 -11254.0787 -10732.3283 89.9030 334.3538 350.5242 28692.8586 4.3803 4.3346
TCL: Running 100000 steps at 120 kelvin.
TCL: Setting parameter langevinTemp to 120
TCL: Running for 100000 steps
ETITLE: TS BOND ANGLE DIHED IMPRP ELECT VDW BOUNDARY MISC KINETIC TOTAL TEMP POTENTIAL TOTAL3 TEMPAVG PRESSURE GPRESSURE VOLUME PRESSAVG GPRESSAVG
ENERGY: 300000 1.9441 50.6388 12.4074 0.0000 -13677.0481 2357.9791 0.0000 0.0000 520.6441 -10733.4345 89.8337 -11254.0787 -10732.5203 89.8337 299.9332 350.2130 28692.8586 299.9332 350.2130
ENERGY: 400000 3.6566 51.1242 12.1026 0.0000 -13444.9374 2235.9625 0.0000 0.0000 704.6504 -10437.4411 121.5828 -11142.0915 -10436.4034 119.7028 -269.9615 -226.0234 28922.8003 3.3389 3.2040
TCL: Running 100000 steps at 150 kelvin.
TCL: Setting parameter langevinTemp to 150
TCL: Running for 100000 steps
ETITLE: TS BOND ANGLE DIHED IMPRP ELECT VDW BOUNDARY MISC KINETIC TOTAL TEMP POTENTIAL TOTAL3 TEMPAVG PRESSURE GPRESSURE VOLUME PRESSAVG GPRESSAVG
ENERGY: 400000 3.6566 51.1242 12.1026 0.0000 -13444.9374 2235.9625 0.0000 0.0000 704.3176 -10437.7739 121.5254 -11142.0915 -10436.1526 121.5254 -270.0383 -226.4663 28922.8003 -270.0383 -226.4663
ENERGY: 500000 2.2792 53.8226 13.2279 0.0000 -13274.6855 2218.0941 0.0000 0.0000 883.3499 -10103.9118 152.4162 -10987.2617 -10100.9469 150.1327 457.3233 513.4959 28534.8270 3.5451 3.5395
TCL: Running 100000 steps at 180 kelvin.
TCL: Setting parameter langevinTemp to 180
TCL: Running for 100000 steps
ETITLE: TS BOND ANGLE DIHED IMPRP ELECT VDW BOUNDARY MISC KINETIC TOTAL TEMP POTENTIAL TOTAL3 TEMPAVG PRESSURE GPRESSURE VOLUME PRESSAVG GPRESSAVG
ENERGY: 500000 2.2792 53.8226 13.2279 0.0000 -13274.6855 2218.0941 0.0000 0.0000 882.9144 -10104.3473 152.3411 -10987.2617 -10102.1782 152.3411 476.3173 513.9196 28534.8270 476.3173 513.9196
ENERGY: 600000 6.1803 53.2949 14.5849 0.0000 -12932.5726 2144.7040 0.0000 0.0000 1110.6185 -9603.1899 191.6299 -10713.8084 -9600.4805 179.6631 821.0054 944.0474 28301.2473 5.2273 5.3621
TCL: Running 100000 steps at 210 kelvin.
TCL: Setting parameter langevinTemp to 210
TCL: Running for 100000 steps
ETITLE: TS BOND ANGLE DIHED IMPRP ELECT VDW BOUNDARY MISC KINETIC TOTAL TEMP POTENTIAL TOTAL3 TEMPAVG PRESSURE GPRESSURE VOLUME PRESSAVG GPRESSAVG
ENERGY: 600000 6.1803 53.2949 14.5849 0.0000 -12932.5726 2144.7040 0.0000 0.0000 1110.0893 -9603.7191 191.5386 -10713.8084 -9601.8046 191.5386 872.7742 943.7072 28301.2473 872.7742 943.7072
ENERGY: 700000 4.9341 53.4693 12.8671 0.0000 -12356.7788 1944.2860 0.0000 0.0000 1195.0825 -9146.1397 206.2036 -10341.2222 -9142.9013 209.8917 461.7685 568.4313 28416.2483 4.2430 4.0586
TCL: Running 100000 steps at 240 kelvin.
TCL: Setting parameter langevinTemp to 240
TCL: Running for 100000 steps
ETITLE: TS BOND ANGLE DIHED IMPRP ELECT VDW BOUNDARY MISC KINETIC TOTAL TEMP POTENTIAL TOTAL3 TEMPAVG PRESSURE GPRESSURE VOLUME PRESSAVG GPRESSAVG
ENERGY: 700000 4.9341 53.4693 12.8671 0.0000 -12356.7788 1944.2860 0.0000 0.0000 1194.4771 -9146.7451 206.0992 -10341.2222 -9144.8127 206.0992 488.2746 567.9698 28416.2483 488.2746 567.9698
ENERGY: 800000 2.7897 58.6197 12.9774 0.0000 -11483.5246 1691.4656 0.0000 0.0000 1384.1372 -8333.5351 238.8238 -9717.6722 -8331.4117 240.0161 321.2697 365.1254 29040.5507 4.2895 4.1372
TCL: Running 100000 steps at 270 kelvin.
TCL: Setting parameter langevinTemp to 270
TCL: Running for 100000 steps
ETITLE: TS BOND ANGLE DIHED IMPRP ELECT VDW BOUNDARY MISC KINETIC TOTAL TEMP POTENTIAL TOTAL3 TEMPAVG PRESSURE GPRESSURE VOLUME PRESSAVG GPRESSAVG
ENERGY: 800000 2.7897 58.6197 12.9774 0.0000 -11483.5246 1691.4656 0.0000 0.0000 1383.4681 -8334.2041 238.7083 -9717.6722 -8332.4039 238.7083 274.6116 364.2751 29040.5507 274.6116 364.2751
ENERGY: 900000 3.0672 52.9480 12.9942 0.0000 -11014.1933 1569.6388 0.0000 0.0000 1592.6546 -7782.8905 274.8021 -9375.5451 -7780.8287 269.4738 367.9787 380.0638 29443.4115 3.4161 3.3131
TCL: Running 1000000 steps at 300 kelvin.
TCL: Setting parameter langevinTemp to 300
TCL: Running for 1000000 steps
ETITLE: TS BOND ANGLE DIHED IMPRP ELECT VDW BOUNDARY MISC KINETIC TOTAL TEMP POTENTIAL TOTAL3 TEMPAVG PRESSURE GPRESSURE VOLUME PRESSAVG GPRESSAVG
ENERGY: 900000 3.0672 52.9480 12.9942 0.0000 -11014.1933 1569.6388 0.0000 0.0000 1591.8600 -7783.6851 274.6650 -9375.5451 -7780.6768 274.6650 313.2678 380.1105 29443.4115 313.2678 380.1105
ENERGY: 1100000 4.5832 56.9617 13.2695 0.0000 -10365.4325 1278.7073 0.0000 0.0000 1751.3607 -7260.5501 302.1858 -9011.9108 -7260.1126 300.4157 -1027.7126 -953.9223 30384.4688 3.8185 3.7679
ENERGY: 1300000 7.8767 56.0896 12.7628 0.0000 -10644.8392 1500.7258 0.0000 0.0000 1745.2066 -7322.1778 301.1239 -9067.3844 -7318.5378 300.1780 1083.0908 1204.6399 29483.2455 2.3682 2.2306
ENERGY: 1500000 4.3782 56.9162 12.7614 0.0000 -10517.1940 1377.9832 0.0000 0.0000 1730.9668 -7334.1882 298.6669 -9065.1550 -7330.8566 299.5302 -302.6317 -307.8277 30327.2018 3.1210 3.1787
ENERGY: 1700000 5.4336 55.5494 12.7375 0.0000 -10531.4570 1360.8174 0.0000 0.0000 1690.1987 -7406.7203 291.6327 -9096.9190 -7402.9036 300.5788 -333.8916 -217.2706 29652.8505 3.6049 3.6883
ENERGY: 1900000 7.7292 55.1146 14.2708 0.0000 -10504.9562 1397.7794 0.0000 0.0000 1760.3572 -7269.7050 303.7381 -9030.0622 -7265.9049 299.8936 -229.5967 -169.2311 30286.1948 3.9498 3.8682
TCL: Exiting due to exit command.
