Info: SIMULATION PARAMETERS:
Info: TIMESTEP               2
Info: NUMBER OF STEPS        0
Info: STEPS PER CYCLE        10
Info: PERIODIC CELL BASIS 1  32.2646 0 0
Info: PERIODIC CELL BASIS 2  0 32.4145 0
Info: PERIODIC CELL BASIS 3  0 0 29.3355
Info: PERIODIC CELL CENTER   0 0 0
Info: WRAPPING WATERS AROUND PERIODIC BOUNDARIES ON OUTPUT.
Info: WRAPPING ALL CLUSTERS AROUND PERIODIC BOUNDARIES ON OUTPUT.
Info: FIRST LDB TIMESTEP     50
Info: LAST LDB TIMESTEP     -1
Info: HOM BACKGROUND SCALING 1
Info: PME BACKGROUND SCALING 1
Info: MIN ATOMS PER PATCH    40
Info: EMPTY PATCH LOAD       40 ATOMS
Info: VELOCITY FILE          mobley_5952846_equil.vel
Info: CENTER OF MASS MOVING INITIALLY? NO
Info: DIELECTRIC             1
Info: EXCLUDE                SCALED ONE-FOUR
Info: 1-4 ELECTROSTATICS SCALED BY 0.833333
Info: MODIFIED 1-4 VDW PARAMETERS WILL BE USED
Info: DCD FILENAME           mobley_5952846_prod.dcd
Info: DCD FREQUENCY          100000
Info: DCD FIRST STEP         100000
Info: DCD FILE WILL CONTAIN UNIT CELL DATA
Info: XST FILENAME           mobley_5952846_prod.xst
Info: XST FREQUENCY          100000
Info: NO VELOCITY DCD OUTPUT
Info: NO FORCE DCD OUTPUT
Info: OUTPUT FILENAME        mobley_5952846_prod
Info: BINARY OUTPUT FILES WILL BE USED
Info: RESTART FILENAME       mobley_5952846_prod.restart
Info: RESTART FREQUENCY      100000
Info: BINARY RESTART FILES WILL BE USED
Info: CUTOFF                 9
Info: PAIRLIST DISTANCE      11
Info: PAIRLIST SHRINK RATE   0.01
Info: PAIRLIST GROW RATE     0.01
Info: PAIRLIST TRIGGER       0.3
Info: PAIRLISTS PER CYCLE    2
Info: PAIRLISTS ENABLED
Info: MARGIN                 2
Info: HYDROGEN GROUP CUTOFF  2.5
Info: PATCH DIMENSION        15.5
Info: ENERGY OUTPUT STEPS    100000
Info: ENERGY EVALUATION STEPS    100000
Info: OUTPUT ENERGY PRECISION 4
Info: CROSSTERM ENERGY INCLUDED IN DIHEDRAL
Info: TIMING OUTPUT STEPS    1000000
Info: PRESSURE OUTPUT STEPS  100000
Info: ALCHEMICAL FEP ON
Info: FEP CURRENT LAMBDA VALUE     0
Info: FEP COMPARISON LAMBDA VALUE  0.05
Info: FEP INTRA-ALCHEMICAL NON-BONDED INTERACTIONS WILL BE RETAINED
Info: FEP INTRA-ALCHEMICAL BONDED INTERACTIONS WILL BE RETAINED
Info: FEP VDW SHIFTING COEFFICIENT 5
Info: FEP ELEC. ACTIVE FOR ANNIHILATED PARTICLES BETWEEN LAMBDA = 0 AND LAMBDA = 0.5
Info: FEP ELEC. ACTIVE FOR EXNIHILATED PARTICLES BETWEEN LAMBDA = 0.5 AND LAMBDA = 1
Info: FEP VDW ACTIVE FOR ANNIHILATED PARTICLES BETWEEN LAMBDA = 0 AND LAMBDA = 1
Info: FEP VDW ACTIVE FOR EXNIHILATED PARTICLES BETWEEN LAMBDA = 0 AND LAMBDA = 1
Info: FEP BOND ACTIVE FOR ANNIHILATED PARTICLES BETWEEN LAMBDA = 1 AND LAMBDA = 1
Info: FEP BOND ACTIVE FOR EXNIHILATED PARTICLES BETWEEN LAMBDA = 0 AND LAMBDA = 0
Info: LANGEVIN DYNAMICS ACTIVE
Info: LANGEVIN TEMPERATURE   300
Info: LANGEVIN USING BBK INTEGRATOR
Info: LANGEVIN DAMPING COEFFICIENT IS 1 INVERSE PS
Info: LANGEVIN DYNAMICS APPLIED TO HYDROGENS
Info: LANGEVIN PISTON PRESSURE CONTROL ACTIVE
Info:        TARGET PRESSURE IS 1.01325 BAR
Info:     OSCILLATION PERIOD IS 50 FS
Info:             DECAY TIME IS 25 FS
Info:     PISTON TEMPERATURE IS 300 K
Info:       PRESSURE CONTROL IS GROUP-BASED
Info:    INITIAL STRAIN RATE IS -0.000802597 -0.000802597 -0.000802597
Info:       CELL FLUCTUATION IS ISOTROPIC
Info: PARTICLE MESH EWALD (PME) ACTIVE
Info: PME TOLERANCE               1e-06
Info: PME EWALD COEFFICIENT       0.348832
Info: PME INTERPOLATION ORDER     4
Info: PME GRID DIMENSIONS         36 36 32
Info: PME MAXIMUM GRID SPACING    1
Info: PME CALCULATION WILL BE PERFORMED ON GPU
Info: FULL ELECTROSTATIC EVALUATION FREQUENCY      2
Info: USING VERLET I (r-RESPA) MTS SCHEME.
Info: C1 SPLITTING OF LONG RANGE ELECTROSTATICS
Info: PLACING ATOMS IN PATCHES BY HYDROGEN GROUPS
Info: RIGID BONDS TO HYDROGEN : ALL
Info:         ERROR TOLERANCE : 1e-08
Info:          MAX ITERATIONS : 100
Info: RIGID WATER USING SETTLE ALGORITHM
Info: RANDOM NUMBER SEED     1743470927
Info: USE HYDROGEN BONDS?    NO
Info: Using AMBER format force field!
Info: AMBER PARM FILE        mobley_5952846.prmtop
Info: COORDINATE PDB         mobley_5952846.pdb
Info: Exclusions will be read from PARM file!
Info: SCNB (VDW SCALING)     2
Info: USING ARITHMETIC MEAN TO COMBINE L-J SIGMA PARAMETERS
Info: BINARY COORDINATES     mobley_5952846_equil.coor
Info: SUMMARY OF PARAMETERS:
Info: 4 BONDS
Info: 2 ANGLES
Info:   2 HARMONIC
Info:   0 COSINE-BASED
Info: 2 DIHEDRAL
Info: 0 IMPROPER
Info: 0 CROSSTERM
Info: 0 VDW
Info: 10 VDW_PAIRS
Info: 0 NBTHOLE_PAIRS
Info: To read alchdata from file: mobley_5952846.pdb
Info: To read alchflag data from column: 5
Info: STRUCTURE SUMMARY:
Info: 2997 ATOMS
Info: 2996 BONDS
Info: 6 ANGLES
Info: 6 DIHEDRALS
Info: 0 IMPROPERS
Info: 0 CROSSTERMS
Info: 3006 EXCLUSIONS
Info: 2991 RIGID BONDS
Info: ALCH: 0 ATOMS TO DISAPPEAR IN FINAL STATE
Info: ALCH: 6 ATOMS TO APPEAR IN FINAL STATE
Info: 6000 DEGREES OF FREEDOM
Info: 1003 HYDROGEN GROUPS
Info: 3 ATOMS IN LARGEST HYDROGEN GROUP
Info: 1003 MIGRATION GROUPS
Info: 3 ATOMS IN LARGEST MIGRATION GROUP
Info: TOTAL MASS = 18127.8 amu
Info: TOTAL CHARGE = -0.000200003 e
Info: MASS DENSITY = 0.981172 g/cm^3
Info: ATOM DENSITY = 0.097685 atoms/A^3
Info: ADDED 0 IMPLICIT EXCLUSIONS
Info: NONBONDED TABLE R-SQUARED SPACING: 0.0625
Info: NONBONDED TABLE SIZE: 705 POINTS
Info: REDUCING NUMBER OF PATCHES TO IMPROVE LOAD BALANCE
Info: REMOVING COM VELOCITY 0.0611481 0.0577649 -0.00076753
Info: Use 3D box decompostion in PME FFT.
Info: Updated CUDA force table with 4096 elements.
Info: Updated CUDA LJ table with 4 x 4 elements.
Info: Found 9 unique exclusion lists needing 12 bytes
TCL: Running for 1500000 steps
ETITLE: TS BOND ANGLE DIHED IMPRP ELECT VDW BOUNDARY MISC KINETIC TOTAL TEMP POTENTIAL TOTALAVG TEMPAVG PRESSURE GPRESSURE VOLUME PRESSAVG GPRESSAVG
ENERGY: 0 0.3945 1.4955 0.2546 0.0000 -11050.5491 1561.9635 0.0000 0.0000 1822.5398 -7663.9012 305.7146 -9486.4410 -7663.9012 305.7146 587.4848 672.3078 30680.2373 587.4848 672.3078
ENERGY: 300000 2.8468 0.2019 0.4071 0.0000 -10994.4138 1507.5565 0.0000 0.0000 1841.2588 -7642.1427 308.8545 -9483.4015 -7600.7362 308.0397 319.1555 403.5035 30502.0843 316.0957 401.5583
ENERGY: 600000 1.3463 1.2012 0.4202 0.0000 -11006.8523 1562.2582 0.0000 0.0000 1740.4580 -7701.1684 291.9461 -9441.6264 -7623.1626 302.8360 743.5175 778.8504 30582.9137 147.0854 214.1158
ENERGY: 900000 0.2773 0.2930 0.5421 0.0000 -10849.1247 1398.9764 0.0000 0.0000 1809.9470 -7639.0889 303.6023 -9449.0360 -7624.8713 302.2969 -701.1073 -590.0646 30665.2748 144.8337 214.1319
ENERGY: 1200000 0.4010 1.9150 2.5907 0.0000 -10969.1630 1537.9401 0.0000 0.0000 1775.8904 -7650.4258 297.8896 -9426.3162 -7616.9604 302.5362 766.6256 807.1339 30309.8093 100.3061 157.1390
ENERGY: 1500000 3.5465 1.7449 0.3484 0.0000 -10898.0009 1509.2100 0.0000 0.0000 1760.8736 -7622.2776 295.3706 -9383.1511 -7616.4930 301.4882 222.6464 251.1641 31214.8906 122.5989 179.1866
TCL: Running FEP window   2: Lambda1 0.05   Lambda2 0.1    [dLambda 0.05  ]
TCL: Setting parameter firsttimestep to 0
TCL: Setting parameter alchLambda to 0.05
Info: NONBONDED TABLE R-SQUARED SPACING: 0.0625
Info: NONBONDED TABLE SIZE: 705 POINTS
TCL: Setting parameter alchLambda2 to 0.1
Info: NONBONDED TABLE R-SQUARED SPACING: 0.0625
Info: NONBONDED TABLE SIZE: 705 POINTS
TCL: Running for 1500000 steps
ETITLE: TS BOND ANGLE DIHED IMPRP ELECT VDW BOUNDARY MISC KINETIC TOTAL TEMP POTENTIAL TOTALAVG TEMPAVG PRESSURE GPRESSURE VOLUME PRESSAVG GPRESSAVG
ENERGY: 0 3.5465 1.7449 0.3484 0.0000 -10898.0023 1512.6586 0.0000 0.0000 1760.0005 -7619.7035 295.2242 -9379.7040 -7619.7035 295.2242 181.2341 260.0376 31214.8906 181.2341 260.0376
ENERGY: 300000 1.3090 1.4438 0.3325 0.0000 -10976.1640 1532.5424 0.0000 0.0000 1785.4812 -7655.0550 299.4983 -9440.5362 -7624.7792 299.2776 679.3563 696.0740 30285.3602 -62.1143 -10.0519
ENERGY: 600000 3.1605 1.1624 0.3216 0.0000 -10949.1918 1489.9071 0.0000 0.0000 1818.8867 -7635.7535 305.1018 -9454.6402 -7614.4180 301.1144 182.2756 297.1047 30498.4197 192.5842 273.8371
ENERGY: 900000 1.3607 0.7006 0.2162 0.0000 -10844.5723 1465.4091 0.0000 0.0000 1799.4195 -7577.4662 301.8364 -9376.8857 -7625.1918 300.6028 49.3697 53.1936 31187.3001 107.5427 173.2587
ENERGY: 1200000 1.8986 0.7575 0.2205 0.0000 -10963.7506 1501.1338 0.0000 0.0000 1746.4127 -7713.3274 292.9449 -9459.7401 -7639.6135 300.2041 310.4472 376.5755 30269.4168 120.1026 199.7345
ENERGY: 1500000 0.9943 0.4461 1.0801 0.0000 -10875.7168 1421.6457 0.0000 0.0000 1785.1569 -7666.3938 299.4439 -9451.5507 -7641.2361 300.7532 -440.3910 -326.3172 30686.2078 104.3585 183.4953
TCL: Running FEP window   3: Lambda1 0.1    Lambda2 0.15000000000000002 [dLambda 0.05000000000000002]
TCL: Setting parameter firsttimestep to 0
TCL: Setting parameter alchLambda to 0.1
Info: NONBONDED TABLE R-SQUARED SPACING: 0.0625
Info: NONBONDED TABLE SIZE: 705 POINTS
TCL: Setting parameter alchLambda2 to 0.15000000000000002
Info: NONBONDED TABLE R-SQUARED SPACING: 0.0625
Info: NONBONDED TABLE SIZE: 705 POINTS
TCL: Running for 1500000 steps
ETITLE: TS BOND ANGLE DIHED IMPRP ELECT VDW BOUNDARY MISC KINETIC TOTAL TEMP POTENTIAL TOTALAVG TEMPAVG PRESSURE GPRESSURE VOLUME PRESSAVG GPRESSAVG
ENERGY: 0 0.9943 0.4461 1.0801 0.0000 -10875.7171 1424.1270 0.0000 0.0000 1784.3093 -7664.7603 299.3018 -9449.0696 -7664.7603 299.3018 -395.1523 -313.9645 30686.2078 -395.1523 -313.9645
ENERGY: 300000 1.4384 1.0512 0.2661 0.0000 -10823.0590 1389.6123 0.0000 0.0000 1826.9591 -7603.7319 306.4559 -9430.6910 -7595.2286 303.1275 -590.3527 -565.3630 30805.4765 -238.4764 -160.6675
ENERGY: 600000 1.7360 0.5276 0.0961 0.0000 -10870.0802 1493.2131 0.0000 0.0000 1735.4871 -7639.0203 291.1123 -9374.5074 -7605.0564 301.3407 -41.9077 26.5898 31172.6995 -32.6654 41.4299
ENERGY: 900000 0.7425 2.6039 1.7773 0.0000 -10890.8728 1475.3432 0.0000 0.0000 1734.5645 -7675.8413 290.9575 -9410.4058 -7615.6189 300.1571 148.3604 193.7721 30477.7040 -137.8422 -66.2249
ENERGY: 1200000 0.5589 1.5958 0.2987 0.0000 -10796.3277 1413.0240 0.0000 0.0000 1780.1945 -7600.6557 298.6115 -9380.8502 -7621.2752 299.8476 -373.0119 -331.0122 31110.4561 -171.9899 -101.1779
ENERGY: 1500000 3.2063 1.2198 1.4626 0.0000 -10862.0552 1434.1594 0.0000 0.0000 1837.4754 -7584.5317 308.2199 -9422.0072 -7621.2300 300.5460 182.1232 216.8202 30488.2429 -151.7752 -83.6039
TCL: Running FEP window   4: Lambda1 0.15000000000000002 Lambda2 0.2    [dLambda 0.04999999999999999]
TCL: Setting parameter firsttimestep to 0
TCL: Setting parameter alchLambda to 0.15000000000000002
Info: NONBONDED TABLE R-SQUARED SPACING: 0.0625
Info: NONBONDED TABLE SIZE: 705 POINTS
TCL: Setting parameter alchLambda2 to 0.2
Info: NONBONDED TABLE R-SQUARED SPACING: 0.0625
Info: NONBONDED TABLE SIZE: 705 POINTS
TCL: Running for 1500000 steps
ETITLE: TS BOND ANGLE DIHED IMPRP ELECT VDW BOUNDARY MISC KINETIC TOTAL TEMP POTENTIAL TOTALAVG TEMPAVG PRESSURE GPRESSURE VOLUME PRESSAVG GPRESSAVG
ENERGY: 0 3.2063 1.2198 1.4626 0.0000 -10862.0548 1435.4833 0.0000 0.0000 1836.6237 -7584.0592 308.0770 -9420.6829 -7584.0592 308.0770 151.9674 228.7972 30488.2429 151.9674 228.7972
ENERGY: 300000 2.8035 0.7468 0.5948 0.0000 -10784.0343 1359.5888 0.0000 0.0000 1813.2647 -7607.0358 304.1588 -9420.3004 -7645.4086 301.8511 -830.0284 -845.8286 30809.6838 -69.2155 -53.1207
ENERGY: 600000 1.3704 0.4330 0.2576 0.0000 -10600.7943 1297.8562 0.0000 0.0000 1794.9582 -7505.9189 301.0880 -9300.8771 -7627.3167 300.7312 -1385.1584 -1314.9660 31745.4508 -203.8044 -182.4111
ENERGY: 900000 0.8962 1.0584 0.5814 0.0000 -10838.6234 1451.1123 0.0000 0.0000 1822.3661 -7562.6090 305.6854 -9384.9751 -7620.6612 300.3628 8.4812 93.1896 30867.1241 -202.9907 -173.1455
ENERGY: 1200000 4.6786 1.8309 1.3137 0.0000 -10862.3769 1473.6817 0.0000 0.0000 1817.4337 -7563.4383 304.8581 -9380.8720 -7618.9650 300.5461 167.2911 240.3868 30601.7393 -268.3561 -219.3041
ENERGY: 1500000 1.9379 0.2223 1.7450 0.0000 -10855.5349 1430.8975 0.0000 0.0000 1807.6815 -7613.0506 303.2222 -9420.7321 -7625.7525 300.3261 -163.1246 -97.2265 30558.0066 -235.6382 -190.2157
TCL: Running FEP window   5: Lambda1 0.2    Lambda2 0.25   [dLambda 0.04999999999999999]
TCL: Setting parameter firsttimestep to 0
TCL: Setting parameter alchLambda to 0.2
Info: NONBONDED TABLE R-SQUARED SPACING: 0.0625
Info: NONBONDED TABLE SIZE: 705 POINTS
TCL: Setting parameter alchLambda2 to 0.25
Info: NONBONDED TABLE R-SQUARED SPACING: 0.0625
Info: NONBONDED TABLE SIZE: 705 POINTS
TCL: Running for 1500000 steps
ETITLE: TS BOND ANGLE DIHED IMPRP ELECT VDW BOUNDARY MISC KINETIC TOTAL TEMP POTENTIAL TOTALAVG TEMPAVG PRESSURE GPRESSURE VOLUME PRESSAVG GPRESSAVG
ENERGY: 0 1.9379 0.2223 1.7450 0.0000 -10855.5330 1431.0482 0.0000 0.0000 1806.8168 -7613.7627 303.0772 -9420.5795 -7613.7627 303.0772 -192.0351 -91.2720 30558.0066 -192.0351 -91.2720
ENERGY: 300000 0.4738 0.7478 0.0094 0.0000 -10828.7493 1465.9464 0.0000 0.0000 1820.6526 -7540.9193 305.3980 -9361.5719 -7575.7402 304.1353 51.4459 62.4843 31479.7033 -48.0561 3.8715
ENERGY: 600000 0.5508 0.7716 1.2269 0.0000 -10869.2438 1406.0870 0.0000 0.0000 1802.6185 -7657.9891 302.3730 -9460.6075 -7622.4726 300.8238 -684.8974 -584.9924 31014.4645 -216.6448 -159.8031
ENERGY: 900000 1.4440 0.8473 0.8581 0.0000 -10848.3092 1443.7782 0.0000 0.0000 1817.5219 -7583.8597 304.8729 -9401.3815 -7623.9809 301.9532 -60.7068 34.5196 30743.3505 -121.7737 -59.2074
ENERGY: 1200000 2.2698 0.8297 0.1193 0.0000 -10868.2275 1469.1734 0.0000 0.0000 1777.2715 -7618.5637 298.1212 -9395.8352 -7618.7985 301.3319 47.7629 117.3002 30648.5478 -188.3590 -120.0274
ENERGY: 1500000 1.6653 3.1724 0.1030 0.0000 -10934.5781 1542.9369 0.0000 0.0000 1808.9483 -7577.7521 303.4347 -9386.7004 -7626.1764 300.8425 728.6850 769.6177 30853.3617 -114.9605 -49.5832
TCL: Running FEP window   6: Lambda1 0.25   Lambda2 0.3    [dLambda 0.04999999999999999]
TCL: Setting parameter firsttimestep to 0
TCL: Setting parameter alchLambda to 0.25
Info: NONBONDED TABLE R-SQUARED SPACING: 0.0625
Info: NONBONDED TABLE SIZE: 705 POINTS
TCL: Setting parameter alchLambda2 to 0.3
Info: NONBONDED TABLE R-SQUARED SPACING: 0.0625
Info: NONBONDED TABLE SIZE: 705 POINTS
TCL: Running for 1500000 steps
ETITLE: TS BOND ANGLE DIHED IMPRP ELECT VDW BOUNDARY MISC KINETIC TOTAL TEMP POTENTIAL TOTALAVG TEMPAVG PRESSURE GPRESSURE VOLUME PRESSAVG GPRESSAVG
ENERGY: 0 1.6653 3.1724 0.1030 0.0000 -10934.5781 1543.1467 0.0000 0.0000 1808.1023 -7578.3882 303.2928 -9386.4906 -7578.3882 303.2928 687.1054 775.9407 30853.3617 687.1054 775.9407
ENERGY: 300000 0.6019 0.8764 0.3205 0.0000 -10925.6296 1497.2509 0.0000 0.0000 1790.5426 -7636.0375 300.3473 -9426.5800 -7666.2069 298.3155 522.0781 582.3289 30235.0718 366.0702 442.7630
ENERGY: 600000 2.0160 1.2346 1.8725 0.0000 -10862.9664 1475.2193 0.0000 0.0000 1763.3335 -7619.2906 295.7833 -9382.6241 -7630.0962 299.1730 58.2014 112.1805 30881.0139 241.6276 315.2157
ENERGY: 900000 2.9510 1.3401 1.8961 0.0000 -10815.2190 1415.7385 0.0000 0.0000 1823.5596 -7569.7337 305.8856 -9393.2933 -7644.4207 299.2066 -359.4089 -282.5692 30767.4223 92.7739 161.4631
ENERGY: 1200000 1.3377 1.2010 1.1057 0.0000 -10941.3263 1527.2229 0.0000 0.0000 1777.6886 -7632.7704 298.1912 -9410.4589 -7639.3325 299.5207 412.1709 497.2993 30890.2330 195.6795 267.7252
ENERGY: 1500000 1.5769 0.6270 0.3313 0.0000 -10837.0557 1377.7146 0.0000 0.0000 1820.1599 -7636.6460 305.3154 -9456.8059 -7635.6911 300.3985 -516.3619 -473.0155 30524.5887 123.7505 195.2562
TCL: Running FEP window   7: Lambda1 0.3    Lambda2 0.35   [dLambda 0.04999999999999999]
TCL: Setting parameter firsttimestep to 0
TCL: Setting parameter alchLambda to 0.3
Info: NONBONDED TABLE R-SQUARED SPACING: 0.0625
Info: NONBONDED TABLE SIZE: 705 POINTS
TCL: Setting parameter alchLambda2 to 0.35
Info: NONBONDED TABLE R-SQUARED SPACING: 0.0625
Info: NONBONDED TABLE SIZE: 705 POINTS
TCL: Running for 1500000 steps
ETITLE: TS BOND ANGLE DIHED IMPRP ELECT VDW BOUNDARY MISC KINETIC TOTAL TEMP POTENTIAL TOTALAVG TEMPAVG PRESSURE GPRESSURE VOLUME PRESSAVG GPRESSAVG
ENERGY: 0 1.5769 0.6270 0.3313 0.0000 -10837.0552 1377.9506 0.0000 0.0000 1819.3021 -7637.2673 305.1715 -9456.5694 -7637.2673 305.1715 -564.3037 -468.9823 30524.5887 -564.3037 -468.9823
ENERGY: 300000 0.7527 1.9227 1.1141 0.0000 -10963.5984 1527.9639 0.0000 0.0000 1813.5893 -7618.2557 304.2132 -9431.8450 -7660.5860 300.0506 466.5157 565.0952 30572.2306 151.0334 217.7867
ENERGY: 600000 1.4078 0.7425 0.3743 0.0000 -10872.8860 1491.0639 0.0000 0.0000 1781.8818 -7597.4157 298.8946 -9379.2975 -7648.7199 299.5429 152.6015 225.5795 31132.4744 20.0946 91.1601
ENERGY: 900000 0.6889 1.1804 0.6691 0.0000 -10755.4636 1354.1876 0.0000 0.0000 1797.6713 -7601.0663 301.5431 -9398.7376 -7643.4052 298.6090 -863.3774 -826.1692 31117.9267 -70.6957 -8.3394
ENERGY: 1200000 1.2461 1.0532 0.9214 0.0000 -10848.7500 1442.5372 0.0000 0.0000 1783.9932 -7618.9989 299.2487 -9402.9920 -7632.1244 299.8177 16.5518 68.5657 30666.4464 -55.2041 -1.0155
ENERGY: 1500000 1.2790 0.2634 2.3753 0.0000 -10808.0189 1429.2251 0.0000 0.0000 1765.1729 -7609.7032 296.0918 -9374.8761 -7640.9411 299.4822 -215.2093 -103.6452 31021.5762 -49.5613 8.1119
TCL: Running FEP window   8: Lambda1 0.35   Lambda2 0.39999999999999997 [dLambda 0.04999999999999999]
TCL: Setting parameter firsttimestep to 0
TCL: Setting parameter alchLambda to 0.35
Info: NONBONDED TABLE R-SQUARED SPACING: 0.0625
Info: NONBONDED TABLE SIZE: 705 POINTS
TCL: Setting parameter alchLambda2 to 0.39999999999999997
Info: NONBONDED TABLE R-SQUARED SPACING: 0.0625
Info: NONBONDED TABLE SIZE: 705 POINTS
TCL: Running for 1500000 steps
ETITLE: TS BOND ANGLE DIHED IMPRP ELECT VDW BOUNDARY MISC KINETIC TOTAL TEMP POTENTIAL TOTALAVG TEMPAVG PRESSURE GPRESSURE VOLUME PRESSAVG GPRESSAVG
ENERGY: 0 1.2790 0.2634 2.3753 0.0000 -10808.0179 1428.7573 0.0000 0.0000 1764.2841 -7611.0588 295.9427 -9375.3429 -7611.0588 295.9427 -195.4718 -103.4295 31021.5762 -195.4718 -103.4295
ENERGY: 300000 2.0923 0.7248 0.9692 0.0000 -11071.4887 1544.5729 0.0000 0.0000 1788.8939 -7734.2357 300.0708 -9523.1296 -7671.4834 299.7390 145.3421 256.8461 31133.6532 -42.1746 57.4451
ENERGY: 600000 1.9243 1.4246 0.7681 0.0000 -10815.8488 1427.5244 0.0000 0.0000 1817.7228 -7566.4846 304.9066 -9384.2074 -7644.5897 301.9147 -274.1013 -151.9203 31095.8540 -209.3042 -115.2617
ENERGY: 900000 2.0580 0.1136 2.0649 0.0000 -10841.6617 1461.6365 0.0000 0.0000 1796.4936 -7579.2952 301.3456 -9375.7887 -7628.2550 301.3132 10.0317 86.2641 30886.5586 -227.5464 -130.3525
ENERGY: 1200000 1.7601 0.2072 0.2671 0.0000 -10995.4412 1556.3074 0.0000 0.0000 1755.1860 -7681.7134 294.4166 -9436.8994 -7639.5595 300.5975 498.8339 587.8259 31185.9693 -142.2186 -53.2986
ENERGY: 1500000 1.4257 0.4762 2.1198 0.0000 -10888.6260 1458.9890 0.0000 0.0000 1768.7303 -7656.8850 296.6885 -9425.6153 -7633.6974 301.0337 -92.6615 -15.3586 30658.3139 -59.3992 25.9597
TCL: Running FEP window   9: Lambda1 0.39999999999999997 Lambda2 0.44999999999999996 [dLambda 0.04999999999999999]
TCL: Setting parameter firsttimestep to 0
TCL: Setting parameter alchLambda to 0.39999999999999997
Info: NONBONDED TABLE R-SQUARED SPACING: 0.0625
Info: NONBONDED TABLE SIZE: 705 POINTS
TCL: Setting parameter alchLambda2 to 0.44999999999999996
Info: NONBONDED TABLE R-SQUARED SPACING: 0.0625
Info: NONBONDED TABLE SIZE: 705 POINTS
TCL: Running for 1500000 steps
ETITLE: TS BOND ANGLE DIHED IMPRP ELECT VDW BOUNDARY MISC KINETIC TOTAL TEMP POTENTIAL TOTALAVG TEMPAVG PRESSURE GPRESSURE VOLUME PRESSAVG GPRESSAVG
ENERGY: 0 1.4257 0.4762 2.1198 0.0000 -10888.6266 1459.2625 0.0000 0.0000 1767.8521 -7657.4902 296.5412 -9425.3423 -7657.4902 296.5412 -93.1063 -7.9510 30658.3139 -93.1063 -7.9510
ENERGY: 300000 3.3999 2.0635 0.3081 0.0000 -11032.6227 1553.0108 0.0000 0.0000 1829.2350 -7644.6053 306.8376 -9473.8403 -7666.5991 299.4173 538.0066 598.3218 30728.2835 89.9816 165.4532
ENERGY: 600000 0.3789 0.9016 0.2973 0.0000 -10898.5873 1397.0332 0.0000 0.0000 1813.9384 -7686.0379 304.2718 -9499.9763 -7657.3687 299.2492 -713.5324 -654.1436 30886.5410 -147.8205 -64.1657
ENERGY: 900000 0.8489 2.1173 0.4126 0.0000 -10737.9308 1313.7199 0.0000 0.0000 1808.1811 -7612.6510 303.3060 -9420.8321 -7656.6254 297.6787 -1299.3064 -1224.4404 31053.6691 -272.2593 -197.0014
ENERGY: 1200000 2.1559 0.3605 1.3949 0.0000 -10897.5418 1484.4548 0.0000 0.0000 1750.7735 -7658.4022 293.6764 -9409.1756 -7651.2090 298.0320 283.9352 379.5924 30876.7443 -257.7069 -178.6416
ENERGY: 1500000 0.9768 0.1666 0.2495 0.0000 -10859.4049 1453.4217 0.0000 0.0000 1768.8258 -7635.7646 296.7045 -9404.5904 -7646.3977 298.6115 14.4356 135.2721 30473.0943 -188.4527 -117.5722
TCL: Running FEP window  10: Lambda1 0.44999999999999996 Lambda2 0.49999999999999994 [dLambda 0.04999999999999999]
TCL: Setting parameter firsttimestep to 0
TCL: Setting parameter alchLambda to 0.44999999999999996
Info: NONBONDED TABLE R-SQUARED SPACING: 0.0625
Info: NONBONDED TABLE SIZE: 705 POINTS
TCL: Setting parameter alchLambda2 to 0.49999999999999994
Info: NONBONDED TABLE R-SQUARED SPACING: 0.0625
Info: NONBONDED TABLE SIZE: 705 POINTS
TCL: Running for 1500000 steps
ETITLE: TS BOND ANGLE DIHED IMPRP ELECT VDW BOUNDARY MISC KINETIC TOTAL TEMP POTENTIAL TOTALAVG TEMPAVG PRESSURE GPRESSURE VOLUME PRESSAVG GPRESSAVG
ENERGY: 0 0.9768 0.1666 0.2495 0.0000 -10859.4052 1453.3413 0.0000 0.0000 1767.9246 -7636.7464 296.5534 -9404.6710 -7636.7464 296.5534 41.0231 141.1479 30473.0943 41.0231 141.1479
ENERGY: 300000 3.2778 0.4551 0.0862 0.0000 -10801.7183 1395.0402 0.0000 0.0000 1798.2426 -7604.6164 301.6389 -9402.8590 -7610.4773 301.4587 -960.3701 -783.2642 31555.6311 -257.5222 -188.4542
ENERGY: 600000 2.0870 1.3470 2.3370 0.0000 -10624.3962 1423.5023 0.0000 0.0000 1812.8250 -7382.2978 304.0850 -9195.1228 -7558.7204 302.7039 20.1233 48.6005 31594.1498 53.3582 116.3240
ENERGY: 900000 3.7056 0.1312 1.4811 0.0000 -10794.9035 1373.3619 0.0000 0.0000 1824.7118 -7591.5119 306.0789 -9416.2237 -7599.5154 300.7543 -499.2888 -445.2818 30435.0038 -54.5813 5.5405
ENERGY: 1200000 1.9344 0.6927 0.4779 0.0000 -10832.1897 1419.1161 0.0000 0.0000 1709.4865 -7700.4821 286.7509 -9409.9686 -7618.7370 299.2688 -651.5948 -632.6866 31279.4725 -65.2271 -7.3200
ENERGY: 1500000 0.5225 0.6924 1.5396 0.0000 -10839.8700 1419.0725 0.0000 0.0000 1794.8500 -7623.1930 301.0699 -9418.0430 -7617.7306 299.9187 -253.8792 -247.5490 31040.9383 -147.7512 -91.0977
TCL: Running FEP window  11: Lambda1 0.49999999999999994 Lambda2 0.5499999999999999 [dLambda 0.04999999999999999]
TCL: Setting parameter firsttimestep to 0
TCL: Setting parameter alchLambda to 0.49999999999999994
Info: NONBONDED TABLE R-SQUARED SPACING: 0.0625
Info: NONBONDED TABLE SIZE: 705 POINTS
TCL: Setting parameter alchLambda2 to 0.5499999999999999
Info: NONBONDED TABLE R-SQUARED SPACING: 0.0625
Info: NONBONDED TABLE SIZE: 705 POINTS
TCL: Running for 1500000 steps
ETITLE: TS BOND ANGLE DIHED IMPRP ELECT VDW BOUNDARY MISC KINETIC TOTAL TEMP POTENTIAL TOTALAVG TEMPAVG PRESSURE GPRESSURE VOLUME PRESSAVG GPRESSAVG
ENERGY: 0 0.5225 0.6924 1.5396 0.0000 -10839.8702 1419.5207 0.0000 0.0000 1793.9447 -7623.6503 300.9180 -9417.5951 -7623.6503 300.9180 -328.0756 -238.6738 31040.9383 -328.0756 -238.6738
ENERGY: 300000 1.1077 0.9631 2.2987 0.0000 -10867.8552 1394.8276 0.0000 0.0000 1794.3015 -7674.3566 300.9779 -9468.6581 -7655.0865 296.3482 -692.4796 -621.9666 31053.8115 -677.8242 -592.4243
ENERGY: 600000 0.4691 0.7447 0.9226 0.0000 -10973.1621 1519.0065 0.0000 0.0000 1766.3193 -7685.7000 296.2841 -9452.0193 -7650.1700 297.2196 399.5419 443.7118 30832.9840 -470.0621 -403.8024
ENERGY: 900000 0.5927 0.4848 0.2556 0.0000 -10823.3262 1413.8722 0.0000 0.0000 1806.7699 -7601.3512 303.0693 -9408.1210 -7638.3226 298.6397 -430.7255 -338.4966 31118.3135 -537.9814 -470.6305
ENERGY: 1200000 0.5040 1.2968 0.3423 0.0000 -10929.3009 1466.3405 0.0000 0.0000 1825.1462 -7635.6710 306.1518 -9460.8173 -7633.0865 299.3822 -228.9967 -83.8061 31058.2798 -459.8107 -390.3666
ENERGY: 1500000 1.0955 0.2165 0.5720 0.0000 -10844.8983 1447.6707 0.0000 0.0000 1810.0829 -7585.2607 303.6251 -9395.3436 -7633.6734 299.8607 -79.2357 12.7663 31083.2602 -428.0628 -353.0474
TCL: Running FEP window  12: Lambda1 0.5499999999999999 Lambda2 0.6    [dLambda 0.050000000000000044]
TCL: Setting parameter firsttimestep to 0
TCL: Setting parameter alchLambda to 0.5499999999999999
Info: NONBONDED TABLE R-SQUARED SPACING: 0.0625
Info: NONBONDED TABLE SIZE: 705 POINTS
TCL: Setting parameter alchLambda2 to 0.6
Info: NONBONDED TABLE R-SQUARED SPACING: 0.0625
Info: NONBONDED TABLE SIZE: 705 POINTS
TCL: Running for 1500000 steps
ETITLE: TS BOND ANGLE DIHED IMPRP ELECT VDW BOUNDARY MISC KINETIC TOTAL TEMP POTENTIAL TOTALAVG TEMPAVG PRESSURE GPRESSURE VOLUME PRESSAVG GPRESSAVG
ENERGY: 0 1.0955 0.2165 0.5720 0.0000 -10844.9195 1447.6505 0.0000 0.0000 1809.2359 -7586.1492 303.4830 -9395.3851 -7586.1492 303.4830 -65.2391 20.4146 31083.2602 -65.2391 20.4146
ENERGY: 300000 0.3337 1.6034 1.5814 0.0000 -10815.3028 1377.0063 0.0000 0.0000 1758.0966 -7676.6814 294.9048 -9434.7780 -7624.1829 302.2295 -1050.6066 -1026.3812 31642.9375 -305.5739 -245.1173
ENERGY: 600000 0.7310 4.2348 0.9931 0.0000 -10838.4487 1440.0306 0.0000 0.0000 1791.1561 -7601.3032 300.4502 -9392.4593 -7611.0001 302.6917 -325.3195 -231.0847 31279.4568 -156.4229 -79.8835
ENERGY: 900000 1.6404 0.7802 0.1353 0.0000 -11045.5997 1514.0407 0.0000 0.0000 1765.3070 -7763.6961 296.1143 -9529.0031 -7629.0214 301.9293 197.0082 360.9069 30275.2565 15.0346 95.0802
ENERGY: 1200000 0.6329 0.5048 0.1065 0.0000 -10760.5902 1363.1167 0.0000 0.0000 1825.4611 -7570.7682 306.2046 -9396.2293 -7626.0053 301.1435 -736.9563 -577.9734 30966.5340 -19.8162 65.3510
ENERGY: 1500000 0.5070 0.7167 0.4446 0.0000 -10933.8186 1489.1760 0.0000 0.0000 1833.6655 -7609.3088 307.5808 -9442.9743 -7621.8282 301.5391 38.2155 73.5294 31026.5681 -66.2449 12.8768
TCL: Running FEP window  13: Lambda1 0.6    Lambda2 0.65   [dLambda 0.050000000000000044]
TCL: Setting parameter firsttimestep to 0
TCL: Setting parameter alchLambda to 0.6
Info: NONBONDED TABLE R-SQUARED SPACING: 0.0625
Info: NONBONDED TABLE SIZE: 705 POINTS
TCL: Setting parameter alchLambda2 to 0.65
Info: NONBONDED TABLE R-SQUARED SPACING: 0.0625
Info: NONBONDED TABLE SIZE: 705 POINTS
TCL: Running for 1500000 steps
ETITLE: TS BOND ANGLE DIHED IMPRP ELECT VDW BOUNDARY MISC KINETIC TOTAL TEMP POTENTIAL TOTALAVG TEMPAVG PRESSURE GPRESSURE VOLUME PRESSAVG GPRESSAVG
ENERGY: 0 0.5070 0.7167 0.4446 0.0000 -10933.8216 1489.2231 0.0000 0.0000 1832.7926 -7610.1375 307.4344 -9442.9301 -7610.1375 307.4344 8.9908 80.8054 31026.5681 8.9908 80.8054
ENERGY: 300000 1.2648 2.6103 1.8444 0.0000 -10873.5023 1448.6870 0.0000 0.0000 1789.6713 -7629.4244 300.2012 -9419.0957 -7611.8203 301.3699 -176.8147 -122.4001 31188.6326 42.8169 138.2489
ENERGY: 600000 2.9642 1.4980 0.4572 0.0000 -10884.8085 1456.9886 0.0000 0.0000 1749.5712 -7673.3293 293.4748 -9422.9006 -7612.8819 302.3674 -27.9896 13.0490 30654.1782 76.9529 152.7276
ENERGY: 900000 1.2074 1.2051 0.7656 0.0000 -11043.8742 1506.1030 0.0000 0.0000 1799.9284 -7734.6647 301.9217 -9534.5931 -7643.7358 302.0945 222.0260 282.1164 30490.2641 43.8619 125.9419
ENERGY: 1200000 1.9946 0.4424 0.5823 0.0000 -10816.4451 1399.3850 0.0000 0.0000 1812.2791 -7601.7617 303.9934 -9414.0408 -7633.8352 302.3798 -604.5538 -589.0559 31593.6128 -1.4166 73.1155
ENERGY: 1500000 1.9302 1.2664 0.3897 0.0000 -10788.9083 1398.0358 0.0000 0.0000 1846.0863 -7541.2000 309.6643 -9387.2863 -7636.4312 302.2756 -529.2962 -389.2946 31154.7570 -35.6150 42.9852
TCL: Running FEP window  14: Lambda1 0.65   Lambda2 0.7000000000000001 [dLambda 0.050000000000000044]
TCL: Setting parameter firsttimestep to 0
TCL: Setting parameter alchLambda to 0.65
Info: NONBONDED TABLE R-SQUARED SPACING: 0.0625
Info: NONBONDED TABLE SIZE: 705 POINTS
TCL: Setting parameter alchLambda2 to 0.7000000000000001
Info: NONBONDED TABLE R-SQUARED SPACING: 0.0625
Info: NONBONDED TABLE SIZE: 705 POINTS
TCL: Running for 1500000 steps
ETITLE: TS BOND ANGLE DIHED IMPRP ELECT VDW BOUNDARY MISC KINETIC TOTAL TEMP POTENTIAL TOTALAVG TEMPAVG PRESSURE GPRESSURE VOLUME PRESSAVG GPRESSAVG
ENERGY: 0 1.9302 1.2664 0.3897 0.0000 -10788.9244 1397.4048 0.0000 0.0000 1845.1754 -7542.7581 309.5115 -9387.9334 -7542.7581 309.5115 -491.1369 -388.8486 31154.7570 -491.1369 -388.8486
ENERGY: 300000 0.5816 0.1811 1.6662 0.0000 -10852.4907 1392.5479 0.0000 0.0000 1795.1562 -7662.3576 301.1212 -9457.5138 -7610.0896 301.9406 -700.1816 -653.1048 30974.9374 -457.1742 -403.0677
ENERGY: 600000 1.9005 2.8864 0.9230 0.0000 -10861.2887 1385.1030 0.0000 0.0000 1749.0653 -7721.4105 293.3899 -9470.4758 -7627.7480 300.2990 -898.5274 -796.9907 31059.1804 -422.2473 -358.7958
ENERGY: 900000 0.4338 2.4294 0.1138 0.0000 -10872.7178 1500.2777 0.0000 0.0000 1767.7255 -7601.7376 296.5200 -9369.4631 -7636.2716 299.0319 361.4192 380.6361 31154.2006 -289.1039 -227.4818
ENERGY: 1200000 2.1047 1.9586 1.4083 0.0000 -10803.6618 1460.0167 0.0000 0.0000 1807.2884 -7530.8851 303.1563 -9338.1735 -7634.7856 298.9389 539.3598 516.6350 30854.3082 -158.8010 -100.8579
ENERGY: 1500000 2.2536 1.8686 1.5936 0.0000 -10893.2980 1470.6460 0.0000 0.0000 1787.2604 -7629.6758 299.7968 -9416.9362 -7626.3516 299.4806 17.0173 35.5909 31016.2648 -149.4419 -93.3690
TCL: Running FEP window  15: Lambda1 0.7000000000000001 Lambda2 0.7500000000000001 [dLambda 0.050000000000000044]
TCL: Setting parameter firsttimestep to 0
TCL: Setting parameter alchLambda to 0.7000000000000001
Info: NONBONDED TABLE R-SQUARED SPACING: 0.0625
Info: NONBONDED TABLE SIZE: 705 POINTS
TCL: Setting parameter alchLambda2 to 0.7500000000000001
Info: NONBONDED TABLE R-SQUARED SPACING: 0.0625
Info: NONBONDED TABLE SIZE: 705 POINTS
TCL: Running for 1500000 steps
ETITLE: TS BOND ANGLE DIHED IMPRP ELECT VDW BOUNDARY MISC KINETIC TOTAL TEMP POTENTIAL TOTALAVG TEMPAVG PRESSURE GPRESSURE VOLUME PRESSAVG GPRESSAVG
ENERGY: 0 2.2536 1.8686 1.5936 0.0000 -10893.3500 1471.4183 0.0000 0.0000 1786.3621 -7629.8537 299.6461 -9416.2158 -7629.8537 299.6461 -35.7776 49.5878 31016.2648 -35.7776 49.5878
ENERGY: 300000 1.0334 1.2767 2.3914 0.0000 -10933.8715 1504.7629 0.0000 0.0000 1865.9170 -7558.4901 312.9907 -9424.4071 -7586.6679 304.3313 515.9710 563.3253 30614.2328 -151.3309 -113.8610
ENERGY: 600000 2.3216 0.5408 1.7683 0.0000 -10932.1064 1513.0769 0.0000 0.0000 1871.6678 -7542.7310 313.9554 -9414.3987 -7602.8702 303.5330 448.7804 476.1760 30969.7792 72.6096 106.2197
ENERGY: 900000 1.2154 1.0566 0.6339 0.0000 -10855.6536 1457.4371 0.0000 0.0000 1840.3142 -7554.9964 308.6961 -9395.3105 -7596.5948 304.8296 16.6521 47.5829 30929.0661 -25.8218 7.7657
ENERGY: 1200000 1.6883 0.7576 2.7956 0.0000 -10936.3983 1498.9181 0.0000 0.0000 1842.5100 -7589.7287 309.0644 -9432.2386 -7585.4418 305.4180 305.9534 333.0241 30880.9573 23.7587 59.8625
ENERGY: 1500000 1.5163 1.6192 1.1634 0.0000 -10865.5170 1457.8361 0.0000 0.0000 1825.6056 -7577.7766 306.2288 -9403.3821 -7583.1339 306.0232 46.3570 129.5500 30871.5769 15.4398 55.0259
TCL: Running FEP window  16: Lambda1 0.7500000000000001 Lambda2 0.8000000000000002 [dLambda 0.050000000000000044]
TCL: Setting parameter firsttimestep to 0
TCL: Setting parameter alchLambda to 0.7500000000000001
Info: NONBONDED TABLE R-SQUARED SPACING: 0.0625
Info: NONBONDED TABLE SIZE: 705 POINTS
TCL: Setting parameter alchLambda2 to 0.8000000000000002
Info: NONBONDED TABLE R-SQUARED SPACING: 0.0625
Info: NONBONDED TABLE SIZE: 705 POINTS
TCL: Running for 1500000 steps
ETITLE: TS BOND ANGLE DIHED IMPRP ELECT VDW BOUNDARY MISC KINETIC TOTAL TEMP POTENTIAL TOTALAVG TEMPAVG PRESSURE GPRESSURE VOLUME PRESSAVG GPRESSAVG
ENERGY: 0 1.5163 1.6192 1.1634 0.0000 -10865.5218 1457.8993 0.0000 0.0000 1824.7225 -7578.6012 306.0807 -9403.3237 -7578.6012 306.0807 60.8751 137.5783 30871.5769 60.8751 137.5783
ENERGY: 300000 0.8776 0.6630 0.3023 0.0000 -10973.0689 1495.2517 0.0000 0.0000 1785.9987 -7689.9756 299.5851 -9475.9743 -7634.6661 302.7197 -123.7523 -47.7918 31141.1978 327.3558 394.6649
ENERGY: 600000 2.9931 0.1709 0.9984 0.0000 -10863.6332 1417.6703 0.0000 0.0000 1766.7203 -7675.0803 296.3514 -9441.8006 -7637.5376 302.5137 -692.9907 -684.8797 31657.5506 277.0240 326.6727
ENERGY: 900000 0.8182 1.9205 0.0386 0.0000 -10888.8939 1419.4276 0.0000 0.0000 1762.5024 -7704.1866 295.6438 -9466.6890 -7639.4305 301.3441 -339.3519 -225.9600 30555.8181 183.4729 246.4629
ENERGY: 1200000 1.5598 0.8316 1.5533 0.0000 -10919.0480 1459.5200 0.0000 0.0000 1796.9770 -7658.6063 301.4267 -9455.5833 -7634.6285 301.6772 -222.7236 -145.3773 30942.8581 151.6979 216.3932
ENERGY: 1500000 1.1610 1.6448 0.0324 0.0000 -10827.1157 1424.4312 0.0000 0.0000 1814.6640 -7585.1824 304.3935 -9399.8464 -7637.0908 301.9614 -697.2344 -567.8577 31328.8404 50.4244 115.9105
TCL: Running FEP window  17: Lambda1 0.8000000000000002 Lambda2 0.8500000000000002 [dLambda 0.050000000000000044]
TCL: Setting parameter firsttimestep to 0
TCL: Setting parameter alchLambda to 0.8000000000000002
Info: NONBONDED TABLE R-SQUARED SPACING: 0.0625
Info: NONBONDED TABLE SIZE: 705 POINTS
TCL: Setting parameter alchLambda2 to 0.8500000000000002
Info: NONBONDED TABLE R-SQUARED SPACING: 0.0625
Info: NONBONDED TABLE SIZE: 705 POINTS
TCL: Running for 1500000 steps
ETITLE: TS BOND ANGLE DIHED IMPRP ELECT VDW BOUNDARY MISC KINETIC TOTAL TEMP POTENTIAL TOTALAVG TEMPAVG PRESSURE GPRESSURE VOLUME PRESSAVG GPRESSAVG
ENERGY: 0 1.1610 1.6448 0.0324 0.0000 -10827.1322 1424.1629 0.0000 0.0000 1813.7758 -7586.3554 304.2445 -9400.1312 -7586.3554 304.2445 -646.1849 -563.5991 31328.8404 -646.1849 -563.5991
ENERGY: 300000 4.4651 0.8104 1.5836 0.0000 -10835.6253 1488.1295 0.0000 0.0000 1750.4332 -7590.2035 293.6194 -9340.6367 -7611.7505 301.1545 454.9078 530.1912 30956.4796 280.3049 347.9943
ENERGY: 600000 2.5590 1.4332 0.7412 0.0000 -10863.5375 1512.9773 0.0000 0.0000 1761.2830 -7584.5439 295.4393 -9345.8268 -7612.9313 299.0048 396.9956 511.1809 31105.1615 279.6699 351.6987
ENERGY: 900000 1.5121 0.7362 0.8944 0.0000 -10813.1951 1440.9987 0.0000 0.0000 1797.4649 -7571.5888 301.5085 -9369.0538 -7607.6797 300.8247 -59.6034 -5.7600 31295.9748 168.7638 235.4101
ENERGY: 1200000 1.2767 0.2486 0.3022 0.0000 -10936.2667 1478.7304 0.0000 0.0000 1779.9134 -7675.7953 298.5644 -9455.7087 -7614.2908 300.1059 -40.4813 10.2084 31014.2030 109.9442 174.7966
ENERGY: 1500000 0.5863 0.3746 2.2721 0.0000 -10981.7535 1514.3969 0.0000 0.0000 1836.1847 -7627.9389 308.0034 -9464.1236 -7609.9051 301.7683 401.0796 370.4241 31103.0284 215.7607 272.6378
TCL: Running FEP window  18: Lambda1 0.8500000000000002 Lambda2 0.9000000000000002 [dLambda 0.050000000000000044]
TCL: Setting parameter firsttimestep to 0
TCL: Setting parameter alchLambda to 0.8500000000000002
Info: NONBONDED TABLE R-SQUARED SPACING: 0.0625
Info: NONBONDED TABLE SIZE: 705 POINTS
TCL: Setting parameter alchLambda2 to 0.9000000000000002
Info: NONBONDED TABLE R-SQUARED SPACING: 0.0625
Info: NONBONDED TABLE SIZE: 705 POINTS
TCL: Running for 1500000 steps
ETITLE: TS BOND ANGLE DIHED IMPRP ELECT VDW BOUNDARY MISC KINETIC TOTAL TEMP POTENTIAL TOTALAVG TEMPAVG PRESSURE GPRESSURE VOLUME PRESSAVG GPRESSAVG
ENERGY: 0 0.5863 0.3746 2.2721 0.0000 -10981.7103 1514.0999 0.0000 0.0000 1835.3118 -7629.0656 307.8570 -9464.3774 -7629.0656 307.8570 299.3614 377.1297 31103.0284 299.3614 377.1297
ENERGY: 300000 1.0886 0.8163 2.0053 0.0000 -10871.5607 1461.1281 0.0000 0.0000 1816.7895 -7589.7328 304.7500 -9406.5223 -7623.3490 303.8440 416.3378 493.1121 30336.1833 82.9021 164.3932
ENERGY: 600000 2.0150 0.0815 0.4877 0.0000 -10932.8868 1480.3193 0.0000 0.0000 1827.0066 -7622.9769 306.4638 -9449.9834 -7612.3264 304.1022 66.2966 136.8397 31192.5805 -4.1373 64.8986
ENERGY: 900000 0.8733 0.4893 0.1146 0.0000 -10848.9263 1406.0038 0.0000 0.0000 1801.7726 -7639.6727 302.2311 -9441.4452 -7632.4047 302.3343 -298.5750 -196.1232 30753.9152 -87.8957 -20.3719
ENERGY: 1200000 1.6890 1.2546 0.3781 0.0000 -10903.7883 1481.7940 0.0000 0.0000 1816.0776 -7602.5950 304.6306 -9418.6727 -7621.7435 302.7928 333.9246 426.3685 30557.7150 -54.4896 16.2967
ENERGY: 1500000 2.1757 0.0740 0.7066 0.0000 -11051.1140 1567.2545 0.0000 0.0000 1831.4994 -7649.4039 307.2175 -9480.9033 -7630.7253 303.0629 855.3863 882.5937 30724.0632 39.5050 101.8032
TCL: Running FEP window  19: Lambda1 0.9000000000000002 Lambda2 0.9500000000000003 [dLambda 0.050000000000000044]
TCL: Setting parameter firsttimestep to 0
TCL: Setting parameter alchLambda to 0.9000000000000002
Info: NONBONDED TABLE R-SQUARED SPACING: 0.0625
Info: NONBONDED TABLE SIZE: 705 POINTS
TCL: Setting parameter alchLambda2 to 0.9500000000000003
Info: NONBONDED TABLE R-SQUARED SPACING: 0.0625
Info: NONBONDED TABLE SIZE: 705 POINTS
TCL: Running for 1500000 steps
ETITLE: TS BOND ANGLE DIHED IMPRP ELECT VDW BOUNDARY MISC KINETIC TOTAL TEMP POTENTIAL TOTALAVG TEMPAVG PRESSURE GPRESSURE VOLUME PRESSAVG GPRESSAVG
ENERGY: 0 2.1757 0.0740 0.7066 0.0000 -11051.1451 1567.1111 0.0000 0.0000 1830.5900 -7650.4879 307.0649 -9481.0778 -7650.4879 307.0649 806.5345 887.3861 30724.0632 806.5345 887.3861
ENERGY: 300000 0.8489 1.2573 1.2491 0.0000 -10858.7668 1431.5155 0.0000 0.0000 1802.6665 -7621.2295 302.3810 -9423.8960 -7642.0367 303.1449 -310.3430 -184.1066 30876.0273 89.7284 166.2242
ENERGY: 600000 1.0667 0.7735 0.1011 0.0000 -10934.7641 1501.7366 0.0000 0.0000 1773.2589 -7657.8271 297.4482 -9431.0861 -7646.6014 302.3316 224.1463 292.8915 31007.7730 29.3088 94.3904
ENERGY: 900000 1.0584 0.7140 0.9615 0.0000 -10829.4864 1414.5857 0.0000 0.0000 1765.9588 -7646.2080 296.2236 -9412.1668 -7650.1639 301.4581 -445.6725 -322.2966 31057.6890 -129.6214 -52.6023
ENERGY: 1200000 0.6947 3.2874 0.5629 0.0000 -10851.3635 1453.3408 0.0000 0.0000 1760.2535 -7633.2242 295.2666 -9393.4777 -7634.3899 301.1482 113.1614 165.0350 30751.5274 -78.0413 -8.3277
ENERGY: 1500000 1.4416 0.3058 0.0494 0.0000 -10745.0394 1388.1902 0.0000 0.0000 1806.7600 -7548.2925 303.0677 -9355.0525 -7624.9650 301.8770 -522.5287 -457.0056 31443.1153 -121.6815 -55.0806
TCL: Running FEP window  20: Lambda1 0.9500000000000003 Lambda2 1.0    [dLambda 0.04999999999999971]
TCL: Setting parameter firsttimestep to 0
TCL: Setting parameter alchLambda to 0.9500000000000003
Info: NONBONDED TABLE R-SQUARED SPACING: 0.0625
Info: NONBONDED TABLE SIZE: 705 POINTS
TCL: Setting parameter alchLambda2 to 1.0
Info: NONBONDED TABLE R-SQUARED SPACING: 0.0625
Info: NONBONDED TABLE SIZE: 705 POINTS
TCL: Running for 1500000 steps
ETITLE: TS BOND ANGLE DIHED IMPRP ELECT VDW BOUNDARY MISC KINETIC TOTAL TEMP POTENTIAL TOTALAVG TEMPAVG PRESSURE GPRESSURE VOLUME PRESSAVG GPRESSAVG
ENERGY: 0 1.4416 0.3058 0.0494 0.0000 -10745.0387 1387.9129 0.0000 0.0000 1805.9172 -7549.4119 302.9263 -9355.3291 -7549.4119 302.9263 -553.6112 -451.6081 31443.1153 -553.6112 -451.6081
ENERGY: 300000 1.4615 0.6670 0.5970 0.0000 -11017.9839 1578.4503 0.0000 0.0000 1809.8616 -7626.9464 303.5879 -9436.8080 -7599.3015 302.4796 1024.6911 1009.1615 30747.4480 182.5933 252.3192
ENERGY: 600000 1.1459 1.5108 0.6098 0.0000 -10802.8266 1392.1471 0.0000 0.0000 1785.8020 -7621.6109 299.5522 -9407.4129 -7607.8808 300.9648 -623.0033 -602.3689 31298.7180 20.3683 78.0411
ENERGY: 900000 0.7792 0.5777 1.2102 0.0000 -10719.5770 1370.9684 0.0000 0.0000 1851.0704 -7494.9712 310.5003 -9346.0416 -7598.2341 301.6934 -565.7216 -528.1188 31272.3214 15.7342 75.9324
ENERGY: 1200000 2.6409 2.3985 0.3772 0.0000 -10818.1905 1441.0972 0.0000 0.0000 1803.6289 -7568.0477 302.5425 -9371.6766 -7603.8972 301.4495 -121.3025 -56.3696 31252.1999 22.1794 80.1689
ENERGY: 1500000 0.8279 2.1055 0.1956 0.0000 -10901.2387 1440.6380 0.0000 0.0000 1716.4574 -7741.0143 287.9202 -9457.4718 -7619.3184 300.1326 -349.6566 -226.0034 31080.8545 -11.1388 53.3796
TCL: Exiting due to exit command.
