Info: SIMULATION PARAMETERS:
Info: TIMESTEP               2
Info: NUMBER OF STEPS        0
Info: STEPS PER CYCLE        10
Info: PERIODIC CELL BASIS 1  36.005 0 0
Info: PERIODIC CELL BASIS 2  0 33.314 0
Info: PERIODIC CELL BASIS 3  0 0 37.195
Info: PERIODIC CELL CENTER   0 0 0
Info: WRAPPING WATERS AROUND PERIODIC BOUNDARIES ON OUTPUT.
Info: WRAPPING ALL CLUSTERS AROUND PERIODIC BOUNDARIES ON OUTPUT.
Info: FIRST LDB TIMESTEP     50
Info: LAST LDB TIMESTEP     -1
Info: HOM BACKGROUND SCALING 1
Info: PME BACKGROUND SCALING 1
Info: MIN ATOMS PER PATCH    40
Info: EMPTY PATCH LOAD       40 ATOMS
Info: INITIAL TEMPERATURE    300
Info: CENTER OF MASS MOVING INITIALLY? NO
Info: DIELECTRIC             1
Info: EXCLUDE                SCALED ONE-FOUR
Info: 1-4 ELECTROSTATICS SCALED BY 0.833333
Info: MODIFIED 1-4 VDW PARAMETERS WILL BE USED
Info: DCD FILENAME           mobley_6195751_equil.dcd
Info: DCD FREQUENCY          100000
Info: DCD FIRST STEP         100000
Info: DCD FILE WILL CONTAIN UNIT CELL DATA
Info: XST FILENAME           mobley_6195751_equil.xst
Info: XST FREQUENCY          100000
Info: NO VELOCITY DCD OUTPUT
Info: NO FORCE DCD OUTPUT
Info: OUTPUT FILENAME        mobley_6195751_equil
Info: BINARY OUTPUT FILES WILL BE USED
Info: RESTART FILENAME       mobley_6195751_equil.restart
Info: RESTART FREQUENCY      100000
Info: BINARY RESTART FILES WILL BE USED
Info: CUTOFF                 9
Info: PAIRLIST DISTANCE      11
Info: PAIRLIST SHRINK RATE   0.01
Info: PAIRLIST GROW RATE     0.01
Info: PAIRLIST TRIGGER       0.3
Info: PAIRLISTS PER CYCLE    2
Info: PAIRLISTS ENABLED
Info: MARGIN                 8
Info: HYDROGEN GROUP CUTOFF  2.5
Info: PATCH DIMENSION        21.5
Info: ENERGY OUTPUT STEPS    100000
Info: ENERGY EVALUATION STEPS    100000
Info: OUTPUT ENERGY PRECISION 4
Info: CROSSTERM ENERGY INCLUDED IN DIHEDRAL
Info: TIMING OUTPUT STEPS    1000000
Info: PRESSURE OUTPUT STEPS  100000
Info: LANGEVIN DYNAMICS ACTIVE
Info: LANGEVIN TEMPERATURE   30
Info: LANGEVIN USING BBK INTEGRATOR
Info: LANGEVIN DAMPING COEFFICIENT IS 1 INVERSE PS
Info: LANGEVIN DYNAMICS APPLIED TO HYDROGENS
Info: LANGEVIN PISTON PRESSURE CONTROL ACTIVE
Info:        TARGET PRESSURE IS 1.01325 BAR
Info:     OSCILLATION PERIOD IS 50 FS
Info:             DECAY TIME IS 25 FS
Info:     PISTON TEMPERATURE IS 300 K
Info:       PRESSURE CONTROL IS GROUP-BASED
Info:    INITIAL STRAIN RATE IS 0 0 0
Info:       CELL FLUCTUATION IS ISOTROPIC
Info: PARTICLE MESH EWALD (PME) ACTIVE
Info: PME TOLERANCE               1e-06
Info: PME EWALD COEFFICIENT       0.348832
Info: PME INTERPOLATION ORDER     4
Info: PME GRID DIMENSIONS         40 36 40
Info: PME MAXIMUM GRID SPACING    1
Info: FULL ELECTROSTATIC EVALUATION FREQUENCY      2
Info: USING VERLET I (r-RESPA) MTS SCHEME.
Info: C1 SPLITTING OF LONG RANGE ELECTROSTATICS
Info: PLACING ATOMS IN PATCHES BY HYDROGEN GROUPS
Info: RIGID BONDS TO HYDROGEN : ALL
Info:         ERROR TOLERANCE : 1e-08
Info:          MAX ITERATIONS : 100
Info: RIGID WATER USING SETTLE ALGORITHM
Info: RANDOM NUMBER SEED     1743252100
Info: USE HYDROGEN BONDS?    NO
Info: Using AMBER format force field!
Info: AMBER PARM FILE        mobley_6195751.prmtop
Info: COORDINATE PDB         mobley_6195751.pdb
Info: Exclusions will be read from PARM file!
Info: SCNB (VDW SCALING)     2
Info: USING ARITHMETIC MEAN TO COMBINE L-J SIGMA PARAMETERS
Info: BINARY COORDINATES     mobley_6195751_min.coor
Info: SUMMARY OF PARAMETERS:
Info: 12 BONDS
Info: 12 ANGLES
Info:   12 HARMONIC
Info:   0 COSINE-BASED
Info: 6 DIHEDRAL
Info: 0 IMPROPER
Info: 0 CROSSTERM
Info: 0 VDW
Info: 55 VDW_PAIRS
Info: 0 NBTHOLE_PAIRS
Info: STRUCTURE SUMMARY:
Info: 2951 ATOMS
Info: 2951 BONDS
Info: 36 ANGLES
Info: 47 DIHEDRALS
Info: 0 IMPROPERS
Info: 0 CROSSTERMS
Info: 3024 EXCLUSIONS
Info: 2936 RIGID BONDS
Info: 5917 DEGREES OF FREEDOM
Info: 991 HYDROGEN GROUPS
Info: 4 ATOMS IN LARGEST HYDROGEN GROUP
Info: 991 MIGRATION GROUPS
Info: 4 ATOMS IN LARGEST MIGRATION GROUP
Info: TOTAL MASS = 17834.7 amu
Info: TOTAL CHARGE = -3.1665e-08 e
Info: MASS DENSITY = 0.66382 g/cm^3
Info: ATOM DENSITY = 0.0661447 atoms/A^3
Info: ADDED 0 IMPLICIT EXCLUSIONS
Info: NONBONDED TABLE R-SQUARED SPACING: 0.0625
Info: NONBONDED TABLE SIZE: 705 POINTS
Info: REMOVING COM VELOCITY 0.00209171 -0.103499 0.0458172
TCL: Running for 100000 steps
ETITLE: TS BOND ANGLE DIHED IMPRP ELECT VDW BOUNDARY MISC KINETIC TOTAL TEMP POTENTIAL TOTAL3 TEMPAVG PRESSURE GPRESSURE VOLUME PRESSAVG GPRESSAVG
ENERGY: 0 0.5187 0.5031 11.4517 0.0000 -13617.5135 2388.1823 0.0000 0.0000 1805.4466 -9411.4112 307.0955 -11216.8577 -9411.0622 307.0955 459.5865 484.7471 44614.3079 459.5865 484.7471
ENERGY: 100000 1.7653 1.2769 8.2712 0.0000 -14111.5366 2412.9270 0.0000 0.0000 178.8058 -11508.4906 30.4138 -11687.2963 -11507.9833 30.9359 -334.5666 -280.2447 28934.4930 4.1916 4.2526
TCL: Running 100000 steps at 60 kelvin.
TCL: Setting parameter langevinTemp to 60
TCL: Running for 100000 steps
ETITLE: TS BOND ANGLE DIHED IMPRP ELECT VDW BOUNDARY MISC KINETIC TOTAL TEMP POTENTIAL TOTAL3 TEMPAVG PRESSURE GPRESSURE VOLUME PRESSAVG GPRESSAVG
ENERGY: 100000 1.7653 1.2769 8.2712 0.0000 -14111.5366 2412.9270 0.0000 0.0000 178.7153 -11508.5810 30.3984 -11687.2963 -11508.2595 30.3984 -329.5413 -280.0921 28934.4930 -329.5413 -280.0921
ENERGY: 200000 3.9869 1.4739 10.0491 0.0000 -13901.9572 2261.5360 0.0000 0.0000 350.3195 -11274.5919 59.5872 -11624.9113 -11273.7803 59.9706 -1699.8462 -1609.2934 29378.0176 4.5879 4.6769
TCL: Running 100000 steps at 90 kelvin.
TCL: Setting parameter langevinTemp to 90
TCL: Running for 100000 steps
ETITLE: TS BOND ANGLE DIHED IMPRP ELECT VDW BOUNDARY MISC KINETIC TOTAL TEMP POTENTIAL TOTAL3 TEMPAVG PRESSURE GPRESSURE VOLUME PRESSAVG GPRESSAVG
ENERGY: 200000 3.9869 1.4739 10.0491 0.0000 -13901.9572 2261.5360 0.0000 0.0000 350.1388 -11274.7725 59.5565 -11624.9113 -11273.8551 59.5565 -1663.1000 -1609.4376 29378.0176 -1663.1000 -1609.4376
ENERGY: 300000 1.8955 3.1828 8.8430 0.0000 -13783.4157 2292.5048 0.0000 0.0000 541.9881 -10935.0015 92.1889 -11476.9896 -10933.0448 90.0960 -571.3317 -521.7032 28896.7055 3.6047 3.6475
TCL: Running 100000 steps at 120 kelvin.
TCL: Setting parameter langevinTemp to 120
TCL: Running for 100000 steps
ETITLE: TS BOND ANGLE DIHED IMPRP ELECT VDW BOUNDARY MISC KINETIC TOTAL TEMP POTENTIAL TOTAL3 TEMPAVG PRESSURE GPRESSURE VOLUME PRESSAVG GPRESSAVG
ENERGY: 300000 1.8955 3.1828 8.8430 0.0000 -13783.4157 2292.5048 0.0000 0.0000 541.7286 -10935.2610 92.1447 -11476.9896 -10934.1581 92.1447 -592.1609 -521.1036 28896.7055 -592.1609 -521.1036
ENERGY: 400000 2.9891 2.5812 12.1153 0.0000 -13735.4117 2320.8650 0.0000 0.0000 727.2207 -10669.6404 123.6958 -11396.8611 -10667.6846 119.9903 104.4104 172.3401 28663.3439 3.2950 3.2261
TCL: Running 100000 steps at 150 kelvin.
TCL: Setting parameter langevinTemp to 150
TCL: Running for 100000 steps
ETITLE: TS BOND ANGLE DIHED IMPRP ELECT VDW BOUNDARY MISC KINETIC TOTAL TEMP POTENTIAL TOTAL3 TEMPAVG PRESSURE GPRESSURE VOLUME PRESSAVG GPRESSAVG
ENERGY: 400000 2.9891 2.5812 12.1153 0.0000 -13735.4117 2320.8650 0.0000 0.0000 726.8735 -10669.9875 123.6368 -11396.8611 -10668.4605 123.6368 117.8284 172.2985 28663.3439 117.8284 172.2985
ENERGY: 500000 3.1045 2.4706 13.4219 0.0000 -13396.7631 2160.6287 0.0000 0.0000 922.3298 -10294.8077 156.8827 -11217.1375 -10292.7517 150.2761 -581.3592 -561.2949 28909.7533 3.6592 3.8113
TCL: Running 100000 steps at 180 kelvin.
TCL: Setting parameter langevinTemp to 180
TCL: Running for 100000 steps
ETITLE: TS BOND ANGLE DIHED IMPRP ELECT VDW BOUNDARY MISC KINETIC TOTAL TEMP POTENTIAL TOTAL3 TEMPAVG PRESSURE GPRESSURE VOLUME PRESSAVG GPRESSAVG
ENERGY: 500000 3.1045 2.4706 13.4219 0.0000 -13396.7631 2160.6287 0.0000 0.0000 921.9251 -10295.2124 156.8139 -11217.1375 -10293.2011 156.8139 -604.0488 -561.7416 28909.7533 -604.0488 -561.7416
ENERGY: 600000 9.9619 2.8670 11.6663 0.0000 -12940.2316 2001.6176 0.0000 0.0000 1064.5259 -9849.5929 181.0694 -10914.1188 -9846.8605 180.0709 -1041.3121 -947.0359 29045.1249 3.0816 3.1120
TCL: Running 100000 steps at 210 kelvin.
TCL: Setting parameter langevinTemp to 210
TCL: Running for 100000 steps
ETITLE: TS BOND ANGLE DIHED IMPRP ELECT VDW BOUNDARY MISC KINETIC TOTAL TEMP POTENTIAL TOTAL3 TEMPAVG PRESSURE GPRESSURE VOLUME PRESSAVG GPRESSAVG
ENERGY: 600000 9.9619 2.8670 11.6663 0.0000 -12940.2316 2001.6176 0.0000 0.0000 1064.0108 -9850.1080 180.9818 -10914.1188 -9847.9427 180.9818 -1017.5082 -946.4672 29045.1249 -1017.5082 -946.4672
ENERGY: 700000 3.8240 6.5455 9.2124 0.0000 -12303.4313 1827.1396 0.0000 0.0000 1215.1621 -9241.5475 206.6917 -10456.7096 -9238.3651 209.8191 -272.4613 -166.9005 28403.6711 2.8809 3.0340
TCL: Running 100000 steps at 240 kelvin.
TCL: Setting parameter langevinTemp to 240
TCL: Running for 100000 steps
ETITLE: TS BOND ANGLE DIHED IMPRP ELECT VDW BOUNDARY MISC KINETIC TOTAL TEMP POTENTIAL TOTAL3 TEMPAVG PRESSURE GPRESSURE VOLUME PRESSAVG GPRESSAVG
ENERGY: 700000 3.8240 6.5455 9.2124 0.0000 -12303.4313 1827.1396 0.0000 0.0000 1214.5324 -9242.1773 206.5846 -10456.7096 -9239.7665 206.5846 -234.1894 -165.7754 28403.6711 -234.1894 -165.7754
ENERGY: 800000 6.9255 4.5168 13.1498 0.0000 -11671.5898 1611.4163 0.0000 0.0000 1406.3636 -8629.2178 239.2139 -10035.5814 -8624.9753 239.4313 -851.5507 -791.3947 29299.6681 3.0929 3.1138
TCL: Running 100000 steps at 270 kelvin.
TCL: Setting parameter langevinTemp to 270
TCL: Running for 100000 steps
ETITLE: TS BOND ANGLE DIHED IMPRP ELECT VDW BOUNDARY MISC KINETIC TOTAL TEMP POTENTIAL TOTAL3 TEMPAVG PRESSURE GPRESSURE VOLUME PRESSAVG GPRESSAVG
ENERGY: 800000 6.9255 4.5168 13.1498 0.0000 -11671.5898 1611.4163 0.0000 0.0000 1405.6493 -8629.9321 239.0924 -10035.5814 -8627.5925 239.0924 -883.4513 -791.2701 29299.6681 -883.4513 -791.2701
ENERGY: 900000 8.1632 6.6144 10.1890 0.0000 -11163.6810 1603.9601 0.0000 0.0000 1573.0294 -7961.7248 267.5628 -9534.7543 -7960.4060 269.3981 475.6308 550.8785 29524.6411 2.2569 2.3702
TCL: Running 1000000 steps at 300 kelvin.
TCL: Setting parameter langevinTemp to 300
TCL: Running for 1000000 steps
ETITLE: TS BOND ANGLE DIHED IMPRP ELECT VDW BOUNDARY MISC KINETIC TOTAL TEMP POTENTIAL TOTAL3 TEMPAVG PRESSURE GPRESSURE VOLUME PRESSAVG GPRESSAVG
ENERGY: 900000 8.1632 6.6144 10.1890 0.0000 -11163.6810 1603.9601 0.0000 0.0000 1572.2149 -7962.5393 267.4242 -9534.7543 -7959.9239 267.4242 465.8354 550.2381 29524.6411 465.8354 550.2381
ENERGY: 1100000 6.7265 5.6316 10.0554 0.0000 -10712.2225 1466.3255 0.0000 0.0000 1745.7573 -7477.7261 296.9427 -9223.4834 -7473.5669 300.1731 -19.4003 52.1802 30604.2453 4.9536 4.8580
ENERGY: 1300000 5.3541 7.1109 11.9082 0.0000 -10659.2205 1428.0152 0.0000 0.0000 1774.9781 -7431.8541 301.9130 -9206.8321 -7428.1768 300.4717 -8.0253 58.2356 30655.7996 3.1050 2.9987
ENERGY: 1500000 5.6973 7.8237 10.7213 0.0000 -10532.9401 1324.4500 0.0000 0.0000 1830.5589 -7353.6889 311.3670 -9184.2478 -7351.2999 300.7118 -743.5732 -682.4741 30467.4893 3.2696 3.2114
ENERGY: 1700000 4.6239 7.0622 8.9736 0.0000 -10643.2060 1460.4791 0.0000 0.0000 1752.1614 -7409.9059 298.0320 -9162.0673 -7407.8390 300.2560 396.6619 518.0841 30469.8061 2.7709 2.8931
ENERGY: 1900000 3.8426 5.2368 8.2089 0.0000 -10518.0693 1401.5063 0.0000 0.0000 1775.4656 -7323.8092 301.9959 -9099.2748 -7320.8967 300.2984 38.2859 117.9075 30664.1869 2.9884 3.0134
TCL: Exiting due to exit command.
