Info: SIMULATION PARAMETERS:
Info: TIMESTEP               2
Info: NUMBER OF STEPS        0
Info: STEPS PER CYCLE        10
Info: PERIODIC CELL BASIS 1  30.889 0 0
Info: PERIODIC CELL BASIS 2  0 31.5675 0
Info: PERIODIC CELL BASIS 3  0 0 31.3354
Info: PERIODIC CELL CENTER   0 0 0
Info: WRAPPING WATERS AROUND PERIODIC BOUNDARIES ON OUTPUT.
Info: WRAPPING ALL CLUSTERS AROUND PERIODIC BOUNDARIES ON OUTPUT.
Info: FIRST LDB TIMESTEP     50
Info: LAST LDB TIMESTEP     -1
Info: HOM BACKGROUND SCALING 1
Info: PME BACKGROUND SCALING 1
Info: MIN ATOMS PER PATCH    40
Info: EMPTY PATCH LOAD       40 ATOMS
Info: VELOCITY FILE          mobley_7532833_equil.vel
Info: CENTER OF MASS MOVING INITIALLY? NO
Info: DIELECTRIC             1
Info: EXCLUDE                SCALED ONE-FOUR
Info: 1-4 ELECTROSTATICS SCALED BY 0.833333
Info: MODIFIED 1-4 VDW PARAMETERS WILL BE USED
Info: DCD FILENAME           mobley_7532833_prod.dcd
Info: DCD FREQUENCY          100000
Info: DCD FIRST STEP         100000
Info: DCD FILE WILL CONTAIN UNIT CELL DATA
Info: XST FILENAME           mobley_7532833_prod.xst
Info: XST FREQUENCY          100000
Info: NO VELOCITY DCD OUTPUT
Info: NO FORCE DCD OUTPUT
Info: OUTPUT FILENAME        mobley_7532833_prod
Info: BINARY OUTPUT FILES WILL BE USED
Info: RESTART FILENAME       mobley_7532833_prod.restart
Info: RESTART FREQUENCY      100000
Info: BINARY RESTART FILES WILL BE USED
Info: CUTOFF                 9
Info: PAIRLIST DISTANCE      11
Info: PAIRLIST SHRINK RATE   0.01
Info: PAIRLIST GROW RATE     0.01
Info: PAIRLIST TRIGGER       0.3
Info: PAIRLISTS PER CYCLE    2
Info: PAIRLISTS ENABLED
Info: MARGIN                 2
Info: HYDROGEN GROUP CUTOFF  2.5
Info: PATCH DIMENSION        15.5
Info: ENERGY OUTPUT STEPS    100000
Info: ENERGY EVALUATION STEPS    100000
Info: OUTPUT ENERGY PRECISION 4
Info: CROSSTERM ENERGY INCLUDED IN DIHEDRAL
Info: TIMING OUTPUT STEPS    1000000
Info: PRESSURE OUTPUT STEPS  100000
Info: ALCHEMICAL FEP ON
Info: FEP CURRENT LAMBDA VALUE     0
Info: FEP COMPARISON LAMBDA VALUE  0.05
Info: FEP INTRA-ALCHEMICAL NON-BONDED INTERACTIONS WILL BE RETAINED
Info: FEP INTRA-ALCHEMICAL BONDED INTERACTIONS WILL BE RETAINED
Info: FEP VDW SHIFTING COEFFICIENT 5
Info: FEP ELEC. ACTIVE FOR ANNIHILATED PARTICLES BETWEEN LAMBDA = 0 AND LAMBDA = 0.5
Info: FEP ELEC. ACTIVE FOR EXNIHILATED PARTICLES BETWEEN LAMBDA = 0.5 AND LAMBDA = 1
Info: FEP VDW ACTIVE FOR ANNIHILATED PARTICLES BETWEEN LAMBDA = 0 AND LAMBDA = 1
Info: FEP VDW ACTIVE FOR EXNIHILATED PARTICLES BETWEEN LAMBDA = 0 AND LAMBDA = 1
Info: FEP BOND ACTIVE FOR ANNIHILATED PARTICLES BETWEEN LAMBDA = 1 AND LAMBDA = 1
Info: FEP BOND ACTIVE FOR EXNIHILATED PARTICLES BETWEEN LAMBDA = 0 AND LAMBDA = 0
Info: LANGEVIN DYNAMICS ACTIVE
Info: LANGEVIN TEMPERATURE   300
Info: LANGEVIN USING BBK INTEGRATOR
Info: LANGEVIN DAMPING COEFFICIENT IS 1 INVERSE PS
Info: LANGEVIN DYNAMICS APPLIED TO HYDROGENS
Info: LANGEVIN PISTON PRESSURE CONTROL ACTIVE
Info:        TARGET PRESSURE IS 1.01325 BAR
Info:     OSCILLATION PERIOD IS 50 FS
Info:             DECAY TIME IS 25 FS
Info:     PISTON TEMPERATURE IS 300 K
Info:       PRESSURE CONTROL IS GROUP-BASED
Info:    INITIAL STRAIN RATE IS 0.000516786 0.000516786 0.000516786
Info:       CELL FLUCTUATION IS ISOTROPIC
Info: PARTICLE MESH EWALD (PME) ACTIVE
Info: PME TOLERANCE               1e-06
Info: PME EWALD COEFFICIENT       0.348832
Info: PME INTERPOLATION ORDER     4
Info: PME GRID DIMENSIONS         32 32 32
Info: PME MAXIMUM GRID SPACING    1
Info: PME CALCULATION WILL BE PERFORMED ON GPU
Info: FULL ELECTROSTATIC EVALUATION FREQUENCY      2
Info: USING VERLET I (r-RESPA) MTS SCHEME.
Info: C1 SPLITTING OF LONG RANGE ELECTROSTATICS
Info: PLACING ATOMS IN PATCHES BY HYDROGEN GROUPS
Info: RIGID BONDS TO HYDROGEN : ALL
Info:         ERROR TOLERANCE : 1e-08
Info:          MAX ITERATIONS : 100
Info: RIGID WATER USING SETTLE ALGORITHM
Info: RANDOM NUMBER SEED     1743471398
Info: USE HYDROGEN BONDS?    NO
Info: Using AMBER format force field!
Info: AMBER PARM FILE        mobley_7532833.prmtop
Info: COORDINATE PDB         mobley_7532833.pdb
Info: Exclusions will be read from PARM file!
Info: SCNB (VDW SCALING)     2
Info: USING ARITHMETIC MEAN TO COMBINE L-J SIGMA PARAMETERS
Info: BINARY COORDINATES     mobley_7532833_equil.coor
Info: SUMMARY OF PARAMETERS:
Info: 5 BONDS
Info: 3 ANGLES
Info:   3 HARMONIC
Info:   0 COSINE-BASED
Info: 1 DIHEDRAL
Info: 0 IMPROPER
Info: 0 CROSSTERM
Info: 0 VDW
Info: 21 VDW_PAIRS
Info: 0 NBTHOLE_PAIRS
Info: To read alchdata from file: mobley_7532833.pdb
Info: To read alchflag data from column: 5
Info: STRUCTURE SUMMARY:
Info: 2958 ATOMS
Info: 2957 BONDS
Info: 7 ANGLES
Info: 3 DIHEDRALS
Info: 0 IMPROPERS
Info: 0 CROSSTERMS
Info: 2967 EXCLUSIONS
Info: 2955 RIGID BONDS
Info: ALCH: 0 ATOMS TO DISAPPEAR IN FINAL STATE
Info: ALCH: 6 ATOMS TO APPEAR IN FINAL STATE
Info: 5919 DEGREES OF FREEDOM
Info: 987 HYDROGEN GROUPS
Info: 4 ATOMS IN LARGEST HYDROGEN GROUP
Info: 987 MIGRATION GROUPS
Info: 4 ATOMS IN LARGEST MIGRATION GROUP
Info: TOTAL MASS = 17768.8 amu
Info: TOTAL CHARGE = 0.000100002 e
Info: MASS DENSITY = 0.965693 g/cm^3
Info: ATOM DENSITY = 0.0968099 atoms/A^3
Info: ADDED 0 IMPLICIT EXCLUSIONS
Info: NONBONDED TABLE R-SQUARED SPACING: 0.0625
Info: NONBONDED TABLE SIZE: 705 POINTS
Info: REMOVING COM VELOCITY -0.208626 0.0517668 -0.0804482
Info: Use 3D box decompostion in PME FFT.
Info: Updated CUDA force table with 4096 elements.
Info: Updated CUDA LJ table with 6 x 6 elements.
Info: Found 8 unique exclusion lists needing 8 bytes
TCL: Running for 1500000 steps
ETITLE: TS BOND ANGLE DIHED IMPRP ELECT VDW BOUNDARY MISC KINETIC TOTAL TEMP POTENTIAL TOTALAVG TEMPAVG PRESSURE GPRESSURE VOLUME PRESSAVG GPRESSAVG
ENERGY: 0 1.5196 1.2841 0.0000 0.0000 -10693.6601 1404.7910 0.0000 0.0000 1755.0754 -7530.9900 298.4268 -9286.0653 -7530.9900 298.4268 -503.2462 -409.8989 30554.7171 -503.2462 -409.8989
ENERGY: 300000 0.3016 2.6351 0.0000 0.0000 -10671.6712 1375.7676 0.0000 0.0000 1729.5968 -7563.3702 294.0945 -9292.9670 -7550.7501 296.6196 -536.7751 -441.7732 30220.6393 -417.5403 -328.6681
ENERGY: 600000 0.6603 3.4914 0.0000 0.0000 -10742.1166 1449.0797 0.0000 0.0000 1736.3227 -7552.5625 295.2382 -9288.8852 -7541.9858 299.8960 156.7664 248.1705 30153.7594 -314.4573 -238.2983
ENERGY: 900000 0.0736 1.8222 0.0000 0.0000 -10782.0771 1446.0028 0.0000 0.0000 1722.2713 -7611.9073 292.8489 -9334.1785 -7550.8998 299.2584 -269.1377 -230.2898 30669.2338 -238.0963 -166.0286
ENERGY: 1200000 0.3716 1.2157 0.0000 0.0000 -10651.2235 1366.8441 0.0000 0.0000 1707.3953 -7575.3967 290.3194 -9282.7920 -7558.9837 298.4894 -555.7204 -403.2042 29975.1079 -220.5577 -145.6929
ENERGY: 1500000 0.2020 3.1460 0.0000 0.0000 -10702.8018 1394.1872 0.0000 0.0000 1822.1714 -7483.0953 309.8356 -9305.2667 -7558.4188 298.8489 -256.6907 -225.5976 30238.6360 -163.5146 -93.8101
TCL: Running FEP window   2: Lambda1 0.05   Lambda2 0.1    [dLambda 0.05  ]
TCL: Setting parameter firsttimestep to 0
TCL: Setting parameter alchLambda to 0.05
Info: NONBONDED TABLE R-SQUARED SPACING: 0.0625
Info: NONBONDED TABLE SIZE: 705 POINTS
TCL: Setting parameter alchLambda2 to 0.1
Info: NONBONDED TABLE R-SQUARED SPACING: 0.0625
Info: NONBONDED TABLE SIZE: 705 POINTS
TCL: Running for 1500000 steps
ETITLE: TS BOND ANGLE DIHED IMPRP ELECT VDW BOUNDARY MISC KINETIC TOTAL TEMP POTENTIAL TOTALAVG TEMPAVG PRESSURE GPRESSURE VOLUME PRESSAVG GPRESSAVG
ENERGY: 0 0.2020 3.1460 0.0000 0.0000 -10702.8032 1397.4757 0.0000 0.0000 1821.3155 -7480.6641 309.6900 -9301.9796 -7480.6641 309.6900 -296.1699 -218.6741 30238.6360 -296.1699 -218.6741
ENERGY: 300000 3.5456 2.0771 0.0000 0.0000 -10648.6238 1370.0024 0.0000 0.0000 1836.4124 -7436.5863 312.2571 -9272.9986 -7484.7402 304.1867 -789.8165 -640.9893 30509.9486 -417.5278 -331.0813
ENERGY: 600000 2.0172 1.2367 0.0000 0.0000 -10726.4310 1445.7903 0.0000 0.0000 1746.1111 -7531.2756 296.9025 -9277.3868 -7521.1377 301.5421 -25.3394 45.1659 30439.1680 -107.0104 -18.2231
ENERGY: 900000 0.4841 0.7679 0.0000 0.0000 -10643.8552 1517.0101 0.0000 0.0000 1757.1845 -7368.4087 298.7854 -9125.5932 -7523.6963 300.5919 738.0328 817.1937 31135.9440 -27.5930 53.8143
ENERGY: 1200000 0.0849 2.2950 0.0000 0.0000 -10741.4469 1409.9435 0.0000 0.0000 1797.6756 -7531.4478 305.6704 -9329.1234 -7537.2620 300.3996 -304.4731 -219.2920 30206.1480 -39.4802 41.5691
ENERGY: 1500000 0.4576 3.2844 0.0000 0.0000 -10939.7238 1618.7804 0.0000 0.0000 1803.9562 -7513.2451 306.7383 -9317.2013 -7531.6056 301.6461 1382.1552 1471.4437 30225.9525 36.7889 113.7586
TCL: Running FEP window   3: Lambda1 0.1    Lambda2 0.15000000000000002 [dLambda 0.05000000000000002]
TCL: Setting parameter firsttimestep to 0
TCL: Setting parameter alchLambda to 0.1
Info: NONBONDED TABLE R-SQUARED SPACING: 0.0625
Info: NONBONDED TABLE SIZE: 705 POINTS
TCL: Setting parameter alchLambda2 to 0.15000000000000002
Info: NONBONDED TABLE R-SQUARED SPACING: 0.0625
Info: NONBONDED TABLE SIZE: 705 POINTS
TCL: Running for 1500000 steps
ETITLE: TS BOND ANGLE DIHED IMPRP ELECT VDW BOUNDARY MISC KINETIC TOTAL TEMP POTENTIAL TOTALAVG TEMPAVG PRESSURE GPRESSURE VOLUME PRESSAVG GPRESSAVG
ENERGY: 0 0.4576 3.2844 0.0000 0.0000 -10939.7225 1620.3801 0.0000 0.0000 1803.1202 -7512.4803 306.5962 -9315.6004 -7512.4803 306.5962 1405.8272 1477.1224 30225.9525 1405.8272 1477.1224
ENERGY: 300000 0.1292 2.3203 0.0000 0.0000 -10742.1939 1412.5090 0.0000 0.0000 1698.9219 -7628.3135 288.8787 -9327.2354 -7517.0312 300.4653 -409.1798 -329.8406 30169.8040 -142.3838 -97.1476
ENERGY: 600000 2.8113 1.5626 0.0000 0.0000 -10674.5334 1463.3561 0.0000 0.0000 1808.8700 -7397.9333 307.5739 -9206.8033 -7501.4541 301.5460 294.2666 417.1132 30358.7628 -180.6801 -109.7189
ENERGY: 900000 0.5771 2.0601 0.0000 0.0000 -10620.7211 1398.9874 0.0000 0.0000 1778.5212 -7440.5752 302.4134 -9219.0965 -7496.8362 300.9305 -291.1269 -189.5303 30599.6797 -186.8285 -109.0191
ENERGY: 1200000 0.2269 1.4313 0.0000 0.0000 -10869.1606 1546.9395 0.0000 0.0000 1755.2707 -7565.2921 298.4600 -9320.5628 -7511.2735 300.0846 922.6606 1031.7304 29844.4189 -53.3833 20.0342
ENERGY: 1500000 0.6987 3.5922 0.0000 0.0000 -10647.3339 1358.8571 0.0000 0.0000 1780.4503 -7503.7356 302.7415 -9284.1859 -7517.3182 300.5562 -773.7764 -689.5211 30778.1279 -54.3518 18.3945
TCL: Running FEP window   4: Lambda1 0.15000000000000002 Lambda2 0.2    [dLambda 0.04999999999999999]
TCL: Setting parameter firsttimestep to 0
TCL: Setting parameter alchLambda to 0.15000000000000002
Info: NONBONDED TABLE R-SQUARED SPACING: 0.0625
Info: NONBONDED TABLE SIZE: 705 POINTS
TCL: Setting parameter alchLambda2 to 0.2
Info: NONBONDED TABLE R-SQUARED SPACING: 0.0625
Info: NONBONDED TABLE SIZE: 705 POINTS
TCL: Running for 1500000 steps
ETITLE: TS BOND ANGLE DIHED IMPRP ELECT VDW BOUNDARY MISC KINETIC TOTAL TEMP POTENTIAL TOTALAVG TEMPAVG PRESSURE GPRESSURE VOLUME PRESSAVG GPRESSAVG
ENERGY: 0 0.6987 3.5922 0.0000 0.0000 -10647.3353 1358.8099 0.0000 0.0000 1779.5696 -7504.6649 302.5917 -9284.2345 -7504.6649 302.5917 -787.4346 -687.5863 30778.1279 -787.4346 -687.5863
ENERGY: 300000 0.9668 1.4510 0.0000 0.0000 -10774.4177 1469.3776 0.0000 0.0000 1748.4169 -7554.2054 297.2946 -9302.6223 -7534.2481 302.1579 276.1278 331.2841 30256.5706 4.1471 70.5231
ENERGY: 600000 0.6026 1.1644 0.0000 0.0000 -10779.6638 1468.2681 0.0000 0.0000 1706.9537 -7602.6751 290.2444 -9309.6288 -7545.0534 302.4013 -26.8614 25.6371 30603.9251 -131.4689 -59.4359
ENERGY: 900000 0.0963 2.4400 0.0000 0.0000 -10666.9601 1358.0824 0.0000 0.0000 1745.3504 -7560.9910 296.7732 -9306.3414 -7544.1334 301.6543 -789.8601 -663.7207 30419.7794 -222.8565 -156.8027
ENERGY: 1200000 0.2478 2.2907 0.0000 0.0000 -10742.0852 1402.7723 0.0000 0.0000 1768.2287 -7568.5456 300.6633 -9336.7744 -7548.6312 300.2886 -397.5422 -305.9020 30246.3063 -146.3564 -84.6855
ENERGY: 1500000 0.3851 3.6070 0.0000 0.0000 -10682.6327 1418.8468 0.0000 0.0000 1789.8461 -7469.9477 304.3391 -9259.7938 -7544.3274 300.6482 -138.3942 -72.0483 30423.4198 -142.0666 -81.0801
TCL: Running FEP window   5: Lambda1 0.2    Lambda2 0.25   [dLambda 0.04999999999999999]
TCL: Setting parameter firsttimestep to 0
TCL: Setting parameter alchLambda to 0.2
Info: NONBONDED TABLE R-SQUARED SPACING: 0.0625
Info: NONBONDED TABLE SIZE: 705 POINTS
TCL: Setting parameter alchLambda2 to 0.25
Info: NONBONDED TABLE R-SQUARED SPACING: 0.0625
Info: NONBONDED TABLE SIZE: 705 POINTS
TCL: Running for 1500000 steps
ETITLE: TS BOND ANGLE DIHED IMPRP ELECT VDW BOUNDARY MISC KINETIC TOTAL TEMP POTENTIAL TOTALAVG TEMPAVG PRESSURE GPRESSURE VOLUME PRESSAVG GPRESSAVG
ENERGY: 0 0.3851 3.6070 0.0000 0.0000 -10682.6328 1418.7341 0.0000 0.0000 1788.9578 -7470.9488 304.1880 -9259.9066 -7470.9488 304.1880 -158.3265 -70.9894 30423.4198 -158.3265 -70.9894
ENERGY: 300000 0.2476 2.3045 0.0000 0.0000 -10848.5331 1560.3744 0.0000 0.0000 1745.4336 -7540.1730 296.7873 -9285.6066 -7509.3207 300.0788 694.2165 780.5837 30743.0260 146.2902 213.9122
ENERGY: 600000 0.4133 0.7957 0.0000 0.0000 -10721.7041 1405.9745 0.0000 0.0000 1771.0687 -7543.4520 301.1462 -9314.5206 -7517.1340 300.3957 -142.2524 -28.6048 29889.0326 -73.6605 0.9201
ENERGY: 900000 2.0065 1.7387 0.0000 0.0000 -10794.1810 1489.3517 0.0000 0.0000 1739.4769 -7561.6072 295.7745 -9301.0841 -7541.0310 298.1724 366.4251 466.1058 30103.8764 20.7601 84.7977
ENERGY: 1200000 1.7408 3.0937 0.0000 0.0000 -10577.3532 1379.8208 0.0000 0.0000 1799.7589 -7392.9392 306.0246 -9192.6980 -7530.2170 299.7303 -530.3859 -429.6115 30862.0888 -80.5342 -14.8940
ENERGY: 1500000 0.3869 0.9502 0.0000 0.0000 -10789.6309 1430.5866 0.0000 0.0000 1748.6044 -7609.1026 297.3265 -9357.7071 -7532.9380 299.8360 -396.5799 -283.2676 30449.7741 -103.5466 -37.9924
TCL: Running FEP window   6: Lambda1 0.25   Lambda2 0.3    [dLambda 0.04999999999999999]
TCL: Setting parameter firsttimestep to 0
TCL: Setting parameter alchLambda to 0.25
Info: NONBONDED TABLE R-SQUARED SPACING: 0.0625
Info: NONBONDED TABLE SIZE: 705 POINTS
TCL: Setting parameter alchLambda2 to 0.3
Info: NONBONDED TABLE R-SQUARED SPACING: 0.0625
Info: NONBONDED TABLE SIZE: 705 POINTS
TCL: Running for 1500000 steps
ETITLE: TS BOND ANGLE DIHED IMPRP ELECT VDW BOUNDARY MISC KINETIC TOTAL TEMP POTENTIAL TOTALAVG TEMPAVG PRESSURE GPRESSURE VOLUME PRESSAVG GPRESSAVG
ENERGY: 0 0.3869 0.9502 0.0000 0.0000 -10789.6312 1430.9945 0.0000 0.0000 1747.7094 -7609.5901 297.1743 -9357.2995 -7609.5901 297.1743 -365.9582 -277.6872 30449.7741 -365.9582 -277.6872
ENERGY: 300000 0.6118 2.7475 0.0000 0.0000 -10823.0962 1432.6371 0.0000 0.0000 1806.4116 -7580.6882 307.1558 -9387.0998 -7559.8881 303.1550 -490.3818 -413.4291 30640.2182 -138.4163 -76.3593
ENERGY: 600000 0.9562 0.9169 0.0000 0.0000 -10767.1437 1462.7332 0.0000 0.0000 1721.8619 -7580.6755 292.7793 -9302.5374 -7554.6729 301.9598 156.2062 176.2823 30327.0695 112.2458 164.4793
ENERGY: 900000 0.0404 2.4714 0.0000 0.0000 -10776.8582 1473.7471 0.0000 0.0000 1799.6635 -7500.9358 306.0084 -9300.5993 -7558.9222 301.4002 297.2883 369.2412 30197.6920 152.6932 206.7620
ENERGY: 1200000 0.5664 0.7309 0.0000 0.0000 -10726.3852 1449.0097 0.0000 0.0000 1773.6306 -7502.4475 301.5819 -9276.0781 -7552.2817 301.4194 285.4556 412.3819 29991.0460 222.0970 280.1842
ENERGY: 1500000 0.3623 2.2079 0.0000 0.0000 -10819.3413 1492.5673 0.0000 0.0000 1779.0024 -7545.2014 302.4953 -9324.2039 -7548.2479 301.1342 446.7396 493.2298 30208.6899 188.2429 249.5453
TCL: Running FEP window   7: Lambda1 0.3    Lambda2 0.35   [dLambda 0.04999999999999999]
TCL: Setting parameter firsttimestep to 0
TCL: Setting parameter alchLambda to 0.3
Info: NONBONDED TABLE R-SQUARED SPACING: 0.0625
Info: NONBONDED TABLE SIZE: 705 POINTS
TCL: Setting parameter alchLambda2 to 0.35
Info: NONBONDED TABLE R-SQUARED SPACING: 0.0625
Info: NONBONDED TABLE SIZE: 705 POINTS
TCL: Running for 1500000 steps
ETITLE: TS BOND ANGLE DIHED IMPRP ELECT VDW BOUNDARY MISC KINETIC TOTAL TEMP POTENTIAL TOTALAVG TEMPAVG PRESSURE GPRESSURE VOLUME PRESSAVG GPRESSAVG
ENERGY: 0 0.3623 2.2079 0.0000 0.0000 -10819.3420 1492.8335 0.0000 0.0000 1778.1285 -7545.8098 302.3467 -9323.9383 -7545.8098 302.3467 413.6444 495.7779 30208.6899 413.6444 495.7779
ENERGY: 300000 0.0061 2.3668 0.0000 0.0000 -10771.9372 1496.5442 0.0000 0.0000 1730.6256 -7542.3946 294.2694 -9273.0202 -7539.4554 301.6210 446.6889 500.7606 30396.5969 -93.8801 -32.9326
ENERGY: 600000 0.0456 3.8082 0.0000 0.0000 -10666.5843 1433.0425 0.0000 0.0000 1783.3684 -7446.3196 303.2376 -9229.6879 -7532.6363 302.3143 65.2123 181.2199 30179.3283 -21.9507 44.9216
ENERGY: 900000 0.5069 1.4733 0.0000 0.0000 -10714.2984 1376.5403 0.0000 0.0000 1804.1922 -7531.5857 306.7784 -9335.7779 -7525.7234 302.9561 -553.5527 -500.8516 30591.4310 -179.6360 -120.2688
ENERGY: 1200000 0.8055 1.1672 0.0000 0.0000 -10819.5755 1539.6862 0.0000 0.0000 1723.7000 -7554.2167 293.0918 -9277.9167 -7533.1788 300.9916 727.5759 752.1192 30507.1664 -90.4666 -35.2970
ENERGY: 1500000 2.5369 2.0357 0.0000 0.0000 -10773.0928 1484.2022 0.0000 0.0000 1800.1656 -7484.1523 306.0938 -9284.3179 -7530.5120 301.3180 189.0368 276.3263 30903.8788 -41.4743 12.6331
TCL: Running FEP window   8: Lambda1 0.35   Lambda2 0.39999999999999997 [dLambda 0.04999999999999999]
TCL: Setting parameter firsttimestep to 0
TCL: Setting parameter alchLambda to 0.35
Info: NONBONDED TABLE R-SQUARED SPACING: 0.0625
Info: NONBONDED TABLE SIZE: 705 POINTS
TCL: Setting parameter alchLambda2 to 0.39999999999999997
Info: NONBONDED TABLE R-SQUARED SPACING: 0.0625
Info: NONBONDED TABLE SIZE: 705 POINTS
TCL: Running for 1500000 steps
ETITLE: TS BOND ANGLE DIHED IMPRP ELECT VDW BOUNDARY MISC KINETIC TOTAL TEMP POTENTIAL TOTALAVG TEMPAVG PRESSURE GPRESSURE VOLUME PRESSAVG GPRESSAVG
ENERGY: 0 2.5369 2.0357 0.0000 0.0000 -10773.0924 1484.4681 0.0000 0.0000 1799.2744 -7484.7774 305.9422 -9284.0518 -7484.7774 305.9422 199.5301 281.9704 30903.8788 199.5301 281.9704
ENERGY: 300000 0.0479 1.0056 0.0000 0.0000 -10546.7556 1308.1938 0.0000 0.0000 1766.7071 -7470.8011 300.4046 -9237.5082 -7517.8648 301.2932 -1118.8884 -1097.7174 31083.7968 -373.1951 -342.6867
ENERGY: 600000 0.7606 1.8676 0.0000 0.0000 -10664.1608 1371.7263 0.0000 0.0000 1812.4942 -7477.3121 308.1901 -9289.8063 -7524.9846 302.8066 -506.7400 -471.8078 30660.7574 -174.8257 -148.7356
ENERGY: 900000 0.0035 7.1035 0.0000 0.0000 -10550.8614 1329.5354 0.0000 0.0000 1779.8222 -7434.3967 302.6347 -9214.2189 -7533.5878 301.8435 -768.9779 -672.1193 30672.7654 -252.1729 -210.0469
ENERGY: 1200000 0.0178 2.1750 0.0000 0.0000 -10783.7701 1419.8339 0.0000 0.0000 1744.5558 -7617.1876 296.6381 -9361.7434 -7551.8164 301.4257 -524.2366 -467.2904 30598.8940 -236.9759 -196.1228
ENERGY: 1500000 1.0782 4.0494 0.0000 0.0000 -10717.9580 1456.0537 0.0000 0.0000 1729.5857 -7527.1910 294.0926 -9256.7767 -7548.6182 301.5622 71.6085 174.2196 30642.2987 -198.0772 -148.6184
TCL: Running FEP window   9: Lambda1 0.39999999999999997 Lambda2 0.44999999999999996 [dLambda 0.04999999999999999]
TCL: Setting parameter firsttimestep to 0
TCL: Setting parameter alchLambda to 0.39999999999999997
Info: NONBONDED TABLE R-SQUARED SPACING: 0.0625
Info: NONBONDED TABLE SIZE: 705 POINTS
TCL: Setting parameter alchLambda2 to 0.44999999999999996
Info: NONBONDED TABLE R-SQUARED SPACING: 0.0625
Info: NONBONDED TABLE SIZE: 705 POINTS
TCL: Running for 1500000 steps
ETITLE: TS BOND ANGLE DIHED IMPRP ELECT VDW BOUNDARY MISC KINETIC TOTAL TEMP POTENTIAL TOTALAVG TEMPAVG PRESSURE GPRESSURE VOLUME PRESSAVG GPRESSAVG
ENERGY: 0 1.0781 4.0494 0.0000 0.0000 -10717.9580 1455.9503 0.0000 0.0000 1728.7088 -7528.1714 293.9435 -9256.8802 -7528.1714 293.9435 90.5896 174.0726 30642.2987 90.5896 174.0726
ENERGY: 300000 0.9654 4.2393 0.0000 0.0000 -10770.5779 1481.3699 0.0000 0.0000 1799.6806 -7484.3227 306.0113 -9284.0033 -7549.7235 295.3126 486.3249 529.8962 30222.3863 77.4012 128.1138
ENERGY: 600000 0.3421 1.4908 0.0000 0.0000 -10831.8956 1536.6965 0.0000 0.0000 1749.5792 -7543.7869 297.4922 -9293.3662 -7556.7713 296.6854 745.6725 729.7875 30357.9679 39.6863 87.9845
ENERGY: 900000 0.2895 2.1200 0.0000 0.0000 -10658.7910 1418.5335 0.0000 0.0000 1758.7501 -7479.0979 299.0516 -9237.8480 -7541.3493 297.0420 -101.0892 0.1121 30522.6175 -116.7310 -64.7531
ENERGY: 1200000 3.2474 1.9709 0.0000 0.0000 -10612.4830 1390.8612 0.0000 0.0000 1797.1366 -7419.2669 305.5787 -9216.4036 -7530.2105 298.5512 -121.9051 -8.3096 30134.1650 -249.6759 -188.3634
ENERGY: 1500000 0.3987 1.6033 0.0000 0.0000 -10752.7953 1487.7182 0.0000 0.0000 1857.1137 -7405.9614 315.7770 -9263.0751 -7523.2955 299.6086 408.4472 508.6493 30558.1976 -247.6935 -183.0018
TCL: Running FEP window  10: Lambda1 0.44999999999999996 Lambda2 0.49999999999999994 [dLambda 0.04999999999999999]
TCL: Setting parameter firsttimestep to 0
TCL: Setting parameter alchLambda to 0.44999999999999996
Info: NONBONDED TABLE R-SQUARED SPACING: 0.0625
Info: NONBONDED TABLE SIZE: 705 POINTS
TCL: Setting parameter alchLambda2 to 0.49999999999999994
Info: NONBONDED TABLE R-SQUARED SPACING: 0.0625
Info: NONBONDED TABLE SIZE: 705 POINTS
TCL: Running for 1500000 steps
ETITLE: TS BOND ANGLE DIHED IMPRP ELECT VDW BOUNDARY MISC KINETIC TOTAL TEMP POTENTIAL TOTALAVG TEMPAVG PRESSURE GPRESSURE VOLUME PRESSAVG GPRESSAVG
ENERGY: 0 0.3987 1.6033 0.0000 0.0000 -10752.7944 1487.7977 0.0000 0.0000 1856.2464 -7406.7483 315.6296 -9262.9948 -7406.7483 315.6296 437.0307 513.9752 30558.1976 437.0307 513.9752
ENERGY: 300000 0.4781 2.1701 0.0000 0.0000 -10766.1740 1404.6880 0.0000 0.0000 1744.9821 -7613.8556 296.7106 -9358.8377 -7527.2437 299.5615 -405.6377 -243.1056 29972.2958 -85.1077 -15.2416
ENERGY: 600000 0.1092 1.5086 0.0000 0.0000 -10789.5567 1472.8877 0.0000 0.0000 1811.1071 -7503.9441 307.9542 -9315.0512 -7523.1701 300.3252 357.2378 355.0921 30191.4300 -161.8234 -91.7375
ENERGY: 900000 0.1995 1.2594 0.0000 0.0000 -10730.9488 1430.3883 0.0000 0.0000 1835.5733 -7463.5284 312.1144 -9299.1016 -7527.7638 302.2870 -98.0428 -45.2801 30741.6410 -86.0717 -7.6179
ENERGY: 1200000 1.9522 2.8520 0.0000 0.0000 -10767.3889 1442.6897 0.0000 0.0000 1768.7346 -7551.1603 300.7494 -9319.8949 -7530.5225 301.7816 -42.5271 94.3454 30215.6647 -97.4449 -19.2352
ENERGY: 1500000 1.6853 3.6806 0.0000 0.0000 -10730.7273 1452.7831 0.0000 0.0000 1762.1778 -7510.4006 299.6345 -9272.5784 -7533.6743 301.3614 258.8251 325.2584 30214.1735 17.6713 93.5802
TCL: Running FEP window  11: Lambda1 0.49999999999999994 Lambda2 0.5499999999999999 [dLambda 0.04999999999999999]
TCL: Setting parameter firsttimestep to 0
TCL: Setting parameter alchLambda to 0.49999999999999994
Info: NONBONDED TABLE R-SQUARED SPACING: 0.0625
Info: NONBONDED TABLE SIZE: 705 POINTS
TCL: Setting parameter alchLambda2 to 0.5499999999999999
Info: NONBONDED TABLE R-SQUARED SPACING: 0.0625
Info: NONBONDED TABLE SIZE: 705 POINTS
TCL: Running for 1500000 steps
ETITLE: TS BOND ANGLE DIHED IMPRP ELECT VDW BOUNDARY MISC KINETIC TOTAL TEMP POTENTIAL TOTALAVG TEMPAVG PRESSURE GPRESSURE VOLUME PRESSAVG GPRESSAVG
ENERGY: 0 1.6853 3.6806 0.0000 0.0000 -10730.7287 1452.5722 0.0000 0.0000 1761.3340 -7511.4566 299.4910 -9272.7906 -7511.4566 299.4910 258.3302 325.7598 30214.1735 258.3302 325.7598
ENERGY: 300000 0.5230 1.8458 0.0000 0.0000 -10645.3060 1422.1684 0.0000 0.0000 1771.5080 -7449.2608 301.2209 -9220.7688 -7491.4871 303.1833 -24.1425 95.6296 30494.6487 -304.6489 -257.1629
ENERGY: 600000 0.4633 0.4140 0.0000 0.0000 -10656.5911 1383.1415 0.0000 0.0000 1738.4797 -7534.0926 295.6049 -9272.5723 -7510.5352 301.3024 -352.9002 -299.0022 30561.5989 -278.3744 -225.9210
ENERGY: 900000 0.2281 1.5654 0.0000 0.0000 -10658.3609 1388.7162 0.0000 0.0000 1795.1653 -7472.6859 305.2436 -9267.8512 -7510.7353 301.3837 -183.3914 -118.4395 30396.2390 -158.6291 -102.3202
ENERGY: 1200000 0.3771 4.7923 0.0000 0.0000 -10789.1063 1496.2474 0.0000 0.0000 1763.0181 -7524.6714 299.7774 -9287.6895 -7507.1125 302.1696 178.1026 262.4797 30685.4291 -89.0298 -31.8544
ENERGY: 1500000 0.1233 0.6064 0.0000 0.0000 -10762.6926 1443.6142 0.0000 0.0000 1843.4435 -7474.9053 313.4526 -9318.3488 -7511.6950 302.2608 16.3913 94.7965 30477.5500 -82.2001 -21.0486
TCL: Running FEP window  12: Lambda1 0.5499999999999999 Lambda2 0.6    [dLambda 0.050000000000000044]
TCL: Setting parameter firsttimestep to 0
TCL: Setting parameter alchLambda to 0.5499999999999999
Info: NONBONDED TABLE R-SQUARED SPACING: 0.0625
Info: NONBONDED TABLE SIZE: 705 POINTS
TCL: Setting parameter alchLambda2 to 0.6
Info: NONBONDED TABLE R-SQUARED SPACING: 0.0625
Info: NONBONDED TABLE SIZE: 705 POINTS
TCL: Running for 1500000 steps
ETITLE: TS BOND ANGLE DIHED IMPRP ELECT VDW BOUNDARY MISC KINETIC TOTAL TEMP POTENTIAL TOTALAVG TEMPAVG PRESSURE GPRESSURE VOLUME PRESSAVG GPRESSAVG
ENERGY: 0 0.1233 0.6064 0.0000 0.0000 -10762.5732 1444.9663 0.0000 0.0000 1842.5638 -7474.3135 313.3030 -9316.8772 -7474.3135 313.3030 15.7786 109.3358 30477.5500 15.7786 109.3358
ENERGY: 300000 0.2675 2.0118 0.0000 0.0000 -10971.9434 1530.9845 0.0000 0.0000 1761.2923 -7677.3874 299.4839 -9438.6797 -7545.3917 303.1769 251.6214 320.8636 30135.2244 -95.5983 -42.4366
ENERGY: 600000 0.7629 1.7593 0.0000 0.0000 -10703.1681 1410.6472 0.0000 0.0000 1755.8648 -7534.1339 298.5610 -9289.9987 -7532.5680 300.7962 -453.0446 -348.8014 30675.5450 -5.1119 48.1123
ENERGY: 900000 0.2470 1.0454 0.0000 0.0000 -10794.7407 1460.8249 0.0000 0.0000 1718.6619 -7613.9614 292.2352 -9332.6233 -7561.0576 298.4710 -182.0222 -144.8050 30710.5006 26.8692 76.7758
ENERGY: 1200000 0.4411 1.9569 0.0000 0.0000 -10525.4375 1316.6302 0.0000 0.0000 1768.2249 -7438.1844 300.6627 -9206.4093 -7551.7455 297.9068 -637.2592 -598.2991 30390.0055 28.7098 74.8286
ENERGY: 1500000 0.7868 1.5054 0.0000 0.0000 -10777.9230 1506.8751 0.0000 0.0000 1715.9208 -7552.8350 291.7691 -9268.7558 -7554.3352 297.4830 659.8410 762.8845 30210.5890 37.5314 89.3085
TCL: Running FEP window  13: Lambda1 0.6    Lambda2 0.65   [dLambda 0.050000000000000044]
TCL: Setting parameter firsttimestep to 0
TCL: Setting parameter alchLambda to 0.6
Info: NONBONDED TABLE R-SQUARED SPACING: 0.0625
Info: NONBONDED TABLE SIZE: 705 POINTS
TCL: Setting parameter alchLambda2 to 0.65
Info: NONBONDED TABLE R-SQUARED SPACING: 0.0625
Info: NONBONDED TABLE SIZE: 705 POINTS
TCL: Running for 1500000 steps
ETITLE: TS BOND ANGLE DIHED IMPRP ELECT VDW BOUNDARY MISC KINETIC TOTAL TEMP POTENTIAL TOTALAVG TEMPAVG PRESSURE GPRESSURE VOLUME PRESSAVG GPRESSAVG
ENERGY: 0 0.7868 1.5054 0.0000 0.0000 -10777.6381 1506.7110 0.0000 0.0000 1715.0201 -7553.6148 291.6159 -9268.6350 -7553.6148 291.6159 701.3282 766.2391 30210.5890 701.3282 766.2391
ENERGY: 300000 1.6732 3.7359 0.0000 0.0000 -10814.5920 1463.2061 0.0000 0.0000 1806.5774 -7539.3995 307.1840 -9345.9769 -7571.6860 297.9537 -236.2750 -160.5090 30925.1684 339.0897 403.4892
ENERGY: 600000 0.0354 0.3787 0.0000 0.0000 -10726.7045 1454.3958 0.0000 0.0000 1818.3804 -7453.5142 309.1910 -9271.8946 -7546.9613 300.7279 168.0676 205.1776 30488.5249 176.5007 242.7384
ENERGY: 900000 0.3676 5.0465 0.0000 0.0000 -10832.1484 1435.3837 0.0000 0.0000 1766.1226 -7625.2279 300.3052 -9391.3505 -7545.5244 301.4483 -290.5075 -242.5978 30169.0289 103.1716 173.4442
ENERGY: 1200000 1.4833 3.1784 0.0000 0.0000 -10757.5867 1431.9614 0.0000 0.0000 1751.6158 -7569.3477 297.8385 -9320.9635 -7551.4501 300.7199 -86.9008 -34.5277 30041.0418 13.2660 85.9029
ENERGY: 1500000 0.2204 0.5340 0.0000 0.0000 -10767.2828 1479.0799 0.0000 0.0000 1781.0350 -7506.4135 302.8409 -9287.4486 -7550.7865 300.6073 177.6512 241.5731 30480.4712 62.6834 130.0013
TCL: Running FEP window  14: Lambda1 0.65   Lambda2 0.7000000000000001 [dLambda 0.050000000000000044]
TCL: Setting parameter firsttimestep to 0
TCL: Setting parameter alchLambda to 0.65
Info: NONBONDED TABLE R-SQUARED SPACING: 0.0625
Info: NONBONDED TABLE SIZE: 705 POINTS
TCL: Setting parameter alchLambda2 to 0.7000000000000001
Info: NONBONDED TABLE R-SQUARED SPACING: 0.0625
Info: NONBONDED TABLE SIZE: 705 POINTS
TCL: Running for 1500000 steps
ETITLE: TS BOND ANGLE DIHED IMPRP ELECT VDW BOUNDARY MISC KINETIC TOTAL TEMP POTENTIAL TOTALAVG TEMPAVG PRESSURE GPRESSURE VOLUME PRESSAVG GPRESSAVG
ENERGY: 0 0.2204 0.5339 0.0000 0.0000 -10767.4863 1478.7826 0.0000 0.0000 1780.1794 -7507.7699 302.6954 -9287.9493 -7507.7699 302.6954 163.9044 247.7627 30480.4712 163.9044 247.7627
ENERGY: 300000 0.4057 2.9020 0.0000 0.0000 -10669.2074 1339.3696 0.0000 0.0000 1750.5536 -7575.9766 297.6579 -9326.5301 -7484.4484 304.4535 -1101.2609 -1059.7113 30990.3623 -139.6226 -93.8982
ENERGY: 600000 0.4826 0.5403 0.0000 0.0000 -10615.3003 1382.6329 0.0000 0.0000 1786.8379 -7444.8065 303.8276 -9231.6444 -7494.0960 303.8836 -355.3153 -326.6278 30856.9964 -153.2962 -100.6740
ENERGY: 900000 0.1010 3.2627 0.0000 0.0000 -10605.6873 1319.5061 0.0000 0.0000 1816.9280 -7465.8895 308.9440 -9282.8175 -7500.8935 304.8424 -958.5948 -812.2976 30378.4706 -275.3801 -214.5365
ENERGY: 1200000 0.0250 4.1364 0.0000 0.0000 -10748.3908 1456.6353 0.0000 0.0000 1736.8679 -7550.7262 295.3309 -9287.5941 -7525.4309 303.2955 150.9582 199.2216 30356.4440 -189.6831 -133.5426
ENERGY: 1500000 0.0696 2.2108 0.0000 0.0000 -10552.6386 1340.9131 0.0000 0.0000 1781.2483 -7428.1969 302.8771 -9209.4452 -7516.4319 303.0796 -655.9838 -565.1719 30688.2544 -178.6964 -115.6376
TCL: Running FEP window  15: Lambda1 0.7000000000000001 Lambda2 0.7500000000000001 [dLambda 0.050000000000000044]
TCL: Setting parameter firsttimestep to 0
TCL: Setting parameter alchLambda to 0.7000000000000001
Info: NONBONDED TABLE R-SQUARED SPACING: 0.0625
Info: NONBONDED TABLE SIZE: 705 POINTS
TCL: Setting parameter alchLambda2 to 0.7500000000000001
Info: NONBONDED TABLE R-SQUARED SPACING: 0.0625
Info: NONBONDED TABLE SIZE: 705 POINTS
TCL: Running for 1500000 steps
ETITLE: TS BOND ANGLE DIHED IMPRP ELECT VDW BOUNDARY MISC KINETIC TOTAL TEMP POTENTIAL TOTALAVG TEMPAVG PRESSURE GPRESSURE VOLUME PRESSAVG GPRESSAVG
ENERGY: 0 0.0696 2.2108 0.0000 0.0000 -10552.8540 1340.5522 0.0000 0.0000 1780.3810 -7429.6403 302.7297 -9210.0213 -7429.6403 302.7297 -656.9694 -568.5916 30688.2544 -656.9694 -568.5916
ENERGY: 300000 1.3519 0.6219 0.0000 0.0000 -10656.1847 1428.2362 0.0000 0.0000 1772.1653 -7453.8094 301.3327 -9225.9747 -7476.6186 300.4490 -17.0871 35.0911 30977.2708 -269.2195 -215.1002
ENERGY: 600000 0.3953 1.6155 0.0000 0.0000 -10769.2346 1440.3364 0.0000 0.0000 1750.0814 -7576.8060 297.5776 -9326.8875 -7516.3595 299.3751 -97.4062 -30.8291 30367.8996 -355.4628 -286.3905
ENERGY: 900000 0.9100 1.8840 0.0000 0.0000 -10728.9538 1479.4506 0.0000 0.0000 1773.2138 -7473.4953 301.5110 -9246.7091 -7520.2796 299.7061 714.5032 761.8510 29782.3268 -168.5657 -107.4091
ENERGY: 1200000 0.0799 0.8595 0.0000 0.0000 -10731.1990 1380.7011 0.0000 0.0000 1791.2753 -7558.2833 304.5821 -9349.5586 -7529.4284 300.6853 -576.8022 -518.2882 30403.0334 -204.3692 -148.7998
ENERGY: 1500000 0.2045 2.3075 0.0000 0.0000 -10703.0197 1377.7970 0.0000 0.0000 1800.3438 -7522.3669 306.1241 -9322.7107 -7529.2937 300.5084 -635.8521 -607.2761 30617.5516 -247.0477 -185.6497
TCL: Running FEP window  16: Lambda1 0.7500000000000001 Lambda2 0.8000000000000002 [dLambda 0.050000000000000044]
TCL: Setting parameter firsttimestep to 0
TCL: Setting parameter alchLambda to 0.7500000000000001
Info: NONBONDED TABLE R-SQUARED SPACING: 0.0625
Info: NONBONDED TABLE SIZE: 705 POINTS
TCL: Setting parameter alchLambda2 to 0.8000000000000002
Info: NONBONDED TABLE R-SQUARED SPACING: 0.0625
Info: NONBONDED TABLE SIZE: 705 POINTS
TCL: Running for 1500000 steps
ETITLE: TS BOND ANGLE DIHED IMPRP ELECT VDW BOUNDARY MISC KINETIC TOTAL TEMP POTENTIAL TOTALAVG TEMPAVG PRESSURE GPRESSURE VOLUME PRESSAVG GPRESSAVG
ENERGY: 0 0.2045 2.3075 0.0000 0.0000 -10703.7239 1377.7816 0.0000 0.0000 1799.4788 -7523.9514 305.9770 -9323.4302 -7523.9514 305.9770 -694.8113 -602.1803 30617.5516 -694.8113 -602.1803
ENERGY: 300000 0.6200 2.1238 0.0000 0.0000 -10877.8170 1495.2957 0.0000 0.0000 1759.3769 -7620.4006 299.1582 -9379.7775 -7580.1260 302.2729 262.7708 235.3586 30415.8170 107.8534 175.7097
ENERGY: 600000 0.1842 4.1696 0.0000 0.0000 -10737.2223 1462.3605 0.0000 0.0000 1775.0305 -7495.4775 301.8199 -9270.5080 -7572.1303 299.4562 27.7499 36.4260 30871.2849 122.2977 173.5509
ENERGY: 900000 0.1066 0.9756 0.0000 0.0000 -10803.6630 1440.1792 0.0000 0.0000 1790.8788 -7571.5227 304.5147 -9362.4016 -7566.8810 299.1658 -30.4434 28.4058 30140.2329 185.5016 240.1612
ENERGY: 1200000 0.2267 2.1242 0.0000 0.0000 -10900.9930 1579.9820 0.0000 0.0000 1738.1873 -7580.4729 295.5552 -9318.6601 -7551.2054 299.3561 1016.2571 1102.8619 30108.9966 294.0281 358.2482
ENERGY: 1500000 0.5067 1.3739 0.0000 0.0000 -10815.0055 1492.0474 0.0000 0.0000 1711.5542 -7609.5233 291.0266 -9321.0776 -7550.1757 298.7785 354.5121 380.1592 30555.2206 270.1285 332.1509
TCL: Running FEP window  17: Lambda1 0.8000000000000002 Lambda2 0.8500000000000002 [dLambda 0.050000000000000044]
TCL: Setting parameter firsttimestep to 0
TCL: Setting parameter alchLambda to 0.8000000000000002
Info: NONBONDED TABLE R-SQUARED SPACING: 0.0625
Info: NONBONDED TABLE SIZE: 705 POINTS
TCL: Setting parameter alchLambda2 to 0.8500000000000002
Info: NONBONDED TABLE R-SQUARED SPACING: 0.0625
Info: NONBONDED TABLE SIZE: 705 POINTS
TCL: Running for 1500000 steps
ETITLE: TS BOND ANGLE DIHED IMPRP ELECT VDW BOUNDARY MISC KINETIC TOTAL TEMP POTENTIAL TOTALAVG TEMPAVG PRESSURE GPRESSURE VOLUME PRESSAVG GPRESSAVG
ENERGY: 0 0.5067 1.3739 0.0000 0.0000 -10815.8717 1492.0748 0.0000 0.0000 1710.6677 -7611.2486 290.8759 -9321.9163 -7611.2486 290.8759 317.5519 386.0738 30555.2206 317.5519 386.0738
ENERGY: 300000 0.0095 2.6159 0.0000 0.0000 -10631.8462 1336.6100 0.0000 0.0000 1729.4025 -7563.2083 294.0615 -9292.6108 -7533.2453 300.7737 -954.1844 -871.3624 30781.4270 -351.9944 -268.0604
ENERGY: 600000 0.8853 1.6583 0.0000 0.0000 -10676.0719 1430.9989 0.0000 0.0000 1739.2979 -7503.2315 295.7440 -9242.5294 -7530.9828 300.5087 -62.1251 -13.3816 30886.0428 -263.2124 -177.8305
ENERGY: 900000 2.3517 3.8959 0.0000 0.0000 -11036.1529 1569.8939 0.0000 0.0000 1769.8182 -7690.1933 300.9336 -9460.0115 -7555.1639 299.7908 432.4611 506.6733 30205.2576 -149.1788 -68.4370
ENERGY: 1200000 0.2290 2.0980 0.0000 0.0000 -10716.8320 1452.0972 0.0000 0.0000 1718.5289 -7543.8789 292.2126 -9262.4078 -7550.6762 299.1506 198.2601 280.4896 30248.3700 -88.3584 0.7865
ENERGY: 1500000 3.4130 1.8945 0.0000 0.0000 -10765.6737 1493.6731 0.0000 0.0000 1742.9510 -7523.7421 296.3652 -9266.6931 -7544.4445 298.8096 657.2193 692.9700 30193.5341 -49.3389 32.9836
TCL: Running FEP window  18: Lambda1 0.8500000000000002 Lambda2 0.9000000000000002 [dLambda 0.050000000000000044]
TCL: Setting parameter firsttimestep to 0
TCL: Setting parameter alchLambda to 0.8500000000000002
Info: NONBONDED TABLE R-SQUARED SPACING: 0.0625
Info: NONBONDED TABLE SIZE: 705 POINTS
TCL: Setting parameter alchLambda2 to 0.9000000000000002
Info: NONBONDED TABLE R-SQUARED SPACING: 0.0625
Info: NONBONDED TABLE SIZE: 705 POINTS
TCL: Running for 1500000 steps
ETITLE: TS BOND ANGLE DIHED IMPRP ELECT VDW BOUNDARY MISC KINETIC TOTAL TEMP POTENTIAL TOTALAVG TEMPAVG PRESSURE GPRESSURE VOLUME PRESSAVG GPRESSAVG
ENERGY: 0 3.4130 1.8945 0.0000 0.0000 -10766.3525 1493.3832 0.0000 0.0000 1742.0762 -7525.5856 296.2165 -9267.6619 -7525.5856 296.2165 614.6610 691.5433 30193.5341 614.6610 691.5433
ENERGY: 300000 0.1500 4.7671 0.0000 0.0000 -10734.3523 1402.8631 0.0000 0.0000 1775.2784 -7551.2937 301.8620 -9326.5721 -7558.8795 296.8197 -362.9723 -306.9275 30563.9875 -205.4057 -162.2999
ENERGY: 600000 1.4027 3.9788 0.0000 0.0000 -10791.9081 1484.3098 0.0000 0.0000 1785.5650 -7516.6518 303.6112 -9302.2169 -7520.3129 302.0285 344.3900 360.6519 30778.2217 37.4548 85.0150
ENERGY: 900000 1.3136 2.5029 0.0000 0.0000 -10738.8975 1407.2249 0.0000 0.0000 1750.8757 -7576.9804 297.7127 -9327.8561 -7519.6775 302.3920 -451.5497 -383.0823 30640.2270 -62.2171 -4.3217
ENERGY: 1200000 0.1620 0.7684 0.0000 0.0000 -10656.4754 1417.6036 0.0000 0.0000 1793.4442 -7444.4971 304.9509 -9237.9414 -7517.9973 302.5918 26.9233 10.1020 30582.2711 -15.3400 44.7648
ENERGY: 1500000 2.7089 3.3337 0.0000 0.0000 -10790.9639 1444.2558 0.0000 0.0000 1763.6041 -7577.0615 299.8770 -9340.6656 -7525.3578 302.7913 -36.7702 -35.3707 30411.1458 -42.4499 11.7548
TCL: Running FEP window  19: Lambda1 0.9000000000000002 Lambda2 0.9500000000000003 [dLambda 0.050000000000000044]
TCL: Setting parameter firsttimestep to 0
TCL: Setting parameter alchLambda to 0.9000000000000002
Info: NONBONDED TABLE R-SQUARED SPACING: 0.0625
Info: NONBONDED TABLE SIZE: 705 POINTS
TCL: Setting parameter alchLambda2 to 0.9500000000000003
Info: NONBONDED TABLE R-SQUARED SPACING: 0.0625
Info: NONBONDED TABLE SIZE: 705 POINTS
TCL: Running for 1500000 steps
ETITLE: TS BOND ANGLE DIHED IMPRP ELECT VDW BOUNDARY MISC KINETIC TOTAL TEMP POTENTIAL TOTALAVG TEMPAVG PRESSURE GPRESSURE VOLUME PRESSAVG GPRESSAVG
ENERGY: 0 2.7089 3.3337 0.0000 0.0000 -10791.7408 1444.3330 0.0000 0.0000 1762.7415 -7578.6237 299.7303 -9341.3652 -7578.6237 299.7303 -113.8478 -26.7149 30411.1458 -113.8478 -26.7149
ENERGY: 300000 0.0734 3.2963 0.0000 0.0000 -10829.9234 1486.9740 0.0000 0.0000 1683.8956 -7655.6841 286.3236 -9339.5797 -7567.2222 298.9251 165.7115 265.2436 30255.4401 3.8298 74.8347
ENERGY: 600000 1.0928 1.9812 0.0000 0.0000 -10752.2894 1447.7570 0.0000 0.0000 1761.9671 -7539.4913 299.5986 -9301.4584 -7539.5469 299.9602 298.8818 313.2177 30222.8002 -120.5186 -59.5060
ENERGY: 900000 0.6256 2.3541 0.0000 0.0000 -10857.8989 1461.9394 0.0000 0.0000 1819.1765 -7573.8033 309.3263 -9392.9798 -7550.9607 301.3244 -8.8326 49.9869 30427.0685 -97.4159 -37.0747
ENERGY: 1200000 0.3542 0.9543 0.0000 0.0000 -10685.9625 1464.4520 0.0000 0.0000 1833.2396 -7386.9623 311.7176 -9220.2019 -7537.2993 302.4387 376.6259 416.1734 30795.8929 -23.9659 37.1435
ENERGY: 1500000 1.1524 1.6522 0.0000 0.0000 -10759.0013 1408.8432 0.0000 0.0000 1770.4221 -7576.9315 301.0363 -9347.3536 -7538.1728 302.1435 -479.5251 -421.9074 30533.9786 -64.9942 -7.2562
TCL: Running FEP window  20: Lambda1 0.9500000000000003 Lambda2 1.0    [dLambda 0.04999999999999971]
TCL: Setting parameter firsttimestep to 0
TCL: Setting parameter alchLambda to 0.9500000000000003
Info: NONBONDED TABLE R-SQUARED SPACING: 0.0625
Info: NONBONDED TABLE SIZE: 705 POINTS
TCL: Setting parameter alchLambda2 to 1.0
Info: NONBONDED TABLE R-SQUARED SPACING: 0.0625
Info: NONBONDED TABLE SIZE: 705 POINTS
TCL: Running for 1500000 steps
ETITLE: TS BOND ANGLE DIHED IMPRP ELECT VDW BOUNDARY MISC KINETIC TOTAL TEMP POTENTIAL TOTALAVG TEMPAVG PRESSURE GPRESSURE VOLUME PRESSAVG GPRESSAVG
ENERGY: 0 1.1524 1.6522 0.0000 0.0000 -10760.2188 1408.8155 0.0000 0.0000 1769.5690 -7579.0297 300.8912 -9348.5986 -7579.0297 300.8912 -496.1913 -417.4610 30533.9786 -496.1913 -417.4610
ENERGY: 300000 0.3073 1.4513 0.0000 0.0000 -10807.0262 1513.5274 0.0000 0.0000 1831.5019 -7460.2382 311.4221 -9291.7402 -7541.5306 301.3379 841.9951 919.9014 30183.4816 -2.2210 43.2638
ENERGY: 600000 0.9460 3.3532 0.0000 0.0000 -10819.1885 1460.4575 0.0000 0.0000 1756.3820 -7598.0498 298.6490 -9354.4318 -7545.3140 301.7861 -246.2874 -182.1033 30786.1747 -188.2659 -122.5110
ENERGY: 900000 0.1472 3.2232 0.0000 0.0000 -10817.2377 1480.0767 0.0000 0.0000 1782.3297 -7551.4609 303.0610 -9333.7906 -7541.4436 301.8219 197.1455 306.2541 30352.9834 -81.0869 -15.9020
ENERGY: 1200000 0.4110 1.2846 0.0000 0.0000 -10674.5082 1384.0979 0.0000 0.0000 1784.9076 -7503.8071 303.4994 -9288.7148 -7533.7116 301.3046 -374.7474 -289.0627 30590.2830 -95.0231 -30.3437
ENERGY: 1500000 0.9844 2.9175 0.0000 0.0000 -10699.0420 1386.0695 0.0000 0.0000 1836.9200 -7472.1507 312.3434 -9309.0707 -7526.8940 302.7955 -420.0044 -386.2628 30429.2207 -66.8505 -0.6836
TCL: Exiting due to exit command.
