Info: SIMULATION PARAMETERS:
Info: TIMESTEP               2
Info: NUMBER OF STEPS        0
Info: STEPS PER CYCLE        10
Info: PERIODIC CELL BASIS 1  35.01 0 0
Info: PERIODIC CELL BASIS 2  0 35.411 0
Info: PERIODIC CELL BASIS 3  0 0 35.644
Info: PERIODIC CELL CENTER   0 0 0
Info: WRAPPING WATERS AROUND PERIODIC BOUNDARIES ON OUTPUT.
Info: WRAPPING ALL CLUSTERS AROUND PERIODIC BOUNDARIES ON OUTPUT.
Info: FIRST LDB TIMESTEP     50
Info: LAST LDB TIMESTEP     -1
Info: HOM BACKGROUND SCALING 1
Info: PME BACKGROUND SCALING 1
Info: MIN ATOMS PER PATCH    40
Info: EMPTY PATCH LOAD       40 ATOMS
Info: INITIAL TEMPERATURE    300
Info: CENTER OF MASS MOVING INITIALLY? NO
Info: DIELECTRIC             1
Info: EXCLUDE                SCALED ONE-FOUR
Info: 1-4 ELECTROSTATICS SCALED BY 0.833333
Info: MODIFIED 1-4 VDW PARAMETERS WILL BE USED
Info: DCD FILENAME           mobley_8899867_equil.dcd
Info: DCD FREQUENCY          100000
Info: DCD FIRST STEP         100000
Info: DCD FILE WILL CONTAIN UNIT CELL DATA
Info: XST FILENAME           mobley_8899867_equil.xst
Info: XST FREQUENCY          100000
Info: NO VELOCITY DCD OUTPUT
Info: NO FORCE DCD OUTPUT
Info: OUTPUT FILENAME        mobley_8899867_equil
Info: BINARY OUTPUT FILES WILL BE USED
Info: RESTART FILENAME       mobley_8899867_equil.restart
Info: RESTART FREQUENCY      100000
Info: BINARY RESTART FILES WILL BE USED
Info: CUTOFF                 9
Info: PAIRLIST DISTANCE      11
Info: PAIRLIST SHRINK RATE   0.01
Info: PAIRLIST GROW RATE     0.01
Info: PAIRLIST TRIGGER       0.3
Info: PAIRLISTS PER CYCLE    2
Info: PAIRLISTS ENABLED
Info: MARGIN                 8
Info: HYDROGEN GROUP CUTOFF  2.5
Info: PATCH DIMENSION        21.5
Info: ENERGY OUTPUT STEPS    100000
Info: ENERGY EVALUATION STEPS    100000
Info: OUTPUT ENERGY PRECISION 4
Info: CROSSTERM ENERGY INCLUDED IN DIHEDRAL
Info: TIMING OUTPUT STEPS    1000000
Info: PRESSURE OUTPUT STEPS  100000
Info: LANGEVIN DYNAMICS ACTIVE
Info: LANGEVIN TEMPERATURE   30
Info: LANGEVIN USING BBK INTEGRATOR
Info: LANGEVIN DAMPING COEFFICIENT IS 1 INVERSE PS
Info: LANGEVIN DYNAMICS APPLIED TO HYDROGENS
Info: LANGEVIN PISTON PRESSURE CONTROL ACTIVE
Info:        TARGET PRESSURE IS 1.01325 BAR
Info:     OSCILLATION PERIOD IS 50 FS
Info:             DECAY TIME IS 25 FS
Info:     PISTON TEMPERATURE IS 300 K
Info:       PRESSURE CONTROL IS GROUP-BASED
Info:    INITIAL STRAIN RATE IS 0 0 0
Info:       CELL FLUCTUATION IS ISOTROPIC
Info: PARTICLE MESH EWALD (PME) ACTIVE
Info: PME TOLERANCE               1e-06
Info: PME EWALD COEFFICIENT       0.348832
Info: PME INTERPOLATION ORDER     4
Info: PME GRID DIMENSIONS         36 36 36
Info: PME MAXIMUM GRID SPACING    1
Info: FULL ELECTROSTATIC EVALUATION FREQUENCY      2
Info: USING VERLET I (r-RESPA) MTS SCHEME.
Info: C1 SPLITTING OF LONG RANGE ELECTROSTATICS
Info: PLACING ATOMS IN PATCHES BY HYDROGEN GROUPS
Info: RIGID BONDS TO HYDROGEN : ALL
Info:         ERROR TOLERANCE : 1e-08
Info:          MAX ITERATIONS : 100
Info: RIGID WATER USING SETTLE ALGORITHM
Info: RANDOM NUMBER SEED     1743213073
Info: USE HYDROGEN BONDS?    NO
Info: Using AMBER format force field!
Info: AMBER PARM FILE        mobley_8899867.prmtop
Info: COORDINATE PDB         mobley_8899867.pdb
Info: Exclusions will be read from PARM file!
Info: SCNB (VDW SCALING)     2
Info: USING ARITHMETIC MEAN TO COMBINE L-J SIGMA PARAMETERS
Info: BINARY COORDINATES     mobley_8899867_min.coor
Info: SUMMARY OF PARAMETERS:
Info: 7 BONDS
Info: 7 ANGLES
Info:   7 HARMONIC
Info:   0 COSINE-BASED
Info: 9 DIHEDRAL
Info: 0 IMPROPER
Info: 0 CROSSTERM
Info: 0 VDW
Info: 21 VDW_PAIRS
Info: 0 NBTHOLE_PAIRS
Info: STRUCTURE SUMMARY:
Info: 2956 ATOMS
Info: 2956 BONDS
Info: 31 ANGLES
Info: 64 DIHEDRALS
Info: 0 IMPROPERS
Info: 0 CROSSTERMS
Info: 3030 EXCLUSIONS
Info: 2950 RIGID BONDS
Info: 5918 DEGREES OF FREEDOM
Info: 986 HYDROGEN GROUPS
Info: 3 ATOMS IN LARGEST HYDROGEN GROUP
Info: 986 MIGRATION GROUPS
Info: 3 ATOMS IN LARGEST MIGRATION GROUP
Info: TOTAL MASS = 17741.8 amu
Info: TOTAL CHARGE = 0.000200015 e
Info: MASS DENSITY = 0.666715 g/cm^3
Info: ATOM DENSITY = 0.0668941 atoms/A^3
Info: ADDED 0 IMPLICIT EXCLUSIONS
Info: NONBONDED TABLE R-SQUARED SPACING: 0.0625
Info: NONBONDED TABLE SIZE: 705 POINTS
Info: REMOVING COM VELOCITY 0.0174821 -0.177927 -0.113125
TCL: Running for 100000 steps
ETITLE: TS BOND ANGLE DIHED IMPRP ELECT VDW BOUNDARY MISC KINETIC TOTAL TEMP POTENTIAL TOTAL3 TEMPAVG PRESSURE GPRESSURE VOLUME PRESSAVG GPRESSAVG
ENERGY: 0 0.0408 4.0729 9.8253 0.0000 -13646.6137 2417.1279 0.0000 0.0000 1788.2546 -9427.2921 304.1198 -11215.5467 -9426.9349 304.1198 631.6435 669.5496 44189.2608 631.6435 669.5496
ENERGY: 100000 0.1930 4.4201 10.4419 0.0000 -14142.2782 2361.3583 0.0000 0.0000 178.1754 -11587.6896 30.3014 -11765.8650 -11587.0901 30.9882 -1031.6042 -980.6051 28942.3987 4.8942 4.8615
TCL: Running 100000 steps at 60 kelvin.
TCL: Setting parameter langevinTemp to 60
TCL: Running for 100000 steps
ETITLE: TS BOND ANGLE DIHED IMPRP ELECT VDW BOUNDARY MISC KINETIC TOTAL TEMP POTENTIAL TOTAL3 TEMPAVG PRESSURE GPRESSURE VOLUME PRESSAVG GPRESSAVG
ENERGY: 100000 0.1930 4.4201 10.4419 0.0000 -14142.2782 2361.3583 0.0000 0.0000 178.0858 -11587.7792 30.2862 -11765.8650 -11587.3423 30.2862 -1050.2024 -980.6974 28942.3987 -1050.2024 -980.6974
ENERGY: 200000 0.1375 5.4812 10.4881 0.0000 -14135.4700 2437.8519 0.0000 0.0000 342.5169 -11338.9944 58.2502 -11681.5113 -11337.7364 59.8693 -49.1573 5.3899 28751.3383 5.3485 5.3109
TCL: Running 100000 steps at 90 kelvin.
TCL: Setting parameter langevinTemp to 90
TCL: Running for 100000 steps
ETITLE: TS BOND ANGLE DIHED IMPRP ELECT VDW BOUNDARY MISC KINETIC TOTAL TEMP POTENTIAL TOTAL3 TEMPAVG PRESSURE GPRESSURE VOLUME PRESSAVG GPRESSAVG
ENERGY: 200000 0.1375 5.4812 10.4881 0.0000 -14135.4700 2437.8519 0.0000 0.0000 342.3448 -11339.1665 58.2209 -11681.5113 -11338.3713 58.2209 -60.3666 5.4046 28751.3383 -60.3666 5.4046
ENERGY: 300000 0.4996 5.3552 10.9886 0.0000 -13943.0581 2316.0943 0.0000 0.0000 522.6551 -11087.4652 88.8854 -11610.1204 -11086.4616 89.9626 -667.2791 -570.3012 28610.6648 4.0469 4.0667
TCL: Running 100000 steps at 120 kelvin.
TCL: Setting parameter langevinTemp to 120
TCL: Running for 100000 steps
ETITLE: TS BOND ANGLE DIHED IMPRP ELECT VDW BOUNDARY MISC KINETIC TOTAL TEMP POTENTIAL TOTAL3 TEMPAVG PRESSURE GPRESSURE VOLUME PRESSAVG GPRESSAVG
ENERGY: 300000 0.4996 5.3552 10.9886 0.0000 -13943.0581 2316.0943 0.0000 0.0000 522.3909 -11087.7294 88.8405 -11610.1204 -11086.4863 88.8405 -626.7481 -570.6679 28610.6648 -626.7481 -570.6679
ENERGY: 400000 0.3346 4.9899 10.7327 0.0000 -13806.9901 2310.4650 0.0000 0.0000 686.0379 -10794.4300 116.6712 -11480.4679 -10793.1446 119.8520 -264.9338 -228.7565 28834.1022 5.0731 4.8695
TCL: Running 100000 steps at 150 kelvin.
TCL: Setting parameter langevinTemp to 150
TCL: Running for 100000 steps
ETITLE: TS BOND ANGLE DIHED IMPRP ELECT VDW BOUNDARY MISC KINETIC TOTAL TEMP POTENTIAL TOTAL3 TEMPAVG PRESSURE GPRESSURE VOLUME PRESSAVG GPRESSAVG
ENERGY: 400000 0.3346 4.9899 10.7327 0.0000 -13806.9901 2310.4650 0.0000 0.0000 685.6891 -10794.7788 116.6119 -11480.4679 -10793.4021 116.6119 -291.5442 -229.2111 28834.1022 -291.5442 -229.2111
ENERGY: 500000 0.9396 6.7392 9.7371 0.0000 -13600.2832 2302.4599 0.0000 0.0000 887.7977 -10392.6098 150.9835 -11280.4074 -10391.0089 150.0763 472.3172 549.3362 28523.7593 3.6285 3.5679
TCL: Running 100000 steps at 180 kelvin.
TCL: Setting parameter langevinTemp to 180
TCL: Running for 100000 steps
ETITLE: TS BOND ANGLE DIHED IMPRP ELECT VDW BOUNDARY MISC KINETIC TOTAL TEMP POTENTIAL TOTAL3 TEMPAVG PRESSURE GPRESSURE VOLUME PRESSAVG GPRESSAVG
ENERGY: 500000 0.9396 6.7392 9.7371 0.0000 -13600.2832 2302.4599 0.0000 0.0000 887.3393 -10393.0681 150.9055 -11280.4074 -10391.4245 150.9055 495.4257 550.5717 28523.7593 495.4257 550.5717
ENERGY: 600000 0.5467 10.7609 9.2491 0.0000 -13083.6669 2121.5374 0.0000 0.0000 1048.6435 -9892.9292 178.3377 -10941.5727 -9892.3135 180.1080 -66.0212 -15.8680 29330.0883 3.1342 3.1364
TCL: Running 100000 steps at 210 kelvin.
TCL: Setting parameter langevinTemp to 210
TCL: Running for 100000 steps
ETITLE: TS BOND ANGLE DIHED IMPRP ELECT VDW BOUNDARY MISC KINETIC TOTAL TEMP POTENTIAL TOTAL3 TEMPAVG PRESSURE GPRESSURE VOLUME PRESSAVG GPRESSAVG
ENERGY: 600000 0.5467 10.7609 9.2491 0.0000 -13083.6669 2121.5374 0.0000 0.0000 1048.0910 -9893.4817 178.2438 -10941.5727 -9891.4386 178.2438 -61.3507 -17.0953 29330.0883 -61.3507 -17.0953
ENERGY: 700000 0.9624 8.7221 10.4071 0.0000 -12472.8472 1923.0149 0.0000 0.0000 1218.1072 -9311.6335 207.1576 -10529.7407 -9308.3086 210.0593 148.4676 180.3972 28886.4462 3.8913 3.8796
TCL: Running 100000 steps at 240 kelvin.
TCL: Setting parameter langevinTemp to 240
TCL: Running for 100000 steps
ETITLE: TS BOND ANGLE DIHED IMPRP ELECT VDW BOUNDARY MISC KINETIC TOTAL TEMP POTENTIAL TOTAL3 TEMPAVG PRESSURE GPRESSURE VOLUME PRESSAVG GPRESSAVG
ENERGY: 700000 0.9624 8.7221 10.4071 0.0000 -12472.8472 1923.0149 0.0000 0.0000 1217.4934 -9312.2473 207.0532 -10529.7407 -9309.8511 207.0532 111.6227 180.9373 28886.4462 111.6227 180.9373
ENERGY: 800000 0.9765 8.9178 9.9678 0.0000 -11724.1023 1628.5114 0.0000 0.0000 1399.9365 -8675.7923 238.0805 -10075.7288 -8671.5213 239.8926 -482.2074 -418.6593 29061.9050 2.8775 2.8786
TCL: Running 100000 steps at 270 kelvin.
TCL: Setting parameter langevinTemp to 270
TCL: Running for 100000 steps
ETITLE: TS BOND ANGLE DIHED IMPRP ELECT VDW BOUNDARY MISC KINETIC TOTAL TEMP POTENTIAL TOTAL3 TEMPAVG PRESSURE GPRESSURE VOLUME PRESSAVG GPRESSAVG
ENERGY: 800000 0.9765 8.9178 9.9678 0.0000 -11724.1023 1628.5114 0.0000 0.0000 1399.2320 -8676.4968 237.9606 -10075.7288 -8673.3332 237.9606 -484.1542 -416.9483 29061.9050 -484.1542 -416.9483
ENERGY: 900000 0.8825 13.0560 10.7125 0.0000 -11336.7909 1553.8731 0.0000 0.0000 1589.6515 -8168.6153 270.3444 -9758.2667 -8165.4279 270.3053 -411.2866 -334.5391 29602.7356 4.4404 4.3581
TCL: Running 1000000 steps at 300 kelvin.
TCL: Setting parameter langevinTemp to 300
TCL: Running for 1000000 steps
ETITLE: TS BOND ANGLE DIHED IMPRP ELECT VDW BOUNDARY MISC KINETIC TOTAL TEMP POTENTIAL TOTAL3 TEMPAVG PRESSURE GPRESSURE VOLUME PRESSAVG GPRESSAVG
ENERGY: 900000 0.8825 13.0560 10.7125 0.0000 -11336.7909 1553.8731 0.0000 0.0000 1588.8762 -8169.3905 270.2125 -9758.2667 -8166.0778 270.2125 -426.5388 -338.0105 29602.7356 -426.5388 -338.0105
ENERGY: 1100000 1.5055 19.5593 9.3715 0.0000 -10676.3769 1391.9047 0.0000 0.0000 1810.2506 -7443.7853 307.8606 -9254.0360 -7442.0951 300.4909 -141.1147 -7.9251 30104.0771 2.6405 2.8912
ENERGY: 1300000 1.2158 11.5305 10.8359 0.0000 -10953.6637 1539.5889 0.0000 0.0000 1780.4109 -7610.0817 302.7859 -9390.4926 -7607.8451 299.8008 401.1306 550.1799 30277.2655 3.1840 3.0842
ENERGY: 1500000 0.9422 13.8463 10.2737 0.0000 -10796.0357 1476.5034 0.0000 0.0000 1752.9932 -7541.4768 298.1231 -9294.4701 -7537.8533 300.0184 38.7622 117.8511 30607.2600 3.3053 3.2971
ENERGY: 1700000 1.0518 11.0763 9.4612 0.0000 -10855.3949 1506.1296 0.0000 0.0000 1788.7459 -7538.9301 304.2034 -9327.6760 -7534.0924 300.9318 546.2513 643.9331 29933.3258 3.1384 3.1646
ENERGY: 1900000 3.2800 8.2307 13.1263 0.0000 -10710.9057 1430.3076 0.0000 0.0000 1786.9528 -7469.0083 303.8985 -9255.9610 -7465.3344 300.3631 -185.6513 -47.5771 30770.6442 3.8855 4.0591
TCL: Exiting due to exit command.
