Info: SIMULATION PARAMETERS:
Info: TIMESTEP               2
Info: NUMBER OF STEPS        0
Info: STEPS PER CYCLE        10
Info: PERIODIC CELL BASIS 1  31.0894 0 0
Info: PERIODIC CELL BASIS 2  0 30.8317 0
Info: PERIODIC CELL BASIS 3  0 0 31.8625
Info: PERIODIC CELL CENTER   0 0 0
Info: WRAPPING WATERS AROUND PERIODIC BOUNDARIES ON OUTPUT.
Info: WRAPPING ALL CLUSTERS AROUND PERIODIC BOUNDARIES ON OUTPUT.
Info: FIRST LDB TIMESTEP     50
Info: LAST LDB TIMESTEP     -1
Info: HOM BACKGROUND SCALING 1
Info: PME BACKGROUND SCALING 1
Info: MIN ATOMS PER PATCH    40
Info: EMPTY PATCH LOAD       40 ATOMS
Info: VELOCITY FILE          mobley_7732703_equil.vel
Info: CENTER OF MASS MOVING INITIALLY? NO
Info: DIELECTRIC             1
Info: EXCLUDE                SCALED ONE-FOUR
Info: 1-4 ELECTROSTATICS SCALED BY 0.833333
Info: MODIFIED 1-4 VDW PARAMETERS WILL BE USED
Info: DCD FILENAME           mobley_7732703_prod.dcd
Info: DCD FREQUENCY          100000
Info: DCD FIRST STEP         100000
Info: DCD FILE WILL CONTAIN UNIT CELL DATA
Info: XST FILENAME           mobley_7732703_prod.xst
Info: XST FREQUENCY          100000
Info: NO VELOCITY DCD OUTPUT
Info: NO FORCE DCD OUTPUT
Info: OUTPUT FILENAME        mobley_7732703_prod
Info: BINARY OUTPUT FILES WILL BE USED
Info: RESTART FILENAME       mobley_7732703_prod.restart
Info: RESTART FREQUENCY      100000
Info: BINARY RESTART FILES WILL BE USED
Info: CUTOFF                 9
Info: PAIRLIST DISTANCE      11
Info: PAIRLIST SHRINK RATE   0.01
Info: PAIRLIST GROW RATE     0.01
Info: PAIRLIST TRIGGER       0.3
Info: PAIRLISTS PER CYCLE    2
Info: PAIRLISTS ENABLED
Info: MARGIN                 2
Info: HYDROGEN GROUP CUTOFF  2.5
Info: PATCH DIMENSION        15.5
Info: ENERGY OUTPUT STEPS    100000
Info: ENERGY EVALUATION STEPS    100000
Info: OUTPUT ENERGY PRECISION 4
Info: CROSSTERM ENERGY INCLUDED IN DIHEDRAL
Info: TIMING OUTPUT STEPS    1000000
Info: PRESSURE OUTPUT STEPS  100000
Info: ALCHEMICAL FEP ON
Info: FEP CURRENT LAMBDA VALUE     0
Info: FEP COMPARISON LAMBDA VALUE  0.05
Info: FEP INTRA-ALCHEMICAL NON-BONDED INTERACTIONS WILL BE RETAINED
Info: FEP INTRA-ALCHEMICAL BONDED INTERACTIONS WILL BE RETAINED
Info: FEP VDW SHIFTING COEFFICIENT 5
Info: FEP ELEC. ACTIVE FOR ANNIHILATED PARTICLES BETWEEN LAMBDA = 0 AND LAMBDA = 0.5
Info: FEP ELEC. ACTIVE FOR EXNIHILATED PARTICLES BETWEEN LAMBDA = 0.5 AND LAMBDA = 1
Info: FEP VDW ACTIVE FOR ANNIHILATED PARTICLES BETWEEN LAMBDA = 0 AND LAMBDA = 1
Info: FEP VDW ACTIVE FOR EXNIHILATED PARTICLES BETWEEN LAMBDA = 0 AND LAMBDA = 1
Info: FEP BOND ACTIVE FOR ANNIHILATED PARTICLES BETWEEN LAMBDA = 1 AND LAMBDA = 1
Info: FEP BOND ACTIVE FOR EXNIHILATED PARTICLES BETWEEN LAMBDA = 0 AND LAMBDA = 0
Info: LANGEVIN DYNAMICS ACTIVE
Info: LANGEVIN TEMPERATURE   300
Info: LANGEVIN USING BBK INTEGRATOR
Info: LANGEVIN DAMPING COEFFICIENT IS 1 INVERSE PS
Info: LANGEVIN DYNAMICS APPLIED TO HYDROGENS
Info: LANGEVIN PISTON PRESSURE CONTROL ACTIVE
Info:        TARGET PRESSURE IS 1.01325 BAR
Info:     OSCILLATION PERIOD IS 50 FS
Info:             DECAY TIME IS 25 FS
Info:     PISTON TEMPERATURE IS 300 K
Info:       PRESSURE CONTROL IS GROUP-BASED
Info:    INITIAL STRAIN RATE IS -0.00026849 -0.00026849 -0.00026849
Info:       CELL FLUCTUATION IS ISOTROPIC
Info: PARTICLE MESH EWALD (PME) ACTIVE
Info: PME TOLERANCE               1e-06
Info: PME EWALD COEFFICIENT       0.348832
Info: PME INTERPOLATION ORDER     4
Info: PME GRID DIMENSIONS         32 32 32
Info: PME MAXIMUM GRID SPACING    1
Info: PME CALCULATION WILL BE PERFORMED ON GPU
Info: FULL ELECTROSTATIC EVALUATION FREQUENCY      2
Info: USING VERLET I (r-RESPA) MTS SCHEME.
Info: C1 SPLITTING OF LONG RANGE ELECTROSTATICS
Info: PLACING ATOMS IN PATCHES BY HYDROGEN GROUPS
Info: RIGID BONDS TO HYDROGEN : ALL
Info:         ERROR TOLERANCE : 1e-08
Info:          MAX ITERATIONS : 100
Info: RIGID WATER USING SETTLE ALGORITHM
Info: RANDOM NUMBER SEED     1743464250
Info: USE HYDROGEN BONDS?    NO
Info: Using AMBER format force field!
Info: AMBER PARM FILE        mobley_7732703.prmtop
Info: COORDINATE PDB         mobley_7732703.pdb
Info: Exclusions will be read from PARM file!
Info: SCNB (VDW SCALING)     2
Info: USING ARITHMETIC MEAN TO COMBINE L-J SIGMA PARAMETERS
Info: BINARY COORDINATES     mobley_7732703_equil.coor
Info: SUMMARY OF PARAMETERS:
Info: 4 BONDS
Info: 2 ANGLES
Info:   2 HARMONIC
Info:   0 COSINE-BASED
Info: 0 DIHEDRAL
Info: 0 IMPROPER
Info: 0 CROSSTERM
Info: 0 VDW
Info: 15 VDW_PAIRS
Info: 0 NBTHOLE_PAIRS
Info: To read alchdata from file: mobley_7732703.pdb
Info: To read alchflag data from column: 5
Info: STRUCTURE SUMMARY:
Info: 2945 ATOMS
Info: 2944 BONDS
Info: 6 ANGLES
Info: 0 DIHEDRALS
Info: 0 IMPROPERS
Info: 0 CROSSTERMS
Info: 2950 EXCLUSIONS
Info: 2940 RIGID BONDS
Info: ALCH: 0 ATOMS TO DISAPPEAR IN FINAL STATE
Info: ALCH: 5 ATOMS TO APPEAR IN FINAL STATE
Info: 5895 DEGREES OF FREEDOM
Info: 985 HYDROGEN GROUPS
Info: 3 ATOMS IN LARGEST HYDROGEN GROUP
Info: 985 MIGRATION GROUPS
Info: 3 ATOMS IN LARGEST MIGRATION GROUP
Info: TOTAL MASS = 17804.6 amu
Info: TOTAL CHARGE = 9.99942e-05 e
Info: MASS DENSITY = 0.968059 g/cm^3
Info: ATOM DENSITY = 0.0964264 atoms/A^3
Info: ADDED 0 IMPLICIT EXCLUSIONS
Info: NONBONDED TABLE R-SQUARED SPACING: 0.0625
Info: NONBONDED TABLE SIZE: 705 POINTS
Info: REMOVING COM VELOCITY -0.124083 0.287105 -0.0959989
Info: Use 3D box decompostion in PME FFT.
Info: Updated CUDA force table with 4096 elements.
Info: Updated CUDA LJ table with 5 x 5 elements.
Info: Found 8 unique exclusion lists needing 8 bytes
TCL: Running for 1500000 steps
ETITLE: TS BOND ANGLE DIHED IMPRP ELECT VDW BOUNDARY MISC KINETIC TOTAL TEMP POTENTIAL TOTALAVG TEMPAVG PRESSURE GPRESSURE VOLUME PRESSAVG GPRESSAVG
ENERGY: 0 0.9057 2.5973 0.0000 0.0000 -10618.5721 1385.6915 0.0000 0.0000 1787.1989 -7442.1788 305.1262 -9229.3776 -7442.1788 305.1262 -458.2059 -385.6967 30541.4264 -458.2059 -385.6967
ENERGY: 300000 0.5186 0.6683 0.0000 0.0000 -10649.5916 1412.4801 0.0000 0.0000 1718.5804 -7517.3441 293.4110 -9235.9245 -7496.0123 298.8812 -141.6317 -31.5001 30111.7949 -140.0238 -64.2832
ENERGY: 600000 1.1980 1.6139 0.0000 0.0000 -10671.9259 1420.0552 0.0000 0.0000 1741.5521 -7507.5067 297.3330 -9249.0588 -7486.9426 298.6960 -367.1551 -292.6360 30562.3940 -182.5675 -115.7010
ENERGY: 900000 0.7544 1.2963 0.0000 0.0000 -10718.6589 1441.3062 0.0000 0.0000 1776.6467 -7498.6555 303.3246 -9275.3021 -7493.6734 298.6000 16.8676 71.9210 30446.1605 -194.8027 -132.5170
ENERGY: 1200000 1.7535 3.1026 0.0000 0.0000 -10668.4013 1378.5362 0.0000 0.0000 1758.1489 -7526.8601 300.1665 -9285.0090 -7507.7383 298.4630 -591.5241 -532.6145 30026.8747 -262.9865 -196.5705
ENERGY: 1500000 0.6093 0.6309 0.0000 0.0000 -10628.8361 1408.1133 0.0000 0.0000 1771.6038 -7447.8788 302.4636 -9219.4827 -7504.3082 298.7719 -312.2408 -186.3291 30431.9689 -269.1553 -202.2277
TCL: Running FEP window   2: Lambda1 0.05   Lambda2 0.1    [dLambda 0.05  ]
TCL: Setting parameter firsttimestep to 0
TCL: Setting parameter alchLambda to 0.05
Info: NONBONDED TABLE R-SQUARED SPACING: 0.0625
Info: NONBONDED TABLE SIZE: 705 POINTS
TCL: Setting parameter alchLambda2 to 0.1
Info: NONBONDED TABLE R-SQUARED SPACING: 0.0625
Info: NONBONDED TABLE SIZE: 705 POINTS
TCL: Running for 1500000 steps
ETITLE: TS BOND ANGLE DIHED IMPRP ELECT VDW BOUNDARY MISC KINETIC TOTAL TEMP POTENTIAL TOTALAVG TEMPAVG PRESSURE GPRESSURE VOLUME PRESSAVG GPRESSAVG
ENERGY: 0 0.6093 0.6309 0.0000 0.0000 -10628.8375 1410.5244 0.0000 0.0000 1770.7384 -7446.3346 302.3159 -9217.0730 -7446.3346 302.3159 -272.2689 -181.8796 30431.9689 -272.2689 -181.8796
ENERGY: 300000 2.2342 1.0387 0.0000 0.0000 -10812.5994 1444.5311 0.0000 0.0000 1805.4307 -7559.3648 308.2389 -9364.7955 -7482.2889 304.6704 -396.2005 -268.6527 30200.9844 -83.4904 4.5587
ENERGY: 600000 0.0867 2.8293 0.0000 0.0000 -10625.6832 1378.5312 0.0000 0.0000 1797.9249 -7446.3111 306.9574 -9244.2360 -7492.1837 303.0218 -430.4245 -326.3838 30175.0018 -94.3568 -5.5613
ENERGY: 900000 0.5573 1.3822 0.0000 0.0000 -10764.7742 1543.1278 0.0000 0.0000 1788.9180 -7430.7890 305.4197 -9219.7070 -7488.9862 301.7044 1297.9861 1354.5178 29607.1523 2.3555 76.8200
ENERGY: 1200000 0.4851 0.6560 0.0000 0.0000 -10795.3588 1501.6881 0.0000 0.0000 1792.1658 -7500.3639 305.9742 -9292.5297 -7490.7409 302.1538 331.3800 391.3385 30392.0402 61.6047 129.4784
ENERGY: 1500000 0.9616 0.9017 0.0000 0.0000 -10542.8078 1372.3316 0.0000 0.0000 1780.9199 -7387.6930 304.0542 -9168.6128 -7494.9318 301.1932 -455.5206 -330.9459 30627.7287 32.7447 102.3063
TCL: Running FEP window   3: Lambda1 0.1    Lambda2 0.15000000000000002 [dLambda 0.05000000000000002]
TCL: Setting parameter firsttimestep to 0
TCL: Setting parameter alchLambda to 0.1
Info: NONBONDED TABLE R-SQUARED SPACING: 0.0625
Info: NONBONDED TABLE SIZE: 705 POINTS
TCL: Setting parameter alchLambda2 to 0.15000000000000002
Info: NONBONDED TABLE R-SQUARED SPACING: 0.0625
Info: NONBONDED TABLE SIZE: 705 POINTS
TCL: Running for 1500000 steps
ETITLE: TS BOND ANGLE DIHED IMPRP ELECT VDW BOUNDARY MISC KINETIC TOTAL TEMP POTENTIAL TOTALAVG TEMPAVG PRESSURE GPRESSURE VOLUME PRESSAVG GPRESSAVG
ENERGY: 0 0.9616 0.9017 0.0000 0.0000 -10542.8086 1372.1484 0.0000 0.0000 1779.9997 -7388.7971 303.8971 -9168.7969 -7388.7971 303.8971 -401.8731 -329.8874 30627.7287 -401.8731 -329.8874
ENERGY: 300000 2.1050 1.0780 0.0000 0.0000 -10840.8624 1489.7882 0.0000 0.0000 1747.6039 -7600.2873 298.3662 -9347.8912 -7517.6470 297.4424 318.3766 395.9091 29979.7809 35.0821 112.6278
ENERGY: 600000 1.6879 1.1281 0.0000 0.0000 -10477.0128 1281.5605 0.0000 0.0000 1783.8399 -7408.7964 304.5527 -9192.6363 -7502.3008 299.5587 -987.7087 -924.4516 30478.7692 -190.7368 -120.8739
ENERGY: 900000 0.6745 0.7227 0.0000 0.0000 -10710.1201 1438.1231 0.0000 0.0000 1761.7528 -7508.8470 300.7818 -9270.5998 -7504.3483 299.4104 -450.4731 -363.3100 30641.2622 -147.6665 -70.2923
ENERGY: 1200000 1.9649 1.2434 0.0000 0.0000 -10846.0809 1503.4550 0.0000 0.0000 1743.7703 -7595.6474 297.7117 -9339.4177 -7505.3456 300.4274 562.6140 661.4728 29763.2608 -140.1190 -59.0418
ENERGY: 1500000 1.7738 1.0416 0.0000 0.0000 -10538.6039 1343.9968 0.0000 0.0000 1722.4574 -7469.3343 294.0729 -9191.7917 -7489.8043 300.8895 -666.9471 -645.0408 30509.8725 -127.9596 -54.2709
TCL: Running FEP window   4: Lambda1 0.15000000000000002 Lambda2 0.2    [dLambda 0.04999999999999999]
TCL: Setting parameter firsttimestep to 0
TCL: Setting parameter alchLambda to 0.15000000000000002
Info: NONBONDED TABLE R-SQUARED SPACING: 0.0625
Info: NONBONDED TABLE SIZE: 705 POINTS
TCL: Setting parameter alchLambda2 to 0.2
Info: NONBONDED TABLE R-SQUARED SPACING: 0.0625
Info: NONBONDED TABLE SIZE: 705 POINTS
TCL: Running for 1500000 steps
ETITLE: TS BOND ANGLE DIHED IMPRP ELECT VDW BOUNDARY MISC KINETIC TOTAL TEMP POTENTIAL TOTALAVG TEMPAVG PRESSURE GPRESSURE VOLUME PRESSAVG GPRESSAVG
ENERGY: 0 1.7738 1.0416 0.0000 0.0000 -10538.6033 1345.0218 0.0000 0.0000 1721.5990 -7469.1671 293.9264 -9190.7661 -7469.1671 293.9264 -710.4022 -637.8389 30509.8725 -710.4022 -637.8389
ENERGY: 300000 0.5341 2.5850 0.0000 0.0000 -10576.1943 1365.8300 0.0000 0.0000 1741.4827 -7465.7625 297.3211 -9207.2452 -7497.1871 296.4456 -528.3633 -551.4325 30535.8952 -323.8623 -271.7576
ENERGY: 600000 0.6670 1.6940 0.0000 0.0000 -10729.0208 1470.9933 0.0000 0.0000 1763.1857 -7492.4808 301.0264 -9255.6665 -7501.6558 298.4516 298.9867 348.7259 30002.5812 -157.8251 -96.3371
ENERGY: 900000 0.1489 0.8549 0.0000 0.0000 -10766.4012 1463.7641 0.0000 0.0000 1725.4986 -7576.1348 294.5922 -9301.6333 -7495.9707 299.6091 -76.7198 -60.7001 30295.2084 -240.2206 -179.9188
ENERGY: 1200000 0.7220 0.5483 0.0000 0.0000 -10687.3869 1446.6290 0.0000 0.0000 1781.6696 -7457.8180 304.1822 -9239.4876 -7496.3224 299.5624 -175.2611 -75.6510 30682.1300 -196.0079 -136.9370
ENERGY: 1500000 1.6466 1.2143 0.0000 0.0000 -10663.6716 1379.2906 0.0000 0.0000 1779.1164 -7502.4037 303.7463 -9281.5201 -7485.0528 300.6972 -546.3988 -521.6065 30342.1210 -178.7146 -121.9648
TCL: Running FEP window   5: Lambda1 0.2    Lambda2 0.25   [dLambda 0.04999999999999999]
TCL: Setting parameter firsttimestep to 0
TCL: Setting parameter alchLambda to 0.2
Info: NONBONDED TABLE R-SQUARED SPACING: 0.0625
Info: NONBONDED TABLE SIZE: 705 POINTS
TCL: Setting parameter alchLambda2 to 0.25
Info: NONBONDED TABLE R-SQUARED SPACING: 0.0625
Info: NONBONDED TABLE SIZE: 705 POINTS
TCL: Running for 1500000 steps
ETITLE: TS BOND ANGLE DIHED IMPRP ELECT VDW BOUNDARY MISC KINETIC TOTAL TEMP POTENTIAL TOTALAVG TEMPAVG PRESSURE GPRESSURE VOLUME PRESSAVG GPRESSAVG
ENERGY: 0 1.6466 1.2143 0.0000 0.0000 -10663.6713 1379.4957 0.0000 0.0000 1778.2319 -7503.0829 303.5952 -9281.3148 -7503.0829 303.5952 -613.0669 -522.7103 30342.1210 -613.0669 -522.7103
ENERGY: 300000 3.0405 0.4337 0.0000 0.0000 -10598.9739 1427.6709 0.0000 0.0000 1736.6906 -7431.1381 296.5030 -9167.8287 -7450.8906 303.3446 203.5778 305.4887 30167.6569 194.5418 281.3670
ENERGY: 600000 1.9541 1.2176 0.0000 0.0000 -10668.2458 1470.4601 0.0000 0.0000 1762.1094 -7432.5046 300.8427 -9194.6140 -7467.1743 302.8476 521.8624 554.9600 30250.8767 168.7243 251.3594
ENERGY: 900000 1.2399 1.2281 0.0000 0.0000 -10708.3550 1438.2546 0.0000 0.0000 1743.1347 -7524.4977 297.6031 -9267.6324 -7489.4681 300.7494 -541.5818 -458.4338 31432.7759 35.0717 109.8192
ENERGY: 1200000 1.0981 0.4565 0.0000 0.0000 -10758.4904 1444.6254 0.0000 0.0000 1693.4817 -7618.8286 289.1260 -9312.3103 -7496.2472 300.8191 -575.6468 -452.3208 30768.3390 24.8962 93.2609
ENERGY: 1500000 1.1451 0.5316 0.0000 0.0000 -10638.5230 1440.8728 0.0000 0.0000 1760.3455 -7435.6279 300.5415 -9195.9735 -7492.7522 300.3360 180.5969 307.3151 30024.9975 6.2457 75.1040
TCL: Running FEP window   6: Lambda1 0.25   Lambda2 0.3    [dLambda 0.04999999999999999]
TCL: Setting parameter firsttimestep to 0
TCL: Setting parameter alchLambda to 0.25
Info: NONBONDED TABLE R-SQUARED SPACING: 0.0625
Info: NONBONDED TABLE SIZE: 705 POINTS
TCL: Setting parameter alchLambda2 to 0.3
Info: NONBONDED TABLE R-SQUARED SPACING: 0.0625
Info: NONBONDED TABLE SIZE: 705 POINTS
TCL: Running for 1500000 steps
ETITLE: TS BOND ANGLE DIHED IMPRP ELECT VDW BOUNDARY MISC KINETIC TOTAL TEMP POTENTIAL TOTALAVG TEMPAVG PRESSURE GPRESSURE VOLUME PRESSAVG GPRESSAVG
ENERGY: 0 1.1451 0.5316 0.0000 0.0000 -10638.5254 1440.7854 0.0000 0.0000 1759.4523 -7436.6110 300.3890 -9196.0633 -7436.6110 300.3890 207.0518 310.8292 30024.9975 207.0518 310.8292
ENERGY: 300000 1.1411 0.9011 0.0000 0.0000 -10690.5624 1450.4054 0.0000 0.0000 1767.1262 -7470.9885 301.6992 -9238.1147 -7502.2760 300.7720 7.4685 27.1610 30500.7771 393.5340 455.3812
ENERGY: 600000 1.4008 1.9615 0.0000 0.0000 -10715.7886 1414.5149 0.0000 0.0000 1764.3819 -7533.5296 301.2307 -9297.9115 -7521.6878 299.6131 -186.6114 -156.5836 30229.2258 225.2073 268.1706
ENERGY: 900000 1.4900 1.4640 0.0000 0.0000 -10725.6551 1423.8317 0.0000 0.0000 1734.4337 -7564.4356 296.1176 -9298.8693 -7531.2014 298.7940 -216.4511 -117.3099 30013.2176 -40.0980 13.9340
ENERGY: 1200000 2.5665 1.9684 0.0000 0.0000 -10813.7789 1531.4795 0.0000 0.0000 1771.8170 -7505.9475 302.5000 -9277.7645 -7531.0144 298.5868 403.3122 493.8534 30465.3916 10.4057 74.5830
ENERGY: 1500000 0.1128 1.0606 0.0000 0.0000 -10676.2433 1454.5328 0.0000 0.0000 1732.0251 -7488.5119 295.7064 -9220.5370 -7527.7542 298.3593 395.7775 470.9307 30058.1667 -8.4934 55.2161
TCL: Running FEP window   7: Lambda1 0.3    Lambda2 0.35   [dLambda 0.04999999999999999]
TCL: Setting parameter firsttimestep to 0
TCL: Setting parameter alchLambda to 0.3
Info: NONBONDED TABLE R-SQUARED SPACING: 0.0625
Info: NONBONDED TABLE SIZE: 705 POINTS
TCL: Setting parameter alchLambda2 to 0.35
Info: NONBONDED TABLE R-SQUARED SPACING: 0.0625
Info: NONBONDED TABLE SIZE: 705 POINTS
TCL: Running for 1500000 steps
ETITLE: TS BOND ANGLE DIHED IMPRP ELECT VDW BOUNDARY MISC KINETIC TOTAL TEMP POTENTIAL TOTALAVG TEMPAVG PRESSURE GPRESSURE VOLUME PRESSAVG GPRESSAVG
ENERGY: 0 0.1128 1.0606 0.0000 0.0000 -10676.2431 1454.3053 0.0000 0.0000 1731.1358 -7489.6285 295.5546 -9220.7643 -7489.6285 295.5546 386.2106 470.3489 30058.1667 386.2106 470.3489
ENERGY: 300000 1.0119 0.3718 0.0000 0.0000 -10628.2858 1351.7033 0.0000 0.0000 1753.5294 -7521.6695 299.3778 -9275.1989 -7485.0469 297.8910 -883.8136 -802.8433 30446.6516 -196.3569 -107.8717
ENERGY: 600000 0.8076 2.9982 0.0000 0.0000 -10668.9554 1469.4262 0.0000 0.0000 1770.9934 -7424.7300 302.3594 -9195.7234 -7471.5506 300.1759 272.0139 359.3365 30294.9118 -102.2389 -26.5603
ENERGY: 900000 0.8377 0.4788 0.0000 0.0000 -10847.2764 1527.0345 0.0000 0.0000 1760.6961 -7558.2293 300.6014 -9318.9254 -7486.6196 299.9055 505.5205 551.6290 30134.5682 44.6914 118.5900
ENERGY: 1200000 0.9091 1.4863 0.0000 0.0000 -10800.1501 1498.5207 0.0000 0.0000 1760.6897 -7538.5443 300.6003 -9299.2341 -7500.6768 299.5579 249.9419 300.4741 30293.8114 42.7409 117.1829
ENERGY: 1500000 0.7342 1.4929 0.0000 0.0000 -10575.3672 1386.8295 0.0000 0.0000 1708.5117 -7477.7989 291.6920 -9186.3106 -7500.7198 299.1772 -432.9960 -381.7694 30709.0525 -5.2658 59.9378
TCL: Running FEP window   8: Lambda1 0.35   Lambda2 0.39999999999999997 [dLambda 0.04999999999999999]
TCL: Setting parameter firsttimestep to 0
TCL: Setting parameter alchLambda to 0.35
Info: NONBONDED TABLE R-SQUARED SPACING: 0.0625
Info: NONBONDED TABLE SIZE: 705 POINTS
TCL: Setting parameter alchLambda2 to 0.39999999999999997
Info: NONBONDED TABLE R-SQUARED SPACING: 0.0625
Info: NONBONDED TABLE SIZE: 705 POINTS
TCL: Running for 1500000 steps
ETITLE: TS BOND ANGLE DIHED IMPRP ELECT VDW BOUNDARY MISC KINETIC TOTAL TEMP POTENTIAL TOTALAVG TEMPAVG PRESSURE GPRESSURE VOLUME PRESSAVG GPRESSAVG
ENERGY: 0 0.7342 1.4929 0.0000 0.0000 -10575.3673 1387.8755 0.0000 0.0000 1707.6319 -7477.6328 291.5418 -9185.2647 -7477.6328 291.5418 -461.3326 -371.5497 30709.0525 -461.3326 -371.5497
ENERGY: 300000 0.3346 1.1930 0.0000 0.0000 -10617.0783 1391.7065 0.0000 0.0000 1738.7621 -7485.0820 296.8566 -9223.8441 -7462.5331 299.2703 -267.0763 -199.1422 30326.0710 -414.8129 -340.0186
ENERGY: 600000 0.0271 1.9275 0.0000 0.0000 -10840.0948 1476.8431 0.0000 0.0000 1772.4861 -7588.8111 302.6143 -9361.2972 -7501.4620 299.9952 -22.2873 5.9230 30450.8035 -429.0971 -367.1242
ENERGY: 900000 0.4451 2.3638 0.0000 0.0000 -10660.4770 1387.6735 0.0000 0.0000 1785.7824 -7484.2122 304.8843 -9269.9946 -7507.7442 299.8401 -420.2371 -400.2395 30443.5796 -404.8791 -346.3728
ENERGY: 1200000 0.2462 1.9555 0.0000 0.0000 -10639.1812 1420.1192 0.0000 0.0000 1678.8398 -7538.0205 286.6262 -9216.8603 -7495.9677 300.2521 -173.5964 -107.5142 30441.7742 -378.2698 -316.1102
ENERGY: 1500000 0.1994 2.3475 0.0000 0.0000 -10673.3966 1431.7787 0.0000 0.0000 1758.2628 -7480.8081 300.1860 -9239.0710 -7504.7531 300.3783 -0.9897 48.4659 30300.7451 -255.1421 -192.3458
TCL: Running FEP window   9: Lambda1 0.39999999999999997 Lambda2 0.44999999999999996 [dLambda 0.04999999999999999]
TCL: Setting parameter firsttimestep to 0
TCL: Setting parameter alchLambda to 0.39999999999999997
Info: NONBONDED TABLE R-SQUARED SPACING: 0.0625
Info: NONBONDED TABLE SIZE: 705 POINTS
TCL: Setting parameter alchLambda2 to 0.44999999999999996
Info: NONBONDED TABLE R-SQUARED SPACING: 0.0625
Info: NONBONDED TABLE SIZE: 705 POINTS
TCL: Running for 1500000 steps
ETITLE: TS BOND ANGLE DIHED IMPRP ELECT VDW BOUNDARY MISC KINETIC TOTAL TEMP POTENTIAL TOTALAVG TEMPAVG PRESSURE GPRESSURE VOLUME PRESSAVG GPRESSAVG
ENERGY: 0 0.1994 2.3475 0.0000 0.0000 -10673.3968 1431.7199 0.0000 0.0000 1757.3884 -7481.7416 300.0367 -9239.1300 -7481.7416 300.0367 -17.6314 51.7557 30300.7451 -17.6314 51.7557
ENERGY: 300000 4.1390 0.6070 0.0000 0.0000 -10766.9992 1414.4080 0.0000 0.0000 1757.6616 -7590.1835 300.0833 -9347.8451 -7493.2213 302.6690 -582.0641 -521.6271 30304.9934 34.5886 103.9546
ENERGY: 600000 0.6611 0.7092 0.0000 0.0000 -10770.7002 1481.6228 0.0000 0.0000 1745.7873 -7541.9198 298.0560 -9287.7071 -7503.0652 300.0912 461.4333 626.8633 29844.5534 -41.4997 30.2121
ENERGY: 900000 0.4160 1.1556 0.0000 0.0000 -10596.3433 1346.3528 0.0000 0.0000 1753.7072 -7494.7118 299.4082 -9248.4190 -7496.8761 299.4710 -667.9112 -640.1291 30335.2931 -119.1154 -57.8440
ENERGY: 1200000 0.7020 1.5070 0.0000 0.0000 -10809.4161 1527.3453 0.0000 0.0000 1735.4776 -7544.3841 296.2959 -9279.8617 -7502.2751 299.4761 517.3236 642.2610 30403.0258 -2.5227 69.7873
ENERGY: 1500000 0.7152 0.4916 0.0000 0.0000 -10638.2048 1414.2541 0.0000 0.0000 1784.6034 -7438.1405 304.6831 -9222.7439 -7500.0540 299.3872 -39.0522 -0.4654 30252.3866 8.8391 80.6928
TCL: Running FEP window  10: Lambda1 0.44999999999999996 Lambda2 0.49999999999999994 [dLambda 0.04999999999999999]
TCL: Setting parameter firsttimestep to 0
TCL: Setting parameter alchLambda to 0.44999999999999996
Info: NONBONDED TABLE R-SQUARED SPACING: 0.0625
Info: NONBONDED TABLE SIZE: 705 POINTS
TCL: Setting parameter alchLambda2 to 0.49999999999999994
Info: NONBONDED TABLE R-SQUARED SPACING: 0.0625
Info: NONBONDED TABLE SIZE: 705 POINTS
TCL: Running for 1500000 steps
ETITLE: TS BOND ANGLE DIHED IMPRP ELECT VDW BOUNDARY MISC KINETIC TOTAL TEMP POTENTIAL TOTALAVG TEMPAVG PRESSURE GPRESSURE VOLUME PRESSAVG GPRESSAVG
ENERGY: 0 0.7152 0.4916 0.0000 0.0000 -10638.2039 1413.9467 0.0000 0.0000 1783.7142 -7439.3362 304.5312 -9223.0504 -7439.3362 304.5312 -77.6804 0.1323 30252.3866 -77.6804 0.1323
ENERGY: 300000 0.5126 1.7165 0.0000 0.0000 -10680.2242 1391.8315 0.0000 0.0000 1788.9466 -7497.2169 305.4246 -9286.1635 -7480.2993 304.8310 -649.2298 -607.4534 30754.9573 207.4790 257.5646
ENERGY: 600000 1.9500 1.7587 0.0000 0.0000 -10768.1438 1473.6665 0.0000 0.0000 1791.7007 -7499.0679 305.8948 -9290.7686 -7479.2158 304.1162 305.0868 336.2237 29997.3343 192.8273 238.1643
ENERGY: 900000 1.4432 1.0081 0.0000 0.0000 -10801.7466 1450.1137 0.0000 0.0000 1763.1259 -7586.0557 301.0162 -9349.1816 -7502.5623 303.3255 -160.7972 -154.7812 30229.7793 5.4521 57.4644
ENERGY: 1200000 0.8452 1.7968 0.0000 0.0000 -10674.6533 1433.0626 0.0000 0.0000 1734.5949 -7504.3538 296.1452 -9238.9487 -7501.1318 301.6077 28.5909 70.0542 30330.2758 -6.2666 50.5256
ENERGY: 1500000 2.0608 1.2889 0.0000 0.0000 -10602.9618 1436.3119 0.0000 0.0000 1725.1009 -7438.1994 294.5243 -9163.3003 -7496.9670 300.5481 337.0893 406.6604 30083.5325 -23.4672 34.6422
TCL: Running FEP window  11: Lambda1 0.49999999999999994 Lambda2 0.5499999999999999 [dLambda 0.04999999999999999]
TCL: Setting parameter firsttimestep to 0
TCL: Setting parameter alchLambda to 0.49999999999999994
Info: NONBONDED TABLE R-SQUARED SPACING: 0.0625
Info: NONBONDED TABLE SIZE: 705 POINTS
TCL: Setting parameter alchLambda2 to 0.5499999999999999
Info: NONBONDED TABLE R-SQUARED SPACING: 0.0625
Info: NONBONDED TABLE SIZE: 705 POINTS
TCL: Running for 1500000 steps
ETITLE: TS BOND ANGLE DIHED IMPRP ELECT VDW BOUNDARY MISC KINETIC TOTAL TEMP POTENTIAL TOTALAVG TEMPAVG PRESSURE GPRESSURE VOLUME PRESSAVG GPRESSAVG
ENERGY: 0 2.0608 1.2889 0.0000 0.0000 -10602.9612 1437.2792 0.0000 0.0000 1724.2454 -7438.0869 294.3782 -9162.3323 -7438.0869 294.3782 325.9967 418.1840 30083.5325 325.9967 418.1840
ENERGY: 300000 0.5610 1.4821 0.0000 0.0000 -10588.9021 1362.2791 0.0000 0.0000 1757.5486 -7467.0314 300.0640 -9224.5800 -7474.0982 300.8660 -651.3564 -534.4634 30513.7395 -163.5533 -84.3697
ENERGY: 600000 0.5875 3.5286 0.0000 0.0000 -10535.4217 1334.5187 0.0000 0.0000 1752.8759 -7443.9110 299.2663 -9196.7869 -7499.7527 299.0266 -624.3029 -543.7468 30464.2476 -369.7066 -298.2934
ENERGY: 900000 0.6610 1.0784 0.0000 0.0000 -10724.0726 1462.8690 0.0000 0.0000 1748.3674 -7511.0968 298.4965 -9259.4642 -7491.6643 298.7405 -12.5381 133.2069 30299.7660 -270.4994 -185.7579
ENERGY: 1200000 1.2806 2.4853 0.0000 0.0000 -10797.4114 1435.2208 0.0000 0.0000 1785.4498 -7572.9748 304.8276 -9358.4246 -7486.6197 299.7056 -295.4951 -239.7286 30119.7737 -295.5940 -221.1982
ENERGY: 1500000 1.3389 2.7583 0.0000 0.0000 -10757.8898 1497.1042 0.0000 0.0000 1819.8745 -7436.8138 310.7048 -9256.6884 -7488.4132 299.8549 415.2044 500.4703 30280.3904 -227.7241 -155.2673
TCL: Running FEP window  12: Lambda1 0.5499999999999999 Lambda2 0.6    [dLambda 0.050000000000000044]
TCL: Setting parameter firsttimestep to 0
TCL: Setting parameter alchLambda to 0.5499999999999999
Info: NONBONDED TABLE R-SQUARED SPACING: 0.0625
Info: NONBONDED TABLE SIZE: 705 POINTS
TCL: Setting parameter alchLambda2 to 0.6
Info: NONBONDED TABLE R-SQUARED SPACING: 0.0625
Info: NONBONDED TABLE SIZE: 705 POINTS
TCL: Running for 1500000 steps
ETITLE: TS BOND ANGLE DIHED IMPRP ELECT VDW BOUNDARY MISC KINETIC TOTAL TEMP POTENTIAL TOTALAVG TEMPAVG PRESSURE GPRESSURE VOLUME PRESSAVG GPRESSAVG
ENERGY: 0 1.3389 2.7583 0.0000 0.0000 -10758.1121 1497.1461 0.0000 0.0000 1818.9990 -7437.8698 310.5554 -9256.8688 -7437.8698 310.5554 419.4402 503.0218 30280.3904 419.4402 503.0218
ENERGY: 300000 1.0767 0.4735 0.0000 0.0000 -10714.9429 1397.4595 0.0000 0.0000 1794.5647 -7521.3685 306.3837 -9315.9332 -7498.1163 305.9597 -420.6265 -360.6503 30173.9615 18.8855 95.2433
ENERGY: 600000 0.3085 3.4498 0.0000 0.0000 -10675.7183 1390.5914 0.0000 0.0000 1712.0741 -7569.2945 292.3002 -9281.3686 -7496.4314 301.2263 -421.8619 -367.9142 30393.3321 -211.5648 -144.1232
ENERGY: 900000 1.0025 2.2565 0.0000 0.0000 -10734.6900 1443.0219 0.0000 0.0000 1728.8819 -7559.5272 295.1698 -9288.4091 -7499.6804 301.9136 -109.7091 -48.2654 30422.6718 -169.0606 -105.2437
ENERGY: 1200000 0.8864 0.4358 0.0000 0.0000 -10710.7428 1440.2838 0.0000 0.0000 1711.9053 -7557.2315 292.2714 -9269.1368 -7497.3684 302.4461 -182.3926 -132.0963 30560.9970 -53.6940 14.0178
ENERGY: 1500000 1.1344 0.7954 0.0000 0.0000 -10786.6410 1519.0225 0.0000 0.0000 1745.3236 -7520.3651 297.9769 -9265.6887 -7501.7939 302.1483 401.6494 473.0249 30446.6891 6.0236 74.6212
TCL: Running FEP window  13: Lambda1 0.6    Lambda2 0.65   [dLambda 0.050000000000000044]
TCL: Setting parameter firsttimestep to 0
TCL: Setting parameter alchLambda to 0.6
Info: NONBONDED TABLE R-SQUARED SPACING: 0.0625
Info: NONBONDED TABLE SIZE: 705 POINTS
TCL: Setting parameter alchLambda2 to 0.65
Info: NONBONDED TABLE R-SQUARED SPACING: 0.0625
Info: NONBONDED TABLE SIZE: 705 POINTS
TCL: Running for 1500000 steps
ETITLE: TS BOND ANGLE DIHED IMPRP ELECT VDW BOUNDARY MISC KINETIC TOTAL TEMP POTENTIAL TOTALAVG TEMPAVG PRESSURE GPRESSURE VOLUME PRESSAVG GPRESSAVG
ENERGY: 0 1.1344 0.7954 0.0000 0.0000 -10786.8386 1518.7503 0.0000 0.0000 1744.4378 -7521.7206 297.8256 -9266.1584 -7521.7206 297.8256 403.7058 473.6673 30446.6891 403.7058 473.6673
ENERGY: 300000 0.2939 1.4225 0.0000 0.0000 -10629.5071 1387.8447 0.0000 0.0000 1804.0363 -7435.9096 308.0008 -9239.9460 -7528.1145 298.4426 -407.3399 -401.1516 30714.9570 308.9671 360.3493
ENERGY: 600000 1.1313 1.6333 0.0000 0.0000 -10564.3937 1335.7740 0.0000 0.0000 1762.4663 -7463.3888 300.9036 -9225.8551 -7526.0870 298.9508 -962.4884 -873.5917 30874.6637 -135.9321 -74.4319
ENERGY: 900000 0.9280 1.2978 0.0000 0.0000 -10653.2689 1449.2706 0.0000 0.0000 1794.7413 -7407.0310 306.4139 -9201.7724 -7511.1793 299.4629 438.6263 511.2180 30138.2350 -172.9527 -106.3734
ENERGY: 1200000 1.4683 2.0799 0.0000 0.0000 -10771.0316 1448.3753 0.0000 0.0000 1802.3336 -7516.7745 307.7101 -9319.1081 -7516.2169 300.0213 -287.7266 -215.3510 30761.4801 -220.4037 -150.8824
ENERGY: 1500000 0.4122 1.3457 0.0000 0.0000 -10741.1007 1431.4758 0.0000 0.0000 1784.2493 -7523.6178 304.6226 -9307.8671 -7515.2616 300.9425 -269.5311 -185.2896 30419.1397 -131.8778 -63.9257
TCL: Running FEP window  14: Lambda1 0.65   Lambda2 0.7000000000000001 [dLambda 0.050000000000000044]
TCL: Setting parameter firsttimestep to 0
TCL: Setting parameter alchLambda to 0.65
Info: NONBONDED TABLE R-SQUARED SPACING: 0.0625
Info: NONBONDED TABLE SIZE: 705 POINTS
TCL: Setting parameter alchLambda2 to 0.7000000000000001
Info: NONBONDED TABLE R-SQUARED SPACING: 0.0625
Info: NONBONDED TABLE SIZE: 705 POINTS
TCL: Running for 1500000 steps
ETITLE: TS BOND ANGLE DIHED IMPRP ELECT VDW BOUNDARY MISC KINETIC TOTAL TEMP POTENTIAL TOTALAVG TEMPAVG PRESSURE GPRESSURE VOLUME PRESSAVG GPRESSAVG
ENERGY: 0 0.4122 1.3457 0.0000 0.0000 -10741.3706 1432.8049 0.0000 0.0000 1783.3528 -7523.4551 304.4695 -9306.8079 -7523.4551 304.4695 -244.8123 -170.0235 30419.1397 -244.8123 -170.0235
ENERGY: 300000 0.7163 0.8597 0.0000 0.0000 -10781.5435 1466.5557 0.0000 0.0000 1703.4385 -7609.9733 290.8259 -9313.4118 -7524.0478 300.8573 199.7616 329.9285 29866.2713 295.8993 373.8950
ENERGY: 600000 0.4256 0.9198 0.0000 0.0000 -10718.1939 1363.0346 0.0000 0.0000 1819.6851 -7534.1288 310.6725 -9353.8139 -7521.8952 303.4930 -993.2717 -896.8233 30425.9159 143.5999 218.1347
ENERGY: 900000 1.8026 2.2592 0.0000 0.0000 -10611.9708 1417.9199 0.0000 0.0000 1740.2479 -7449.7412 297.1103 -9189.9891 -7516.8234 301.5110 -230.2060 -160.7496 30742.9614 64.9739 135.2342
ENERGY: 1200000 0.4497 1.2813 0.0000 0.0000 -10758.0754 1509.2859 0.0000 0.0000 1730.6521 -7516.4064 295.4720 -9247.0585 -7515.8545 300.4150 684.5225 745.1714 30157.8479 131.2574 193.7842
ENERGY: 1500000 1.4514 1.2493 0.0000 0.0000 -10690.8418 1456.4647 0.0000 0.0000 1721.0166 -7510.6598 293.8270 -9231.6764 -7516.6782 299.7195 83.9153 94.2544 30583.6114 71.3204 134.5437
TCL: Running FEP window  15: Lambda1 0.7000000000000001 Lambda2 0.7500000000000001 [dLambda 0.050000000000000044]
TCL: Setting parameter firsttimestep to 0
TCL: Setting parameter alchLambda to 0.7000000000000001
Info: NONBONDED TABLE R-SQUARED SPACING: 0.0625
Info: NONBONDED TABLE SIZE: 705 POINTS
TCL: Setting parameter alchLambda2 to 0.7500000000000001
Info: NONBONDED TABLE R-SQUARED SPACING: 0.0625
Info: NONBONDED TABLE SIZE: 705 POINTS
TCL: Running for 1500000 steps
ETITLE: TS BOND ANGLE DIHED IMPRP ELECT VDW BOUNDARY MISC KINETIC TOTAL TEMP POTENTIAL TOTALAVG TEMPAVG PRESSURE GPRESSURE VOLUME PRESSAVG GPRESSAVG
ENERGY: 0 1.4514 1.2493 0.0000 0.0000 -10690.7779 1456.6202 0.0000 0.0000 1720.1384 -7511.3186 293.6770 -9231.4570 -7511.3186 293.6770 15.4351 97.9866 30583.6114 15.4351 97.9866
ENERGY: 300000 3.9467 1.6286 0.0000 0.0000 -10679.8896 1488.4344 0.0000 0.0000 1730.8964 -7454.9835 295.5137 -9185.8799 -7477.1719 298.7418 557.5159 580.6384 30211.4370 197.4094 241.1873
ENERGY: 600000 2.9198 4.9306 0.0000 0.0000 -10662.4666 1407.7036 0.0000 0.0000 1778.0141 -7468.8984 303.5581 -9246.9126 -7484.7299 299.4402 -147.2057 -95.4085 30571.0278 130.6321 190.0148
ENERGY: 900000 1.7672 1.9260 0.0000 0.0000 -10714.4997 1419.1982 0.0000 0.0000 1731.2754 -7560.3329 295.5784 -9291.6083 -7502.1112 298.1239 -251.7519 -110.8233 30071.1277 189.3362 261.0075
ENERGY: 1200000 1.3869 2.5705 0.0000 0.0000 -10772.7077 1522.0266 0.0000 0.0000 1762.4041 -7484.3195 300.8930 -9246.7236 -7503.3684 297.3221 720.4011 751.4385 30074.0364 191.4899 262.0821
ENERGY: 1500000 4.2201 2.8413 0.0000 0.0000 -10811.3166 1527.3864 0.0000 0.0000 1740.8195 -7536.0493 297.2079 -9276.8688 -7502.7390 297.2103 634.5400 701.3592 30475.0347 217.4328 287.8938
TCL: Running FEP window  16: Lambda1 0.7500000000000001 Lambda2 0.8000000000000002 [dLambda 0.050000000000000044]
TCL: Setting parameter firsttimestep to 0
TCL: Setting parameter alchLambda to 0.7500000000000001
Info: NONBONDED TABLE R-SQUARED SPACING: 0.0625
Info: NONBONDED TABLE SIZE: 705 POINTS
TCL: Setting parameter alchLambda2 to 0.8000000000000002
Info: NONBONDED TABLE R-SQUARED SPACING: 0.0625
Info: NONBONDED TABLE SIZE: 705 POINTS
TCL: Running for 1500000 steps
ETITLE: TS BOND ANGLE DIHED IMPRP ELECT VDW BOUNDARY MISC KINETIC TOTAL TEMP POTENTIAL TOTALAVG TEMPAVG PRESSURE GPRESSURE VOLUME PRESSAVG GPRESSAVG
ENERGY: 0 4.2201 2.8413 0.0000 0.0000 -10811.2498 1527.3527 0.0000 0.0000 1739.9123 -7536.9234 297.0530 -9276.8357 -7536.9234 297.0530 617.6302 703.7318 30475.0347 617.6302 703.7318
ENERGY: 300000 3.7660 2.3905 0.0000 0.0000 -10559.7713 1330.4954 0.0000 0.0000 1704.6233 -7518.4960 291.0281 -9223.1193 -7490.1838 297.4314 -866.8982 -806.8081 30472.2835 167.9563 239.0981
ENERGY: 600000 1.0721 1.3923 0.0000 0.0000 -10736.6091 1496.2228 0.0000 0.0000 1713.9750 -7523.9469 292.6247 -9237.9219 -7488.8382 298.5799 739.2379 850.9935 29661.4017 299.4053 373.9725
ENERGY: 900000 1.3302 0.9959 0.0000 0.0000 -10650.9492 1384.3433 0.0000 0.0000 1744.3557 -7519.9242 297.8116 -9264.2799 -7493.7037 298.4008 -465.3895 -434.5160 30401.9020 153.3710 217.3499
ENERGY: 1200000 1.3258 3.4377 0.0000 0.0000 -10645.3213 1433.9518 0.0000 0.0000 1790.4873 -7416.1187 305.6876 -9206.6060 -7499.6039 299.4745 49.9057 129.6361 30401.4918 132.8315 198.1857
ENERGY: 1500000 2.8109 0.7812 0.0000 0.0000 -10820.4555 1513.3410 0.0000 0.0000 1714.7471 -7588.7753 292.7566 -9303.5224 -7501.8631 298.7426 444.6563 507.6871 29968.6063 123.1816 184.5156
TCL: Running FEP window  17: Lambda1 0.8000000000000002 Lambda2 0.8500000000000002 [dLambda 0.050000000000000044]
TCL: Setting parameter firsttimestep to 0
TCL: Setting parameter alchLambda to 0.8000000000000002
Info: NONBONDED TABLE R-SQUARED SPACING: 0.0625
Info: NONBONDED TABLE SIZE: 705 POINTS
TCL: Setting parameter alchLambda2 to 0.8500000000000002
Info: NONBONDED TABLE R-SQUARED SPACING: 0.0625
Info: NONBONDED TABLE SIZE: 705 POINTS
TCL: Running for 1500000 steps
ETITLE: TS BOND ANGLE DIHED IMPRP ELECT VDW BOUNDARY MISC KINETIC TOTAL TEMP POTENTIAL TOTALAVG TEMPAVG PRESSURE GPRESSURE VOLUME PRESSAVG GPRESSAVG
ENERGY: 0 2.8109 0.7812 0.0000 0.0000 -10820.4674 1513.9839 0.0000 0.0000 1713.8828 -7589.0086 292.6090 -9302.8914 -7589.0086 292.6090 428.1931 521.0693 29968.6063 428.1931 521.0693
ENERGY: 300000 1.0318 1.3079 0.0000 0.0000 -10740.1237 1473.9399 0.0000 0.0000 1722.4246 -7541.4195 294.0673 -9263.8441 -7570.0623 291.9740 209.8312 246.3409 30548.1663 302.2791 365.4823
ENERGY: 600000 0.6616 1.4617 0.0000 0.0000 -10570.0418 1324.3970 0.0000 0.0000 1761.6160 -7481.9055 300.7584 -9243.5215 -7560.4996 295.2867 -860.1109 -724.2174 30326.2509 -47.0928 20.4365
ENERGY: 900000 0.9670 0.8843 0.0000 0.0000 -10754.3434 1468.4299 0.0000 0.0000 1756.9313 -7527.1309 299.9586 -9284.0622 -7546.5032 297.8061 365.3564 429.3194 30145.6886 58.8537 121.8529
ENERGY: 1200000 1.5091 0.7592 0.0000 0.0000 -10543.8795 1331.9811 0.0000 0.0000 1781.3753 -7428.2549 304.1319 -9209.6302 -7533.0657 298.1014 -793.6644 -758.7584 30731.5635 -86.5729 -30.6435
ENERGY: 1500000 2.7680 3.7024 0.0000 0.0000 -10858.8617 1569.8196 0.0000 0.0000 1785.2135 -7497.3582 304.7872 -9282.5717 -7528.6248 298.7783 647.8958 707.5265 30720.9637 24.7744 83.0084
TCL: Running FEP window  18: Lambda1 0.8500000000000002 Lambda2 0.9000000000000002 [dLambda 0.050000000000000044]
TCL: Setting parameter firsttimestep to 0
TCL: Setting parameter alchLambda to 0.8500000000000002
Info: NONBONDED TABLE R-SQUARED SPACING: 0.0625
Info: NONBONDED TABLE SIZE: 705 POINTS
TCL: Setting parameter alchLambda2 to 0.9000000000000002
Info: NONBONDED TABLE R-SQUARED SPACING: 0.0625
Info: NONBONDED TABLE SIZE: 705 POINTS
TCL: Running for 1500000 steps
ETITLE: TS BOND ANGLE DIHED IMPRP ELECT VDW BOUNDARY MISC KINETIC TOTAL TEMP POTENTIAL TOTALAVG TEMPAVG PRESSURE GPRESSURE VOLUME PRESSAVG GPRESSAVG
ENERGY: 0 2.7680 3.7024 0.0000 0.0000 -10858.8465 1569.8217 0.0000 0.0000 1784.3189 -7498.2355 304.6345 -9282.5544 -7498.2355 304.6345 628.7666 711.5655 30720.9637 628.7666 711.5655
ENERGY: 300000 0.9778 1.9725 0.0000 0.0000 -10703.8072 1385.4745 0.0000 0.0000 1765.3778 -7550.0046 301.4007 -9315.3823 -7493.1275 306.5336 -131.3930 -105.9819 29922.4792 182.3357 230.5610
ENERGY: 600000 0.0904 2.2321 0.0000 0.0000 -10664.3703 1430.7536 0.0000 0.0000 1716.8237 -7514.4705 293.1111 -9231.2942 -7505.9554 302.1594 -295.8058 -186.5139 30822.8050 167.9997 242.9559
ENERGY: 900000 0.2918 1.1739 0.0000 0.0000 -10601.1081 1396.5083 0.0000 0.0000 1747.8975 -7455.2365 298.4163 -9203.1340 -7498.3473 301.3675 -235.0955 -186.5350 30616.2733 54.7476 129.1113
ENERGY: 1200000 1.2015 3.8090 0.0000 0.0000 -10764.1005 1476.2905 0.0000 0.0000 1781.5037 -7501.2958 304.1538 -9282.7995 -7512.4486 300.6850 258.1628 288.8417 30168.9138 65.7616 126.0881
ENERGY: 1500000 1.5909 0.8199 0.0000 0.0000 -10726.1395 1408.5561 0.0000 0.0000 1765.0041 -7550.1686 301.3369 -9315.1727 -7515.3567 301.0389 -380.5044 -295.2896 30259.9837 116.3742 175.5983
TCL: Running FEP window  19: Lambda1 0.9000000000000002 Lambda2 0.9500000000000003 [dLambda 0.050000000000000044]
TCL: Setting parameter firsttimestep to 0
TCL: Setting parameter alchLambda to 0.9000000000000002
Info: NONBONDED TABLE R-SQUARED SPACING: 0.0625
Info: NONBONDED TABLE SIZE: 705 POINTS
TCL: Setting parameter alchLambda2 to 0.9500000000000003
Info: NONBONDED TABLE R-SQUARED SPACING: 0.0625
Info: NONBONDED TABLE SIZE: 705 POINTS
TCL: Running for 1500000 steps
ETITLE: TS BOND ANGLE DIHED IMPRP ELECT VDW BOUNDARY MISC KINETIC TOTAL TEMP POTENTIAL TOTALAVG TEMPAVG PRESSURE GPRESSURE VOLUME PRESSAVG GPRESSAVG
ENERGY: 0 1.5909 0.8199 0.0000 0.0000 -10726.2891 1409.1375 0.0000 0.0000 1764.0838 -7550.6570 301.1798 -9314.7408 -7550.6570 301.1798 -355.1324 -284.5188 30259.9837 -355.1324 -284.5188
ENERGY: 300000 2.1193 0.4658 0.0000 0.0000 -10664.9968 1415.3007 0.0000 0.0000 1725.1632 -7521.9477 294.5349 -9247.1109 -7516.9982 297.7830 -127.2748 -37.7321 30363.0695 50.1080 99.3559
ENERGY: 600000 1.5868 2.5445 0.0000 0.0000 -10893.4360 1581.0612 0.0000 0.0000 1799.5714 -7508.6721 307.2385 -9308.2435 -7499.4119 300.4763 1139.3439 1265.2233 30165.3216 189.5369 247.9039
ENERGY: 900000 0.8110 1.5835 0.0000 0.0000 -10709.3547 1408.5401 0.0000 0.0000 1787.0198 -7511.4003 305.0956 -9298.4201 -7503.4864 300.7077 -229.2379 -115.4279 30145.2477 231.2837 297.8066
ENERGY: 1200000 3.1730 1.4476 0.0000 0.0000 -10434.1728 1302.6373 0.0000 0.0000 1719.6458 -7407.2691 293.5929 -9126.9149 -7497.5497 300.5563 -786.4807 -705.4733 30498.5888 204.4287 276.3601
ENERGY: 1500000 0.7130 2.4243 0.0000 0.0000 -10650.1857 1376.9313 0.0000 0.0000 1794.9965 -7475.1206 306.4575 -9270.1171 -7490.8094 301.2858 -201.9356 -137.9569 30045.8619 123.8315 190.0445
TCL: Running FEP window  20: Lambda1 0.9500000000000003 Lambda2 1.0    [dLambda 0.04999999999999971]
TCL: Setting parameter firsttimestep to 0
TCL: Setting parameter alchLambda to 0.9500000000000003
Info: NONBONDED TABLE R-SQUARED SPACING: 0.0625
Info: NONBONDED TABLE SIZE: 705 POINTS
TCL: Setting parameter alchLambda2 to 1.0
Info: NONBONDED TABLE R-SQUARED SPACING: 0.0625
Info: NONBONDED TABLE SIZE: 705 POINTS
TCL: Running for 1500000 steps
ETITLE: TS BOND ANGLE DIHED IMPRP ELECT VDW BOUNDARY MISC KINETIC TOTAL TEMP POTENTIAL TOTALAVG TEMPAVG PRESSURE GPRESSURE VOLUME PRESSAVG GPRESSAVG
ENERGY: 0 0.7130 2.4243 0.0000 0.0000 -10650.3315 1376.7902 0.0000 0.0000 1794.1149 -7476.2892 306.3069 -9270.4041 -7476.2892 306.3069 -235.8726 -131.6137 30045.8619 -235.8726 -131.6137
ENERGY: 300000 1.3779 1.8591 0.0000 0.0000 -10721.1489 1449.3423 0.0000 0.0000 1767.0602 -7501.5095 301.6879 -9268.5697 -7544.0705 300.6331 -139.1831 -38.3955 30444.0861 -55.7116 22.8572
ENERGY: 600000 1.8870 1.0899 0.0000 0.0000 -10718.4902 1375.8999 0.0000 0.0000 1809.3886 -7530.2249 308.9146 -9339.6135 -7535.7335 301.8495 -731.2366 -679.9118 30612.6850 -204.6923 -123.2587
ENERGY: 900000 0.7324 0.5866 0.0000 0.0000 -10755.0530 1450.4474 0.0000 0.0000 1811.4265 -7491.8601 309.2625 -9303.2866 -7536.7775 301.4766 -7.9785 3.4541 30369.2950 -266.1734 -187.8411
ENERGY: 1200000 0.7292 1.0872 0.0000 0.0000 -10732.8300 1449.0936 0.0000 0.0000 1743.2631 -7538.6569 297.6251 -9281.9200 -7525.6552 301.2821 -188.8917 -141.1439 30625.4509 -332.6032 -256.2185
ENERGY: 1500000 3.1333 1.7590 0.0000 0.0000 -10738.3926 1410.9788 0.0000 0.0000 1781.2324 -7541.2891 304.1075 -9322.5215 -7524.8816 301.9940 -135.6751 -132.7770 30279.8854 -339.1476 -271.1057
TCL: Exiting due to exit command.
