Info: SIMULATION PARAMETERS:
Info: TIMESTEP               2
Info: NUMBER OF STEPS        0
Info: STEPS PER CYCLE        10
Info: PERIODIC CELL BASIS 1  34.207 0 0
Info: PERIODIC CELL BASIS 2  0 37.796 0
Info: PERIODIC CELL BASIS 3  0 0 34.954
Info: PERIODIC CELL CENTER   0 0 0
Info: WRAPPING WATERS AROUND PERIODIC BOUNDARIES ON OUTPUT.
Info: WRAPPING ALL CLUSTERS AROUND PERIODIC BOUNDARIES ON OUTPUT.
Info: FIRST LDB TIMESTEP     50
Info: LAST LDB TIMESTEP     -1
Info: HOM BACKGROUND SCALING 1
Info: PME BACKGROUND SCALING 1
Info: MIN ATOMS PER PATCH    40
Info: EMPTY PATCH LOAD       40 ATOMS
Info: INITIAL TEMPERATURE    300
Info: CENTER OF MASS MOVING INITIALLY? NO
Info: DIELECTRIC             1
Info: EXCLUDE                SCALED ONE-FOUR
Info: 1-4 ELECTROSTATICS SCALED BY 0.833333
Info: MODIFIED 1-4 VDW PARAMETERS WILL BE USED
Info: DCD FILENAME           mobley_3414356_equil.dcd
Info: DCD FREQUENCY          100000
Info: DCD FIRST STEP         100000
Info: DCD FILE WILL CONTAIN UNIT CELL DATA
Info: XST FILENAME           mobley_3414356_equil.xst
Info: XST FREQUENCY          100000
Info: NO VELOCITY DCD OUTPUT
Info: NO FORCE DCD OUTPUT
Info: OUTPUT FILENAME        mobley_3414356_equil
Info: BINARY OUTPUT FILES WILL BE USED
Info: RESTART FILENAME       mobley_3414356_equil.restart
Info: RESTART FREQUENCY      100000
Info: BINARY RESTART FILES WILL BE USED
Info: CUTOFF                 9
Info: PAIRLIST DISTANCE      11
Info: PAIRLIST SHRINK RATE   0.01
Info: PAIRLIST GROW RATE     0.01
Info: PAIRLIST TRIGGER       0.3
Info: PAIRLISTS PER CYCLE    2
Info: PAIRLISTS ENABLED
Info: MARGIN                 8
Info: HYDROGEN GROUP CUTOFF  2.5
Info: PATCH DIMENSION        21.5
Info: ENERGY OUTPUT STEPS    100000
Info: ENERGY EVALUATION STEPS    100000
Info: OUTPUT ENERGY PRECISION 4
Info: CROSSTERM ENERGY INCLUDED IN DIHEDRAL
Info: TIMING OUTPUT STEPS    1000000
Info: PRESSURE OUTPUT STEPS  100000
Info: LANGEVIN DYNAMICS ACTIVE
Info: LANGEVIN TEMPERATURE   30
Info: LANGEVIN USING BBK INTEGRATOR
Info: LANGEVIN DAMPING COEFFICIENT IS 1 INVERSE PS
Info: LANGEVIN DYNAMICS APPLIED TO HYDROGENS
Info: LANGEVIN PISTON PRESSURE CONTROL ACTIVE
Info:        TARGET PRESSURE IS 1.01325 BAR
Info:     OSCILLATION PERIOD IS 50 FS
Info:             DECAY TIME IS 25 FS
Info:     PISTON TEMPERATURE IS 300 K
Info:       PRESSURE CONTROL IS GROUP-BASED
Info:    INITIAL STRAIN RATE IS 0 0 0
Info:       CELL FLUCTUATION IS ISOTROPIC
Info: PARTICLE MESH EWALD (PME) ACTIVE
Info: PME TOLERANCE               1e-06
Info: PME EWALD COEFFICIENT       0.348832
Info: PME INTERPOLATION ORDER     4
Info: PME GRID DIMENSIONS         36 40 36
Info: PME MAXIMUM GRID SPACING    1
Info: FULL ELECTROSTATIC EVALUATION FREQUENCY      2
Info: USING VERLET I (r-RESPA) MTS SCHEME.
Info: C1 SPLITTING OF LONG RANGE ELECTROSTATICS
Info: PLACING ATOMS IN PATCHES BY HYDROGEN GROUPS
Info: RIGID BONDS TO HYDROGEN : ALL
Info:         ERROR TOLERANCE : 1e-08
Info:          MAX ITERATIONS : 100
Info: RIGID WATER USING SETTLE ALGORITHM
Info: RANDOM NUMBER SEED     1743243787
Info: USE HYDROGEN BONDS?    NO
Info: Using AMBER format force field!
Info: AMBER PARM FILE        mobley_3414356.prmtop
Info: COORDINATE PDB         mobley_3414356.pdb
Info: Exclusions will be read from PARM file!
Info: SCNB (VDW SCALING)     2
Info: USING ARITHMETIC MEAN TO COMBINE L-J SIGMA PARAMETERS
Info: BINARY COORDINATES     mobley_3414356_min.coor
Info: SUMMARY OF PARAMETERS:
Info: 6 BONDS
Info: 5 ANGLES
Info: 8 DIHEDRAL
Info: 0 IMPROPER
Info: 0 CROSSTERM
Info: 0 VDW
Info: 15 VDW_PAIRS
Info: 0 NBTHOLE_PAIRS
Info: STRUCTURE SUMMARY:
Info: 2970 ATOMS
Info: 2969 BONDS
Info: 37 ANGLES
Info: 65 DIHEDRALS
Info: 0 IMPROPERS
Info: 0 CROSSTERMS
Info: 3054 EXCLUSIONS
Info: 2963 RIGID BONDS
Info: 5947 DEGREES OF FREEDOM
Info: 990 HYDROGEN GROUPS
Info: 4 ATOMS IN LARGEST HYDROGEN GROUP
Info: 990 MIGRATION GROUPS
Info: 4 ATOMS IN LARGEST MIGRATION GROUP
Info: TOTAL MASS = 17811.9 amu
Info: TOTAL CHARGE = 0.00029999 e
Info: MASS DENSITY = 0.654503 g/cm^3
Info: ATOM DENSITY = 0.0657202 atoms/A^3
Info: ADDED 0 IMPLICIT EXCLUSIONS
Info: NONBONDED TABLE R-SQUARED SPACING: 0.0625
Info: NONBONDED TABLE SIZE: 705 POINTS
Info: REMOVING COM VELOCITY -0.0471872 -0.0105084 -0.0344184
TCL: Running for 100000 steps
ETITLE: TS BOND ANGLE DIHED IMPRP ELECT VDW BOUNDARY MISC KINETIC TOTAL TEMP POTENTIAL TOTAL3 TEMPAVG PRESSURE GPRESSURE VOLUME PRESSAVG GPRESSAVG
ENERGY: 0 0.1804 1.0655 4.0948 0.0000 -13726.0646 2406.0301 0.0000 0.0000 1768.8199 -9545.8739 299.3478 -11314.6938 -9545.5530 299.3478 448.4282 486.4112 45191.5992 448.4282 486.4112
ENERGY: 100000 0.1275 1.9776 4.0551 0.0000 -14334.6034 2503.6313 0.0000 0.0000 177.5165 -11647.2954 30.0422 -11824.8119 -11646.7418 30.9353 74.0779 140.8508 28953.0932 5.3252 5.3597
TCL: Running 100000 steps at 60 kelvin.
TCL: Setting parameter langevinTemp to 60
TCL: Running for 100000 steps
ETITLE: TS BOND ANGLE DIHED IMPRP ELECT VDW BOUNDARY MISC KINETIC TOTAL TEMP POTENTIAL TOTAL3 TEMPAVG PRESSURE GPRESSURE VOLUME PRESSAVG GPRESSAVG
ENERGY: 100000 0.1275 1.9776 4.0551 0.0000 -14334.6034 2503.6313 0.0000 0.0000 177.4273 -11647.3846 30.0271 -11824.8119 -11647.0300 30.0271 81.3571 140.9229 28953.0932 81.3571 140.9229
ENERGY: 200000 0.6326 3.0355 4.0300 0.0000 -14173.8422 2415.7645 0.0000 0.0000 356.7955 -11393.5841 60.3826 -11750.3796 -11391.9531 60.0015 -307.0128 -237.5481 28826.0731 2.3489 2.3110
TCL: Running 100000 steps at 90 kelvin.
TCL: Setting parameter langevinTemp to 90
TCL: Running for 100000 steps
ETITLE: TS BOND ANGLE DIHED IMPRP ELECT VDW BOUNDARY MISC KINETIC TOTAL TEMP POTENTIAL TOTAL3 TEMPAVG PRESSURE GPRESSURE VOLUME PRESSAVG GPRESSAVG
ENERGY: 200000 0.6326 3.0355 4.0300 0.0000 -14173.8422 2415.7645 0.0000 0.0000 356.6274 -11393.7522 60.3541 -11750.3796 -11393.1185 60.3541 -295.3640 -237.4325 28826.0731 -295.3640 -237.4325
ENERGY: 300000 1.8146 4.3372 4.3261 0.0000 -14004.2995 2367.1550 0.0000 0.0000 546.5396 -11080.1269 92.4941 -11626.6665 -11079.0368 90.2086 -92.9054 -59.5348 28624.0411 5.7452 5.7233
TCL: Running 100000 steps at 120 kelvin.
TCL: Setting parameter langevinTemp to 120
TCL: Running for 100000 steps
ETITLE: TS BOND ANGLE DIHED IMPRP ELECT VDW BOUNDARY MISC KINETIC TOTAL TEMP POTENTIAL TOTAL3 TEMPAVG PRESSURE GPRESSURE VOLUME PRESSAVG GPRESSAVG
ENERGY: 300000 1.8146 4.3372 4.3261 0.0000 -14004.2995 2367.1550 0.0000 0.0000 546.2712 -11080.3953 92.4487 -11626.6665 -11079.0934 92.4487 -110.0416 -59.8433 28624.0411 -110.0416 -59.8433
ENERGY: 400000 1.1680 5.1289 4.5634 0.0000 -13900.7830 2371.7925 0.0000 0.0000 707.6863 -10810.4437 119.7659 -11518.1301 -10809.4534 120.1922 443.1190 501.6064 28500.8255 3.9305 3.9705
TCL: Running 100000 steps at 150 kelvin.
TCL: Setting parameter langevinTemp to 150
TCL: Running for 100000 steps
ETITLE: TS BOND ANGLE DIHED IMPRP ELECT VDW BOUNDARY MISC KINETIC TOTAL TEMP POTENTIAL TOTAL3 TEMPAVG PRESSURE GPRESSURE VOLUME PRESSAVG GPRESSAVG
ENERGY: 400000 1.1680 5.1289 4.5634 0.0000 -13900.7830 2371.7925 0.0000 0.0000 707.3363 -10810.7938 119.7067 -11518.1301 -10809.2825 119.7067 450.8328 500.7116 28500.8255 450.8328 500.7116
ENERGY: 500000 1.8912 3.9872 5.2996 0.0000 -13566.3774 2202.9887 0.0000 0.0000 856.9407 -10495.2700 145.0251 -11352.2107 -10492.4503 149.8921 -674.7754 -624.5388 29214.7095 1.4075 1.3982
TCL: Running 100000 steps at 180 kelvin.
TCL: Setting parameter langevinTemp to 180
TCL: Running for 100000 steps
ETITLE: TS BOND ANGLE DIHED IMPRP ELECT VDW BOUNDARY MISC KINETIC TOTAL TEMP POTENTIAL TOTAL3 TEMPAVG PRESSURE GPRESSURE VOLUME PRESSAVG GPRESSAVG
ENERGY: 500000 1.8912 3.9872 5.2996 0.0000 -13566.3774 2202.9887 0.0000 0.0000 856.4879 -10495.7228 144.9485 -11352.2107 -10493.9282 144.9485 -679.2547 -623.4057 29214.7095 -679.2547 -623.4057
ENERGY: 600000 0.3093 6.2027 5.1606 0.0000 -13227.7500 2212.6157 0.0000 0.0000 1075.7790 -9927.6828 182.0604 -11003.4618 -9925.3966 179.8104 966.1769 972.3912 28876.9296 3.0027 2.9918
TCL: Running 100000 steps at 210 kelvin.
TCL: Setting parameter langevinTemp to 210
TCL: Running for 100000 steps
ETITLE: TS BOND ANGLE DIHED IMPRP ELECT VDW BOUNDARY MISC KINETIC TOTAL TEMP POTENTIAL TOTAL3 TEMPAVG PRESSURE GPRESSURE VOLUME PRESSAVG GPRESSAVG
ENERGY: 600000 0.3093 6.2027 5.1606 0.0000 -13227.7500 2212.6157 0.0000 0.0000 1075.2558 -9928.2060 181.9719 -11003.4618 -9926.4980 181.9719 917.5055 971.8181 28876.9296 917.5055 971.8181
ENERGY: 700000 0.8119 7.7640 5.7542 0.0000 -12511.8532 1908.4426 0.0000 0.0000 1256.9273 -9332.1532 212.7172 -10589.0805 -9327.4520 209.6674 218.2692 324.8509 28433.7337 3.7234 3.6812
TCL: Running 100000 steps at 240 kelvin.
TCL: Setting parameter langevinTemp to 240
TCL: Running for 100000 steps
ETITLE: TS BOND ANGLE DIHED IMPRP ELECT VDW BOUNDARY MISC KINETIC TOTAL TEMP POTENTIAL TOTAL3 TEMPAVG PRESSURE GPRESSURE VOLUME PRESSAVG GPRESSAVG
ENERGY: 700000 0.8119 7.7640 5.7542 0.0000 -12511.8532 1908.4426 0.0000 0.0000 1256.3120 -9332.7685 212.6131 -10589.0805 -9330.2990 212.6131 253.4114 325.9055 28433.7337 253.4114 325.9055
ENERGY: 800000 1.2775 5.2712 4.5177 0.0000 -11957.3240 1760.0522 0.0000 0.0000 1401.8364 -8784.3689 237.2410 -10186.2053 -8781.4069 240.2144 67.2246 122.3496 29245.0596 4.0616 4.0896
TCL: Running 100000 steps at 270 kelvin.
TCL: Setting parameter langevinTemp to 270
TCL: Running for 100000 steps
ETITLE: TS BOND ANGLE DIHED IMPRP ELECT VDW BOUNDARY MISC KINETIC TOTAL TEMP POTENTIAL TOTAL3 TEMPAVG PRESSURE GPRESSURE VOLUME PRESSAVG GPRESSAVG
ENERGY: 800000 1.2775 5.2712 4.5177 0.0000 -11957.3240 1760.0522 0.0000 0.0000 1401.1240 -8785.0812 237.1205 -10186.2053 -8782.9332 237.1205 51.7505 122.2899 29245.0596 51.7505 122.2899
ENERGY: 900000 2.5464 8.4226 5.0883 0.0000 -11212.2424 1473.0688 0.0000 0.0000 1590.1657 -8132.9507 269.1131 -9723.1164 -8130.9667 269.6126 -546.7518 -445.3189 29272.0493 4.0595 3.8560
TCL: Running 1000000 steps at 300 kelvin.
TCL: Setting parameter langevinTemp to 300
TCL: Running for 1000000 steps
ETITLE: TS BOND ANGLE DIHED IMPRP ELECT VDW BOUNDARY MISC KINETIC TOTAL TEMP POTENTIAL TOTAL3 TEMPAVG PRESSURE GPRESSURE VOLUME PRESSAVG GPRESSAVG
ENERGY: 900000 2.5464 8.4226 5.0883 0.0000 -11212.2424 1473.0688 0.0000 0.0000 1589.3852 -8133.7312 268.9810 -9723.1164 -8131.6052 268.9810 -538.1664 -446.9206 29272.0493 -538.1664 -446.9206
ENERGY: 1100000 2.7302 10.0135 5.1115 0.0000 -10757.5472 1451.5144 0.0000 0.0000 1826.6951 -7461.4825 309.1424 -9288.1777 -7458.8858 300.1663 330.5474 357.3548 30126.7467 3.6628 3.6782
ENERGY: 1300000 5.6015 11.3505 4.3329 0.0000 -10650.3865 1380.3945 0.0000 0.0000 1792.6705 -7456.0367 303.3842 -9248.7072 -7451.0679 299.5085 -640.3728 -479.9595 30933.5454 4.5750 4.6595
ENERGY: 1500000 2.1498 11.1714 5.6096 0.0000 -10852.5312 1505.6719 0.0000 0.0000 1742.9706 -7584.9578 294.9732 -9327.9285 -7582.5600 299.6910 449.5104 565.5355 30280.0245 2.5724 2.6419
ENERGY: 1700000 2.5682 8.7415 5.3934 0.0000 -10654.5935 1386.3959 0.0000 0.0000 1838.8701 -7412.6245 311.2028 -9251.4946 -7412.4279 299.9132 -77.2537 3.4545 30404.6296 4.5959 4.5838
ENERGY: 1900000 2.2875 9.5375 5.9279 0.0000 -10649.6544 1382.4143 0.0000 0.0000 1793.9739 -7455.5132 303.6048 -9249.4871 -7451.3975 300.4921 -617.7705 -542.1322 30915.7106 3.4125 3.3958
TCL: Exiting due to exit command.
