Info: SIMULATION PARAMETERS:
Info: TIMESTEP               2
Info: NUMBER OF STEPS        0
Info: STEPS PER CYCLE        10
Info: PERIODIC CELL BASIS 1  36.005 0 0
Info: PERIODIC CELL BASIS 2  0 34.26 0
Info: PERIODIC CELL BASIS 3  0 0 35.897
Info: PERIODIC CELL CENTER   0 0 0
Info: WRAPPING WATERS AROUND PERIODIC BOUNDARIES ON OUTPUT.
Info: WRAPPING ALL CLUSTERS AROUND PERIODIC BOUNDARIES ON OUTPUT.
Info: FIRST LDB TIMESTEP     50
Info: LAST LDB TIMESTEP     -1
Info: HOM BACKGROUND SCALING 1
Info: PME BACKGROUND SCALING 1
Info: MIN ATOMS PER PATCH    40
Info: EMPTY PATCH LOAD       40 ATOMS
Info: INITIAL TEMPERATURE    300
Info: CENTER OF MASS MOVING INITIALLY? NO
Info: DIELECTRIC             1
Info: EXCLUDE                SCALED ONE-FOUR
Info: 1-4 ELECTROSTATICS SCALED BY 0.833333
Info: MODIFIED 1-4 VDW PARAMETERS WILL BE USED
Info: DCD FILENAME           mobley_2577969_equil.dcd
Info: DCD FREQUENCY          100000
Info: DCD FIRST STEP         100000
Info: DCD FILE WILL CONTAIN UNIT CELL DATA
Info: XST FILENAME           mobley_2577969_equil.xst
Info: XST FREQUENCY          100000
Info: NO VELOCITY DCD OUTPUT
Info: NO FORCE DCD OUTPUT
Info: OUTPUT FILENAME        mobley_2577969_equil
Info: BINARY OUTPUT FILES WILL BE USED
Info: RESTART FILENAME       mobley_2577969_equil.restart
Info: RESTART FREQUENCY      100000
Info: BINARY RESTART FILES WILL BE USED
Info: CUTOFF                 9
Info: PAIRLIST DISTANCE      11
Info: PAIRLIST SHRINK RATE   0.01
Info: PAIRLIST GROW RATE     0.01
Info: PAIRLIST TRIGGER       0.3
Info: PAIRLISTS PER CYCLE    2
Info: PAIRLISTS ENABLED
Info: MARGIN                 8
Info: HYDROGEN GROUP CUTOFF  2.5
Info: PATCH DIMENSION        21.5
Info: ENERGY OUTPUT STEPS    100000
Info: ENERGY EVALUATION STEPS    100000
Info: OUTPUT ENERGY PRECISION 4
Info: CROSSTERM ENERGY INCLUDED IN DIHEDRAL
Info: TIMING OUTPUT STEPS    1000000
Info: PRESSURE OUTPUT STEPS  100000
Info: LANGEVIN DYNAMICS ACTIVE
Info: LANGEVIN TEMPERATURE   30
Info: LANGEVIN USING BBK INTEGRATOR
Info: LANGEVIN DAMPING COEFFICIENT IS 1 INVERSE PS
Info: LANGEVIN DYNAMICS APPLIED TO HYDROGENS
Info: LANGEVIN PISTON PRESSURE CONTROL ACTIVE
Info:        TARGET PRESSURE IS 1.01325 BAR
Info:     OSCILLATION PERIOD IS 50 FS
Info:             DECAY TIME IS 25 FS
Info:     PISTON TEMPERATURE IS 300 K
Info:       PRESSURE CONTROL IS GROUP-BASED
Info:    INITIAL STRAIN RATE IS 0 0 0
Info:       CELL FLUCTUATION IS ISOTROPIC
Info: PARTICLE MESH EWALD (PME) ACTIVE
Info: PME TOLERANCE               1e-06
Info: PME EWALD COEFFICIENT       0.348832
Info: PME INTERPOLATION ORDER     4
Info: PME GRID DIMENSIONS         40 36 36
Info: PME MAXIMUM GRID SPACING    1
Info: FULL ELECTROSTATIC EVALUATION FREQUENCY      2
Info: USING VERLET I (r-RESPA) MTS SCHEME.
Info: C1 SPLITTING OF LONG RANGE ELECTROSTATICS
Info: PLACING ATOMS IN PATCHES BY HYDROGEN GROUPS
Info: RIGID BONDS TO HYDROGEN : ALL
Info:         ERROR TOLERANCE : 1e-08
Info:          MAX ITERATIONS : 100
Info: RIGID WATER USING SETTLE ALGORITHM
Info: RANDOM NUMBER SEED     1743222198
Info: USE HYDROGEN BONDS?    NO
Info: Using AMBER format force field!
Info: AMBER PARM FILE        mobley_2577969.prmtop
Info: COORDINATE PDB         mobley_2577969.pdb
Info: Exclusions will be read from PARM file!
Info: SCNB (VDW SCALING)     2
Info: USING ARITHMETIC MEAN TO COMBINE L-J SIGMA PARAMETERS
Info: BINARY COORDINATES     mobley_2577969_min.coor
Info: SUMMARY OF PARAMETERS:
Info: 4 BONDS
Info: 2 ANGLES
Info:   2 HARMONIC
Info:   0 COSINE-BASED
Info: 2 DIHEDRAL
Info: 0 IMPROPER
Info: 0 CROSSTERM
Info: 0 VDW
Info: 10 VDW_PAIRS
Info: 0 NBTHOLE_PAIRS
Info: STRUCTURE SUMMARY:
Info: 2966 ATOMS
Info: 2969 BONDS
Info: 48 ANGLES
Info: 92 DIHEDRALS
Info: 0 IMPROPERS
Info: 0 CROSSTERMS
Info: 3081 EXCLUSIONS
Info: 2950 RIGID BONDS
Info: 5948 DEGREES OF FREEDOM
Info: 996 HYDROGEN GROUPS
Info: 3 ATOMS IN LARGEST HYDROGEN GROUP
Info: 996 MIGRATION GROUPS
Info: 3 ATOMS IN LARGEST MIGRATION GROUP
Info: TOTAL MASS = 17857.9 amu
Info: TOTAL CHARGE = 9.9944e-05 e
Info: MASS DENSITY = 0.669702 g/cm^3
Info: ATOM DENSITY = 0.0669827 atoms/A^3
Info: ADDED 0 IMPLICIT EXCLUSIONS
Info: NONBONDED TABLE R-SQUARED SPACING: 0.0625
Info: NONBONDED TABLE SIZE: 705 POINTS
Info: REMOVING COM VELOCITY -0.278813 -0.00247693 0.162931
TCL: Running for 100000 steps
ETITLE: TS BOND ANGLE DIHED IMPRP ELECT VDW BOUNDARY MISC KINETIC TOTAL TEMP POTENTIAL TOTAL3 TEMPAVG PRESSURE GPRESSURE VOLUME PRESSAVG GPRESSAVG
ENERGY: 0 0.6654 0.0591 0.0425 0.0000 -13668.7642 2441.4415 0.0000 0.0000 1737.8198 -9488.7359 294.0520 -11226.5557 -9488.4280 294.0520 653.9709 688.6441 44280.0731 653.9709 688.6441
ENERGY: 100000 0.8597 0.5459 0.8435 0.0000 -14257.3581 2524.5665 0.0000 0.0000 172.6734 -11557.8691 29.2176 -11730.5425 -11557.1268 30.8667 556.5137 624.3447 28794.2249 3.3951 3.4202
TCL: Running 100000 steps at 60 kelvin.
TCL: Setting parameter langevinTemp to 60
TCL: Running for 100000 steps
ETITLE: TS BOND ANGLE DIHED IMPRP ELECT VDW BOUNDARY MISC KINETIC TOTAL TEMP POTENTIAL TOTAL3 TEMPAVG PRESSURE GPRESSURE VOLUME PRESSAVG GPRESSAVG
ENERGY: 100000 0.8597 0.5459 0.8435 0.0000 -14257.3581 2524.5665 0.0000 0.0000 172.5873 -11557.9552 29.2030 -11730.5425 -11557.6446 29.2030 569.6218 624.4549 28794.2249 569.6218 624.4549
ENERGY: 200000 2.0188 1.2791 0.9940 0.0000 -14055.9804 2391.4723 0.0000 0.0000 347.6786 -11312.5376 58.8298 -11660.2162 -11311.7123 59.8859 -241.0950 -184.6953 28938.3978 4.8608 4.8777
TCL: Running 100000 steps at 90 kelvin.
TCL: Setting parameter langevinTemp to 90
TCL: Running for 100000 steps
ETITLE: TS BOND ANGLE DIHED IMPRP ELECT VDW BOUNDARY MISC KINETIC TOTAL TEMP POTENTIAL TOTAL3 TEMPAVG PRESSURE GPRESSURE VOLUME PRESSAVG GPRESSAVG
ENERGY: 200000 2.0188 1.2791 0.9940 0.0000 -14055.9804 2391.4723 0.0000 0.0000 347.5052 -11312.7110 58.8005 -11660.2162 -11312.0168 58.8005 -240.9515 -185.0663 28938.3978 -240.9515 -185.0663
ENERGY: 300000 1.2604 2.4797 2.0485 0.0000 -14070.0434 2496.6883 0.0000 0.0000 521.9719 -11045.5947 88.3215 -11567.5666 -11043.5503 89.8436 1182.0782 1235.4626 28348.0058 4.6955 4.6549
TCL: Running 100000 steps at 120 kelvin.
TCL: Setting parameter langevinTemp to 120
TCL: Running for 100000 steps
ETITLE: TS BOND ANGLE DIHED IMPRP ELECT VDW BOUNDARY MISC KINETIC TOTAL TEMP POTENTIAL TOTAL3 TEMPAVG PRESSURE GPRESSURE VOLUME PRESSAVG GPRESSAVG
ENERGY: 300000 1.2604 2.4797 2.0485 0.0000 -14070.0434 2496.6883 0.0000 0.0000 521.7238 -11045.8428 88.2795 -11567.5666 -11044.7854 88.2795 1177.6043 1235.5651 28348.0058 1177.6043 1235.5651
ENERGY: 400000 1.4432 1.8493 3.4683 0.0000 -13787.8663 2314.8841 0.0000 0.0000 698.6668 -10767.5546 118.2196 -11466.2214 -10766.2961 119.8805 -167.6895 -86.5702 28786.0019 4.7103 4.7983
TCL: Running 100000 steps at 150 kelvin.
TCL: Setting parameter langevinTemp to 150
TCL: Running for 100000 steps
ETITLE: TS BOND ANGLE DIHED IMPRP ELECT VDW BOUNDARY MISC KINETIC TOTAL TEMP POTENTIAL TOTAL3 TEMPAVG PRESSURE GPRESSURE VOLUME PRESSAVG GPRESSAVG
ENERGY: 400000 1.4432 1.8493 3.4683 0.0000 -13787.8663 2314.8841 0.0000 0.0000 698.3186 -10767.9029 118.1607 -11466.2214 -10766.1559 118.1607 -145.2278 -87.3274 28786.0019 -145.2278 -87.3274
ENERGY: 500000 4.0144 3.3903 2.3150 0.0000 -13532.4271 2262.3318 0.0000 0.0000 905.4204 -10354.9553 153.2039 -11260.3757 -10352.4157 149.9667 260.9021 370.5892 28548.1153 3.1167 2.9403
TCL: Running 100000 steps at 180 kelvin.
TCL: Setting parameter langevinTemp to 180
TCL: Running for 100000 steps
ETITLE: TS BOND ANGLE DIHED IMPRP ELECT VDW BOUNDARY MISC KINETIC TOTAL TEMP POTENTIAL TOTAL3 TEMPAVG PRESSURE GPRESSURE VOLUME PRESSAVG GPRESSAVG
ENERGY: 500000 4.0144 3.3903 2.3150 0.0000 -13532.4271 2262.3318 0.0000 0.0000 904.9802 -10355.3955 153.1294 -11260.3757 -10353.4514 153.1294 307.3459 370.9799 28548.1153 307.3459 370.9799
ENERGY: 600000 2.6340 2.8362 2.9863 0.0000 -13063.9584 2063.1979 0.0000 0.0000 1067.8287 -9924.4753 180.6846 -10992.3040 -9920.8642 180.3065 -422.3426 -427.3189 29089.4600 3.7912 3.7544
TCL: Running 100000 steps at 210 kelvin.
TCL: Setting parameter langevinTemp to 210
TCL: Running for 100000 steps
ETITLE: TS BOND ANGLE DIHED IMPRP ELECT VDW BOUNDARY MISC KINETIC TOTAL TEMP POTENTIAL TOTAL3 TEMPAVG PRESSURE GPRESSURE VOLUME PRESSAVG GPRESSAVG
ENERGY: 600000 2.6340 2.8362 2.9863 0.0000 -13063.9584 2063.1979 0.0000 0.0000 1067.3001 -9925.0039 180.5951 -10992.3040 -9922.3367 180.5951 -481.8432 -428.0683 29089.4600 -481.8432 -428.0683
ENERGY: 700000 4.3384 5.9739 4.9530 0.0000 -12481.5878 1992.0041 0.0000 0.0000 1259.4135 -9214.9048 213.1021 -10474.3183 -9211.5532 210.1232 866.1221 940.1834 28649.7116 5.3368 5.0871
TCL: Running 100000 steps at 240 kelvin.
TCL: Setting parameter langevinTemp to 240
TCL: Running for 100000 steps
ETITLE: TS BOND ANGLE DIHED IMPRP ELECT VDW BOUNDARY MISC KINETIC TOTAL TEMP POTENTIAL TOTAL3 TEMPAVG PRESSURE GPRESSURE VOLUME PRESSAVG GPRESSAVG
ENERGY: 700000 4.3384 5.9739 4.9530 0.0000 -12481.5878 1992.0041 0.0000 0.0000 1258.8443 -9215.4740 213.0058 -10474.3183 -9213.4411 213.0058 864.0244 941.4608 28649.7116 864.0244 941.4608
ENERGY: 800000 6.6341 6.9087 5.4986 0.0000 -11969.9467 1787.5076 0.0000 0.0000 1440.2846 -8723.1132 243.7069 -10163.3978 -8719.4166 239.4679 -190.5051 -96.9916 29369.2457 3.3380 3.7738
TCL: Running 100000 steps at 270 kelvin.
TCL: Setting parameter langevinTemp to 270
TCL: Running for 100000 steps
ETITLE: TS BOND ANGLE DIHED IMPRP ELECT VDW BOUNDARY MISC KINETIC TOTAL TEMP POTENTIAL TOTAL3 TEMPAVG PRESSURE GPRESSURE VOLUME PRESSAVG GPRESSAVG
ENERGY: 800000 6.6341 6.9087 5.4986 0.0000 -11969.9467 1787.5076 0.0000 0.0000 1439.5627 -8723.8350 243.5847 -10163.3978 -8721.6927 243.5847 -182.7967 -97.6040 29369.2457 -182.7967 -97.6040
ENERGY: 900000 5.0414 8.2529 8.4199 0.0000 -11236.0825 1549.6148 0.0000 0.0000 1602.7821 -8061.9715 271.2026 -9664.7536 -8056.5047 269.8984 210.4035 275.9743 29326.3581 3.2422 3.2525
TCL: Running 1000000 steps at 300 kelvin.
TCL: Setting parameter langevinTemp to 300
TCL: Running for 1000000 steps
ETITLE: TS BOND ANGLE DIHED IMPRP ELECT VDW BOUNDARY MISC KINETIC TOTAL TEMP POTENTIAL TOTAL3 TEMPAVG PRESSURE GPRESSURE VOLUME PRESSAVG GPRESSAVG
ENERGY: 900000 5.0414 8.2529 8.4199 0.0000 -11236.0825 1549.6148 0.0000 0.0000 1602.0063 -8062.7473 271.0714 -9664.7536 -8059.6729 271.0714 196.7740 276.2111 29326.3581 196.7740 276.2111
ENERGY: 1100000 8.8951 6.2773 5.4454 0.0000 -10612.6178 1390.4169 0.0000 0.0000 1750.1798 -7451.4034 296.1434 -9201.5831 -7448.0444 300.3626 -213.3732 -159.7141 30770.4704 3.6719 3.8806
ENERGY: 1300000 8.4340 6.9650 7.5603 0.0000 -10800.7637 1513.9460 0.0000 0.0000 1708.6772 -7555.1813 289.1209 -9263.8585 -7549.0795 300.6015 645.9485 706.2157 29858.6180 3.3936 3.3844
ENERGY: 1500000 5.7158 9.2500 7.8852 0.0000 -10603.9230 1334.1111 0.0000 0.0000 1792.7312 -7454.2298 303.3434 -9246.9610 -7450.6474 299.3852 -767.0169 -701.1108 30662.8150 4.5332 4.3313
ENERGY: 1700000 5.7611 7.3896 5.0694 0.0000 -10696.0542 1451.6526 0.0000 0.0000 1728.8553 -7497.3262 292.5352 -9226.1815 -7492.0967 300.0543 210.6631 331.0619 30645.6396 3.1811 3.1403
ENERGY: 1900000 7.9199 4.2379 7.3534 0.0000 -10652.2935 1428.7013 0.0000 0.0000 1857.7793 -7346.3018 314.3501 -9204.0811 -7342.8630 299.8337 140.3288 261.4143 30514.6835 3.9705 4.0743
TCL: Exiting due to exit command.
