Info: SIMULATION PARAMETERS:
Info: TIMESTEP               2
Info: NUMBER OF STEPS        0
Info: STEPS PER CYCLE        10
Info: PERIODIC CELL BASIS 1  35.01 0 0
Info: PERIODIC CELL BASIS 2  0 33.404 0
Info: PERIODIC CELL BASIS 3  0 0 37.195
Info: PERIODIC CELL CENTER   0 0 0
Info: WRAPPING WATERS AROUND PERIODIC BOUNDARIES ON OUTPUT.
Info: WRAPPING ALL CLUSTERS AROUND PERIODIC BOUNDARIES ON OUTPUT.
Info: FIRST LDB TIMESTEP     50
Info: LAST LDB TIMESTEP     -1
Info: HOM BACKGROUND SCALING 1
Info: PME BACKGROUND SCALING 1
Info: MIN ATOMS PER PATCH    40
Info: EMPTY PATCH LOAD       40 ATOMS
Info: INITIAL TEMPERATURE    300
Info: CENTER OF MASS MOVING INITIALLY? NO
Info: DIELECTRIC             1
Info: EXCLUDE                SCALED ONE-FOUR
Info: 1-4 ELECTROSTATICS SCALED BY 0.833333
Info: MODIFIED 1-4 VDW PARAMETERS WILL BE USED
Info: DCD FILENAME           mobley_4035953_equil.dcd
Info: DCD FREQUENCY          100000
Info: DCD FIRST STEP         100000
Info: DCD FILE WILL CONTAIN UNIT CELL DATA
Info: XST FILENAME           mobley_4035953_equil.xst
Info: XST FREQUENCY          100000
Info: NO VELOCITY DCD OUTPUT
Info: NO FORCE DCD OUTPUT
Info: OUTPUT FILENAME        mobley_4035953_equil
Info: BINARY OUTPUT FILES WILL BE USED
Info: RESTART FILENAME       mobley_4035953_equil.restart
Info: RESTART FREQUENCY      100000
Info: BINARY RESTART FILES WILL BE USED
Info: CUTOFF                 9
Info: PAIRLIST DISTANCE      11
Info: PAIRLIST SHRINK RATE   0.01
Info: PAIRLIST GROW RATE     0.01
Info: PAIRLIST TRIGGER       0.3
Info: PAIRLISTS PER CYCLE    2
Info: PAIRLISTS ENABLED
Info: MARGIN                 8
Info: HYDROGEN GROUP CUTOFF  2.5
Info: PATCH DIMENSION        21.5
Info: ENERGY OUTPUT STEPS    100000
Info: ENERGY EVALUATION STEPS    100000
Info: OUTPUT ENERGY PRECISION 4
Info: CROSSTERM ENERGY INCLUDED IN DIHEDRAL
Info: TIMING OUTPUT STEPS    1000000
Info: PRESSURE OUTPUT STEPS  100000
Info: LANGEVIN DYNAMICS ACTIVE
Info: LANGEVIN TEMPERATURE   30
Info: LANGEVIN USING BBK INTEGRATOR
Info: LANGEVIN DAMPING COEFFICIENT IS 1 INVERSE PS
Info: LANGEVIN DYNAMICS APPLIED TO HYDROGENS
Info: LANGEVIN PISTON PRESSURE CONTROL ACTIVE
Info:        TARGET PRESSURE IS 1.01325 BAR
Info:     OSCILLATION PERIOD IS 50 FS
Info:             DECAY TIME IS 25 FS
Info:     PISTON TEMPERATURE IS 300 K
Info:       PRESSURE CONTROL IS GROUP-BASED
Info:    INITIAL STRAIN RATE IS 0 0 0
Info:       CELL FLUCTUATION IS ISOTROPIC
Info: PARTICLE MESH EWALD (PME) ACTIVE
Info: PME TOLERANCE               1e-06
Info: PME EWALD COEFFICIENT       0.348832
Info: PME INTERPOLATION ORDER     4
Info: PME GRID DIMENSIONS         36 36 40
Info: PME MAXIMUM GRID SPACING    1
Info: FULL ELECTROSTATIC EVALUATION FREQUENCY      2
Info: USING VERLET I (r-RESPA) MTS SCHEME.
Info: C1 SPLITTING OF LONG RANGE ELECTROSTATICS
Info: PLACING ATOMS IN PATCHES BY HYDROGEN GROUPS
Info: RIGID BONDS TO HYDROGEN : ALL
Info:         ERROR TOLERANCE : 1e-08
Info:          MAX ITERATIONS : 100
Info: RIGID WATER USING SETTLE ALGORITHM
Info: RANDOM NUMBER SEED     1743212809
Info: USE HYDROGEN BONDS?    NO
Info: Using AMBER format force field!
Info: AMBER PARM FILE        mobley_4035953.prmtop
Info: COORDINATE PDB         mobley_4035953.pdb
Info: Exclusions will be read from PARM file!
Info: SCNB (VDW SCALING)     2
Info: USING ARITHMETIC MEAN TO COMBINE L-J SIGMA PARAMETERS
Info: BINARY COORDINATES     mobley_4035953_min.coor
Info: SUMMARY OF PARAMETERS:
Info: 8 BONDS
Info: 7 ANGLES
Info:   7 HARMONIC
Info:   0 COSINE-BASED
Info: 4 DIHEDRAL
Info: 0 IMPROPER
Info: 0 CROSSTERM
Info: 0 VDW
Info: 28 VDW_PAIRS
Info: 0 NBTHOLE_PAIRS
Info: STRUCTURE SUMMARY:
Info: 2959 ATOMS
Info: 2959 BONDS
Info: 25 ANGLES
Info: 38 DIHEDRALS
Info: 0 IMPROPERS
Info: 0 CROSSTERMS
Info: 3013 EXCLUSIONS
Info: 2951 RIGID BONDS
Info: 5926 DEGREES OF FREEDOM
Info: 989 HYDROGEN GROUPS
Info: 4 ATOMS IN LARGEST HYDROGEN GROUP
Info: 989 MIGRATION GROUPS
Info: 4 ATOMS IN LARGEST MIGRATION GROUP
Info: TOTAL MASS = 17781.8 amu
Info: TOTAL CHARGE = -9.99942e-05 e
Info: MASS DENSITY = 0.678829 g/cm^3
Info: ATOM DENSITY = 0.0680252 atoms/A^3
Info: ADDED 0 IMPLICIT EXCLUSIONS
Info: NONBONDED TABLE R-SQUARED SPACING: 0.0625
Info: NONBONDED TABLE SIZE: 705 POINTS
Info: REMOVING COM VELOCITY -0.143074 0.0677962 0.0896296
TCL: Running for 100000 steps
ETITLE: TS BOND ANGLE DIHED IMPRP ELECT VDW BOUNDARY MISC KINETIC TOTAL TEMP POTENTIAL TOTAL3 TEMPAVG PRESSURE GPRESSURE VOLUME PRESSAVG GPRESSAVG
ENERGY: 0 0.1789 0.2760 0.7277 0.0000 -13708.8347 2441.4923 0.0000 0.0000 1778.7393 -9487.4206 302.0933 -11266.1599 -9487.0606 302.0933 669.7876 712.6889 43498.5869 669.7876 712.6889
ENERGY: 100000 0.6488 0.4875 0.5349 0.0000 -14326.4772 2539.5797 0.0000 0.0000 177.4796 -11607.7468 30.1423 -11785.2264 -11607.1050 30.9635 361.7843 440.7666 28774.7384 5.2112 5.2035
TCL: Running 100000 steps at 60 kelvin.
TCL: Setting parameter langevinTemp to 60
TCL: Running for 100000 steps
ETITLE: TS BOND ANGLE DIHED IMPRP ELECT VDW BOUNDARY MISC KINETIC TOTAL TEMP POTENTIAL TOTAL3 TEMPAVG PRESSURE GPRESSURE VOLUME PRESSAVG GPRESSAVG
ENERGY: 100000 0.6488 0.4875 0.5349 0.0000 -14326.4772 2539.5797 0.0000 0.0000 177.3953 -11607.8310 30.1280 -11785.2264 -11607.4583 30.1280 371.3493 440.8085 28774.7384 371.3493 440.8085
ENERGY: 200000 0.8980 0.9391 0.8174 0.0000 -14274.4862 2540.6091 0.0000 0.0000 337.5892 -11393.6333 57.3347 -11731.2225 -11393.2650 59.9404 695.3277 767.6060 28711.0557 5.0990 5.0363
TCL: Running 100000 steps at 90 kelvin.
TCL: Setting parameter langevinTemp to 90
TCL: Running for 100000 steps
ETITLE: TS BOND ANGLE DIHED IMPRP ELECT VDW BOUNDARY MISC KINETIC TOTAL TEMP POTENTIAL TOTAL3 TEMPAVG PRESSURE GPRESSURE VOLUME PRESSAVG GPRESSAVG
ENERGY: 200000 0.8980 0.9391 0.8174 0.0000 -14274.4862 2540.6091 0.0000 0.0000 337.4080 -11393.8145 57.3039 -11731.2225 -11393.1592 57.3039 721.4803 767.2150 28711.0557 721.4803 767.2150
ENERGY: 300000 1.0062 1.9876 0.5670 0.0000 -14097.2290 2473.8095 0.0000 0.0000 529.9240 -11089.9348 90.0000 -11619.8588 -11089.1129 89.8665 631.4744 665.3047 28644.0489 3.9584 4.0149
TCL: Running 100000 steps at 120 kelvin.
TCL: Setting parameter langevinTemp to 120
TCL: Running for 100000 steps
ETITLE: TS BOND ANGLE DIHED IMPRP ELECT VDW BOUNDARY MISC KINETIC TOTAL TEMP POTENTIAL TOTAL3 TEMPAVG PRESSURE GPRESSURE VOLUME PRESSAVG GPRESSAVG
ENERGY: 300000 1.0062 1.9876 0.5670 0.0000 -14097.2290 2473.8095 0.0000 0.0000 529.6672 -11090.1916 89.9564 -11619.8588 -11089.3736 89.9564 616.6322 665.3609 28644.0489 616.6322 665.3609
ENERGY: 400000 0.5989 1.6903 1.7620 0.0000 -13866.7537 2407.5729 0.0000 0.0000 720.2390 -10734.8906 122.3222 -11455.1296 -10733.0425 119.9311 520.1845 593.0066 28971.6644 4.5006 4.5352
TCL: Running 100000 steps at 150 kelvin.
TCL: Setting parameter langevinTemp to 150
TCL: Running for 100000 steps
ETITLE: TS BOND ANGLE DIHED IMPRP ELECT VDW BOUNDARY MISC KINETIC TOTAL TEMP POTENTIAL TOTAL3 TEMPAVG PRESSURE GPRESSURE VOLUME PRESSAVG GPRESSAVG
ENERGY: 400000 0.5989 1.6903 1.7620 0.0000 -13866.7537 2407.5729 0.0000 0.0000 719.8919 -10735.2378 122.2633 -11455.1296 -10734.1212 122.2633 544.7801 592.8129 28971.6644 544.7801 592.8129
ENERGY: 500000 0.5688 1.4065 2.5590 0.0000 -13597.1921 2309.0420 0.0000 0.0000 864.4949 -10419.1208 146.8220 -11283.6157 -10417.2384 149.7038 390.5391 458.3970 29089.0036 3.4408 3.3501
TCL: Running 100000 steps at 180 kelvin.
TCL: Setting parameter langevinTemp to 180
TCL: Running for 100000 steps
ETITLE: TS BOND ANGLE DIHED IMPRP ELECT VDW BOUNDARY MISC KINETIC TOTAL TEMP POTENTIAL TOTAL3 TEMPAVG PRESSURE GPRESSURE VOLUME PRESSAVG GPRESSAVG
ENERGY: 500000 0.5688 1.4065 2.5590 0.0000 -13597.1921 2309.0420 0.0000 0.0000 864.0636 -10419.5521 146.7488 -11283.6157 -10417.8899 146.7488 399.4755 459.1286 29089.0036 399.4755 459.1286
ENERGY: 600000 1.6353 3.2367 1.3957 0.0000 -13087.9929 2075.9505 0.0000 0.0000 1047.0505 -9958.7242 177.8265 -11005.7747 -9955.6833 179.9712 -415.2319 -319.6736 29197.4570 4.2491 4.2552
TCL: Running 100000 steps at 210 kelvin.
TCL: Setting parameter langevinTemp to 210
TCL: Running for 100000 steps
ETITLE: TS BOND ANGLE DIHED IMPRP ELECT VDW BOUNDARY MISC KINETIC TOTAL TEMP POTENTIAL TOTAL3 TEMPAVG PRESSURE GPRESSURE VOLUME PRESSAVG GPRESSAVG
ENERGY: 600000 1.6353 3.2367 1.3957 0.0000 -13087.9929 2075.9505 0.0000 0.0000 1046.5131 -9959.2615 177.7352 -11005.7747 -9957.4532 177.7352 -384.6979 -319.2237 29197.4570 -384.6979 -319.2237
ENERGY: 700000 1.0381 4.0168 4.3204 0.0000 -12341.8210 1806.7519 0.0000 0.0000 1283.5357 -9242.1580 217.9901 -10525.6937 -9238.6544 209.6506 -535.4116 -476.5105 29006.4725 2.7593 2.8217
TCL: Running 100000 steps at 240 kelvin.
TCL: Setting parameter langevinTemp to 240
TCL: Running for 100000 steps
ETITLE: TS BOND ANGLE DIHED IMPRP ELECT VDW BOUNDARY MISC KINETIC TOTAL TEMP POTENTIAL TOTAL3 TEMPAVG PRESSURE GPRESSURE VOLUME PRESSAVG GPRESSAVG
ENERGY: 700000 1.0381 4.0168 4.3204 0.0000 -12341.8210 1806.7519 0.0000 0.0000 1282.9475 -9242.7462 217.8902 -10525.6937 -9240.0801 217.8902 -538.7203 -476.3781 29006.4725 -538.7203 -476.3781
ENERGY: 800000 1.0434 3.4342 4.9339 0.0000 -11879.2405 1754.8729 0.0000 0.0000 1418.2312 -8696.7249 240.8662 -10114.9561 -8691.1769 240.0097 213.9835 218.6168 29196.3706 3.4867 3.5222
TCL: Running 100000 steps at 270 kelvin.
TCL: Setting parameter langevinTemp to 270
TCL: Running for 100000 steps
ETITLE: TS BOND ANGLE DIHED IMPRP ELECT VDW BOUNDARY MISC KINETIC TOTAL TEMP POTENTIAL TOTAL3 TEMPAVG PRESSURE GPRESSURE VOLUME PRESSAVG GPRESSAVG
ENERGY: 800000 1.0434 3.4342 4.9339 0.0000 -11879.2405 1754.8729 0.0000 0.0000 1417.5072 -8697.4489 240.7432 -10114.9561 -8694.9029 240.7432 146.8612 221.6322 29196.3706 146.8612 221.6322
ENERGY: 900000 0.7419 7.8069 3.2289 0.0000 -11321.6286 1614.0070 0.0000 0.0000 1571.8236 -8124.0203 266.9516 -9695.8439 -8120.8494 270.2175 508.7875 600.4447 29434.8170 2.5457 2.8053
TCL: Running 1000000 steps at 300 kelvin.
TCL: Setting parameter langevinTemp to 300
TCL: Running for 1000000 steps
ETITLE: TS BOND ANGLE DIHED IMPRP ELECT VDW BOUNDARY MISC KINETIC TOTAL TEMP POTENTIAL TOTAL3 TEMPAVG PRESSURE GPRESSURE VOLUME PRESSAVG GPRESSAVG
ENERGY: 900000 0.7419 7.8069 3.2289 0.0000 -11321.6286 1614.0070 0.0000 0.0000 1571.0791 -8124.7648 266.8252 -9695.8439 -8121.9449 266.8252 518.0271 600.7842 29434.8170 518.0271 600.7842
ENERGY: 1100000 2.4698 4.2881 5.5329 0.0000 -10702.9015 1379.8817 0.0000 0.0000 1797.9738 -7512.7552 305.3600 -9310.7291 -7509.0486 300.6677 -609.6969 -542.3149 30725.4371 2.3372 2.2647
ENERGY: 1300000 1.3852 5.0887 4.1399 0.0000 -10758.6647 1425.8954 0.0000 0.0000 1804.2793 -7517.8761 306.4309 -9322.1554 -7513.8351 300.2295 -169.2627 -92.3864 30526.7952 2.2594 2.3990
ENERGY: 1500000 3.7888 4.8595 2.9725 0.0000 -10705.3514 1477.5326 0.0000 0.0000 1787.6698 -7428.5282 303.6100 -9216.1981 -7425.4203 300.0823 319.3650 438.7596 30596.6010 3.4561 3.4891
ENERGY: 1700000 1.7640 3.9135 2.4238 0.0000 -10682.8912 1432.7938 0.0000 0.0000 1726.1472 -7515.8489 293.1612 -9241.9961 -7515.8595 300.0046 3.2152 88.9560 30456.9889 1.9362 1.9005
ENERGY: 1900000 1.9996 10.3077 6.9097 0.0000 -10764.4489 1454.0612 0.0000 0.0000 1773.6970 -7517.4737 301.2369 -9291.1708 -7511.1907 300.0778 -109.3550 -2.9888 30840.8970 3.1199 3.2915
TCL: Exiting due to exit command.
