Info: SIMULATION PARAMETERS:
Info: TIMESTEP               2
Info: NUMBER OF STEPS        0
Info: STEPS PER CYCLE        10
Info: PERIODIC CELL BASIS 1  34.986 0 0
Info: PERIODIC CELL BASIS 2  0 33.314 0
Info: PERIODIC CELL BASIS 3  0 0 37.451
Info: PERIODIC CELL CENTER   0 0 0
Info: WRAPPING WATERS AROUND PERIODIC BOUNDARIES ON OUTPUT.
Info: WRAPPING ALL CLUSTERS AROUND PERIODIC BOUNDARIES ON OUTPUT.
Info: FIRST LDB TIMESTEP     50
Info: LAST LDB TIMESTEP     -1
Info: HOM BACKGROUND SCALING 1
Info: PME BACKGROUND SCALING 1
Info: MIN ATOMS PER PATCH    40
Info: EMPTY PATCH LOAD       40 ATOMS
Info: INITIAL TEMPERATURE    300
Info: CENTER OF MASS MOVING INITIALLY? NO
Info: DIELECTRIC             1
Info: EXCLUDE                SCALED ONE-FOUR
Info: 1-4 ELECTROSTATICS SCALED BY 0.833333
Info: MODIFIED 1-4 VDW PARAMETERS WILL BE USED
Info: DCD FILENAME           mobley_1728386_equil.dcd
Info: DCD FREQUENCY          100000
Info: DCD FIRST STEP         100000
Info: DCD FILE WILL CONTAIN UNIT CELL DATA
Info: XST FILENAME           mobley_1728386_equil.xst
Info: XST FREQUENCY          100000
Info: NO VELOCITY DCD OUTPUT
Info: NO FORCE DCD OUTPUT
Info: OUTPUT FILENAME        mobley_1728386_equil
Info: BINARY OUTPUT FILES WILL BE USED
Info: RESTART FILENAME       mobley_1728386_equil.restart
Info: RESTART FREQUENCY      100000
Info: BINARY RESTART FILES WILL BE USED
Info: CUTOFF                 9
Info: PAIRLIST DISTANCE      11
Info: PAIRLIST SHRINK RATE   0.01
Info: PAIRLIST GROW RATE     0.01
Info: PAIRLIST TRIGGER       0.3
Info: PAIRLISTS PER CYCLE    2
Info: PAIRLISTS ENABLED
Info: MARGIN                 8
Info: HYDROGEN GROUP CUTOFF  2.5
Info: PATCH DIMENSION        21.5
Info: ENERGY OUTPUT STEPS    100000
Info: ENERGY EVALUATION STEPS    100000
Info: OUTPUT ENERGY PRECISION 4
Info: CROSSTERM ENERGY INCLUDED IN DIHEDRAL
Info: TIMING OUTPUT STEPS    1000000
Info: PRESSURE OUTPUT STEPS  100000
Info: LANGEVIN DYNAMICS ACTIVE
Info: LANGEVIN TEMPERATURE   30
Info: LANGEVIN USING BBK INTEGRATOR
Info: LANGEVIN DAMPING COEFFICIENT IS 1 INVERSE PS
Info: LANGEVIN DYNAMICS APPLIED TO HYDROGENS
Info: LANGEVIN PISTON PRESSURE CONTROL ACTIVE
Info:        TARGET PRESSURE IS 1.01325 BAR
Info:     OSCILLATION PERIOD IS 50 FS
Info:             DECAY TIME IS 25 FS
Info:     PISTON TEMPERATURE IS 300 K
Info:       PRESSURE CONTROL IS GROUP-BASED
Info:    INITIAL STRAIN RATE IS 0 0 0
Info:       CELL FLUCTUATION IS ISOTROPIC
Info: PARTICLE MESH EWALD (PME) ACTIVE
Info: PME TOLERANCE               1e-06
Info: PME EWALD COEFFICIENT       0.348832
Info: PME INTERPOLATION ORDER     4
Info: PME GRID DIMENSIONS         36 36 40
Info: PME MAXIMUM GRID SPACING    1
Info: FULL ELECTROSTATIC EVALUATION FREQUENCY      2
Info: USING VERLET I (r-RESPA) MTS SCHEME.
Info: C1 SPLITTING OF LONG RANGE ELECTROSTATICS
Info: PLACING ATOMS IN PATCHES BY HYDROGEN GROUPS
Info: RIGID BONDS TO HYDROGEN : ALL
Info:         ERROR TOLERANCE : 1e-08
Info:          MAX ITERATIONS : 100
Info: RIGID WATER USING SETTLE ALGORITHM
Info: RANDOM NUMBER SEED     1743229789
Info: USE HYDROGEN BONDS?    NO
Info: Using AMBER format force field!
Info: AMBER PARM FILE        mobley_1728386.prmtop
Info: COORDINATE PDB         mobley_1728386.pdb
Info: Exclusions will be read from PARM file!
Info: SCNB (VDW SCALING)     2
Info: USING ARITHMETIC MEAN TO COMBINE L-J SIGMA PARAMETERS
Info: BINARY COORDINATES     mobley_1728386_min.coor
Info: SUMMARY OF PARAMETERS:
Info: 8 BONDS
Info: 8 ANGLES
Info: 6 DIHEDRAL
Info: 0 IMPROPER
Info: 0 CROSSTERM
Info: 0 VDW
Info: 28 VDW_PAIRS
Info: 0 NBTHOLE_PAIRS
Info: STRUCTURE SUMMARY:
Info: 2923 ATOMS
Info: 2923 BONDS
Info: 24 ANGLES
Info: 42 DIHEDRALS
Info: 0 IMPROPERS
Info: 0 CROSSTERMS
Info: 2976 EXCLUSIONS
Info: 2914 RIGID BONDS
Info: 5855 DEGREES OF FREEDOM
Info: 978 HYDROGEN GROUPS
Info: 3 ATOMS IN LARGEST HYDROGEN GROUP
Info: 978 MIGRATION GROUPS
Info: 3 ATOMS IN LARGEST MIGRATION GROUP
Info: TOTAL MASS = 17578.6 amu
Info: TOTAL CHARGE = -9.99048e-05 e
Info: MASS DENSITY = 0.668744 g/cm^3
Info: ATOM DENSITY = 0.0669645 atoms/A^3
Info: ADDED 0 IMPLICIT EXCLUSIONS
Info: NONBONDED TABLE R-SQUARED SPACING: 0.0625
Info: NONBONDED TABLE SIZE: 705 POINTS
Info: REMOVING COM VELOCITY -0.203801 0.05416 0.0331258
TCL: Running for 100000 steps
ETITLE: TS BOND ANGLE DIHED IMPRP ELECT VDW BOUNDARY MISC KINETIC TOTAL TEMP POTENTIAL TOTAL3 TEMPAVG PRESSURE GPRESSURE VOLUME PRESSAVG GPRESSAVG
ENERGY: 0 0.4275 1.3899 4.2794 0.0000 -13560.9036 2401.4758 0.0000 0.0000 1750.0662 -9403.2649 300.8278 -11153.3311 -9402.9342 300.8278 562.8789 598.3148 43650.0245 562.8789 598.3148
ENERGY: 100000 0.2857 2.0622 5.1917 0.0000 -14148.9374 2469.4441 0.0000 0.0000 176.9355 -11495.0182 30.4143 -11671.9537 -11494.6424 30.9492 31.0960 87.2330 28272.6486 4.9717 4.9836
TCL: Running 100000 steps at 60 kelvin.
TCL: Setting parameter langevinTemp to 60
TCL: Running for 100000 steps
ETITLE: TS BOND ANGLE DIHED IMPRP ELECT VDW BOUNDARY MISC KINETIC TOTAL TEMP POTENTIAL TOTAL3 TEMPAVG PRESSURE GPRESSURE VOLUME PRESSAVG GPRESSAVG
ENERGY: 100000 0.2857 2.0622 5.1917 0.0000 -14148.9374 2469.4441 0.0000 0.0000 176.8494 -11495.1043 30.3995 -11671.9537 -11494.6288 30.3995 34.9457 87.2314 28272.6486 34.9457 87.2314
ENERGY: 200000 0.7680 2.5924 5.2150 0.0000 -13997.6789 2383.3598 0.0000 0.0000 345.8138 -11259.9298 59.4437 -11605.7436 -11258.6439 59.9317 50.1621 105.1167 27756.8037 2.7661 2.7506
TCL: Running 100000 steps at 90 kelvin.
TCL: Setting parameter langevinTemp to 90
TCL: Running for 100000 steps
ETITLE: TS BOND ANGLE DIHED IMPRP ELECT VDW BOUNDARY MISC KINETIC TOTAL TEMP POTENTIAL TOTAL3 TEMPAVG PRESSURE GPRESSURE VOLUME PRESSAVG GPRESSAVG
ENERGY: 200000 0.7680 2.5924 5.2150 0.0000 -13997.6789 2383.3598 0.0000 0.0000 345.6365 -11260.1071 59.4132 -11605.7436 -11259.4290 59.4132 43.3973 105.1950 27756.8037 43.3973 105.1950
ENERGY: 300000 1.2865 3.2230 6.2464 0.0000 -13810.8510 2295.8129 0.0000 0.0000 527.0725 -10977.2097 90.6012 -11504.2822 -10976.2822 89.9405 -588.0699 -525.6430 28336.8240 3.8803 3.8333
TCL: Running 100000 steps at 120 kelvin.
TCL: Setting parameter langevinTemp to 120
TCL: Running for 100000 steps
ETITLE: TS BOND ANGLE DIHED IMPRP ELECT VDW BOUNDARY MISC KINETIC TOTAL TEMP POTENTIAL TOTAL3 TEMPAVG PRESSURE GPRESSURE VOLUME PRESSAVG GPRESSAVG
ENERGY: 300000 1.2865 3.2230 6.2464 0.0000 -13810.8510 2295.8129 0.0000 0.0000 526.8280 -10977.4542 90.5591 -11504.2822 -10976.2067 90.5591 -586.9056 -526.5035 28336.8240 -586.9056 -526.5035
ENERGY: 400000 0.7566 2.3160 6.2096 0.0000 -13710.3538 2328.7990 0.0000 0.0000 727.9715 -10644.3011 125.1347 -11372.2726 -10642.9097 119.7376 298.9317 369.2570 28160.8023 4.3886 4.3849
TCL: Running 100000 steps at 150 kelvin.
TCL: Setting parameter langevinTemp to 150
TCL: Running for 100000 steps
ETITLE: TS BOND ANGLE DIHED IMPRP ELECT VDW BOUNDARY MISC KINETIC TOTAL TEMP POTENTIAL TOTAL3 TEMPAVG PRESSURE GPRESSURE VOLUME PRESSAVG GPRESSAVG
ENERGY: 400000 0.7566 2.3160 6.2096 0.0000 -13710.3538 2328.7990 0.0000 0.0000 727.6202 -10644.6524 125.0743 -11372.2726 -10643.0553 125.0743 307.9037 369.0859 28160.8023 307.9037 369.0859
ENERGY: 500000 1.2146 2.7162 5.1827 0.0000 -13460.2756 2232.0559 0.0000 0.0000 891.6176 -10327.4885 153.2647 -11219.1062 -10325.8890 149.9444 37.2301 110.8394 28318.2506 4.3699 4.3078
TCL: Running 100000 steps at 180 kelvin.
TCL: Setting parameter langevinTemp to 180
TCL: Running for 100000 steps
ETITLE: TS BOND ANGLE DIHED IMPRP ELECT VDW BOUNDARY MISC KINETIC TOTAL TEMP POTENTIAL TOTAL3 TEMPAVG PRESSURE GPRESSURE VOLUME PRESSAVG GPRESSAVG
ENERGY: 500000 1.2146 2.7162 5.1827 0.0000 -13460.2756 2232.0559 0.0000 0.0000 891.1812 -10327.9249 153.1897 -11219.1062 -10325.9743 153.1897 61.8964 110.0032 28318.2506 61.8964 110.0032
ENERGY: 600000 3.9812 2.0409 6.2345 0.0000 -13082.5727 2172.4605 0.0000 0.0000 1074.9730 -9822.8825 184.7826 -10897.8555 -9820.9615 179.7641 342.6159 385.4415 28759.8004 3.7389 3.6854
TCL: Running 100000 steps at 210 kelvin.
TCL: Setting parameter langevinTemp to 210
TCL: Running for 100000 steps
ETITLE: TS BOND ANGLE DIHED IMPRP ELECT VDW BOUNDARY MISC KINETIC TOTAL TEMP POTENTIAL TOTAL3 TEMPAVG PRESSURE GPRESSURE VOLUME PRESSAVG GPRESSAVG
ENERGY: 600000 3.9812 2.0409 6.2345 0.0000 -13082.5727 2172.4605 0.0000 0.0000 1074.4537 -9823.4019 184.6933 -10897.8555 -9821.5277 184.6933 337.0441 385.1347 28759.8004 337.0441 385.1347
ENERGY: 700000 2.2978 4.1795 7.9892 0.0000 -12329.7937 1849.8994 0.0000 0.0000 1212.2994 -9253.1285 208.3883 -10465.4279 -9251.3941 209.8208 -209.8981 -194.1623 28493.0735 3.5681 3.4347
TCL: Running 100000 steps at 240 kelvin.
TCL: Setting parameter langevinTemp to 240
TCL: Running for 100000 steps
ETITLE: TS BOND ANGLE DIHED IMPRP ELECT VDW BOUNDARY MISC KINETIC TOTAL TEMP POTENTIAL TOTAL3 TEMPAVG PRESSURE GPRESSURE VOLUME PRESSAVG GPRESSAVG
ENERGY: 700000 2.2978 4.1795 7.9892 0.0000 -12329.7937 1849.8994 0.0000 0.0000 1211.6990 -9253.7288 208.2851 -10465.4279 -9251.7920 208.2851 -269.5891 -195.4916 28493.0735 -269.5891 -195.4916
ENERGY: 800000 2.6720 4.7102 6.6213 0.0000 -11869.5779 1844.2598 0.0000 0.0000 1388.1243 -8623.1903 238.6118 -10011.3146 -8622.7849 238.8220 975.9869 1068.9846 28815.0710 4.4824 4.7295
TCL: Running 100000 steps at 270 kelvin.
TCL: Setting parameter langevinTemp to 270
TCL: Running for 100000 steps
ETITLE: TS BOND ANGLE DIHED IMPRP ELECT VDW BOUNDARY MISC KINETIC TOTAL TEMP POTENTIAL TOTAL3 TEMPAVG PRESSURE GPRESSURE VOLUME PRESSAVG GPRESSAVG
ENERGY: 800000 2.6720 4.7102 6.6213 0.0000 -11869.5779 1844.2598 0.0000 0.0000 1387.4489 -8623.8657 238.4957 -10011.3146 -8621.4739 238.4957 982.2410 1065.9851 28815.0710 982.2410 1065.9851
ENERGY: 900000 3.1098 5.8373 9.7167 0.0000 -11052.4330 1498.4905 0.0000 0.0000 1546.3028 -7988.9758 265.8019 -9535.2787 -7985.0198 270.6340 -464.7661 -377.8474 29513.2614 3.4421 3.5895
TCL: Running 1000000 steps at 300 kelvin.
TCL: Setting parameter langevinTemp to 300
TCL: Running for 1000000 steps
ETITLE: TS BOND ANGLE DIHED IMPRP ELECT VDW BOUNDARY MISC KINETIC TOTAL TEMP POTENTIAL TOTAL3 TEMPAVG PRESSURE GPRESSURE VOLUME PRESSAVG GPRESSAVG
ENERGY: 900000 3.1098 5.8373 9.7167 0.0000 -11052.4330 1498.4905 0.0000 0.0000 1545.5229 -7989.7558 265.6678 -9535.2787 -7987.3576 265.6678 -460.7866 -377.1182 29513.2614 -460.7866 -377.1182
ENERGY: 1100000 3.7420 4.1312 8.6499 0.0000 -10603.2368 1357.8073 0.0000 0.0000 1712.1733 -7516.7331 294.3142 -9228.9064 -7509.8772 300.1111 -893.6390 -759.1805 30358.9740 3.5323 3.3578
ENERGY: 1300000 2.7354 3.0393 8.5946 0.0000 -10664.6002 1396.6840 0.0000 0.0000 1801.1630 -7452.3839 309.6111 -9253.5469 -7446.4789 300.3969 -472.6875 -418.3207 30054.8329 3.7931 3.7018
ENERGY: 1500000 2.0186 5.3736 7.1204 0.0000 -10636.8255 1413.3306 0.0000 0.0000 1767.9375 -7441.0448 303.8998 -9208.9823 -7437.5958 300.1347 -335.0294 -166.2029 30146.6997 2.0035 2.0357
ENERGY: 1700000 5.8356 3.3524 6.6866 0.0000 -10603.7495 1434.1725 0.0000 0.0000 1718.8042 -7434.8982 295.4540 -9153.7024 -7432.6762 300.0501 66.6724 145.3598 29981.5087 2.3436 2.3252
ENERGY: 1900000 2.4413 3.9437 8.8547 0.0000 -10579.5011 1354.8736 0.0000 0.0000 1771.2083 -7438.1796 304.4620 -9209.3879 -7434.8677 300.7049 -522.8860 -442.2642 29934.8136 2.1395 2.2145
TCL: Exiting due to exit command.
