Info: SIMULATION PARAMETERS:
Info: TIMESTEP               2
Info: NUMBER OF STEPS        0
Info: STEPS PER CYCLE        10
Info: PERIODIC CELL BASIS 1  31.0177 0 0
Info: PERIODIC CELL BASIS 2  0 31.3729 0
Info: PERIODIC CELL BASIS 3  0 0 31.466
Info: PERIODIC CELL CENTER   0 0 0
Info: WRAPPING WATERS AROUND PERIODIC BOUNDARIES ON OUTPUT.
Info: WRAPPING ALL CLUSTERS AROUND PERIODIC BOUNDARIES ON OUTPUT.
Info: FIRST LDB TIMESTEP     50
Info: LAST LDB TIMESTEP     -1
Info: HOM BACKGROUND SCALING 1
Info: PME BACKGROUND SCALING 1
Info: MIN ATOMS PER PATCH    40
Info: EMPTY PATCH LOAD       40 ATOMS
Info: VELOCITY FILE          mobley_2481002_equil.vel
Info: CENTER OF MASS MOVING INITIALLY? NO
Info: DIELECTRIC             1
Info: EXCLUDE                SCALED ONE-FOUR
Info: 1-4 ELECTROSTATICS SCALED BY 0.833333
Info: MODIFIED 1-4 VDW PARAMETERS WILL BE USED
Info: DCD FILENAME           mobley_2481002_prod.dcd
Info: DCD FREQUENCY          100000
Info: DCD FIRST STEP         100000
Info: DCD FILE WILL CONTAIN UNIT CELL DATA
Info: XST FILENAME           mobley_2481002_prod.xst
Info: XST FREQUENCY          100000
Info: NO VELOCITY DCD OUTPUT
Info: NO FORCE DCD OUTPUT
Info: OUTPUT FILENAME        mobley_2481002_prod
Info: BINARY OUTPUT FILES WILL BE USED
Info: RESTART FILENAME       mobley_2481002_prod.restart
Info: RESTART FREQUENCY      100000
Info: BINARY RESTART FILES WILL BE USED
Info: CUTOFF                 9
Info: PAIRLIST DISTANCE      11
Info: PAIRLIST SHRINK RATE   0.01
Info: PAIRLIST GROW RATE     0.01
Info: PAIRLIST TRIGGER       0.3
Info: PAIRLISTS PER CYCLE    2
Info: PAIRLISTS ENABLED
Info: MARGIN                 2
Info: HYDROGEN GROUP CUTOFF  2.5
Info: PATCH DIMENSION        15.5
Info: ENERGY OUTPUT STEPS    100000
Info: ENERGY EVALUATION STEPS    100000
Info: OUTPUT ENERGY PRECISION 4
Info: CROSSTERM ENERGY INCLUDED IN DIHEDRAL
Info: TIMING OUTPUT STEPS    1000000
Info: PRESSURE OUTPUT STEPS  100000
Info: ALCHEMICAL FEP ON
Info: FEP CURRENT LAMBDA VALUE     0
Info: FEP COMPARISON LAMBDA VALUE  0.05
Info: FEP INTRA-ALCHEMICAL NON-BONDED INTERACTIONS WILL BE RETAINED
Info: FEP INTRA-ALCHEMICAL BONDED INTERACTIONS WILL BE RETAINED
Info: FEP VDW SHIFTING COEFFICIENT 5
Info: FEP ELEC. ACTIVE FOR ANNIHILATED PARTICLES BETWEEN LAMBDA = 0 AND LAMBDA = 0.5
Info: FEP ELEC. ACTIVE FOR EXNIHILATED PARTICLES BETWEEN LAMBDA = 0.5 AND LAMBDA = 1
Info: FEP VDW ACTIVE FOR ANNIHILATED PARTICLES BETWEEN LAMBDA = 0 AND LAMBDA = 1
Info: FEP VDW ACTIVE FOR EXNIHILATED PARTICLES BETWEEN LAMBDA = 0 AND LAMBDA = 1
Info: FEP BOND ACTIVE FOR ANNIHILATED PARTICLES BETWEEN LAMBDA = 1 AND LAMBDA = 1
Info: FEP BOND ACTIVE FOR EXNIHILATED PARTICLES BETWEEN LAMBDA = 0 AND LAMBDA = 0
Info: LANGEVIN DYNAMICS ACTIVE
Info: LANGEVIN TEMPERATURE   300
Info: LANGEVIN USING BBK INTEGRATOR
Info: LANGEVIN DAMPING COEFFICIENT IS 1 INVERSE PS
Info: LANGEVIN DYNAMICS APPLIED TO HYDROGENS
Info: LANGEVIN PISTON PRESSURE CONTROL ACTIVE
Info:        TARGET PRESSURE IS 1.01325 BAR
Info:     OSCILLATION PERIOD IS 50 FS
Info:             DECAY TIME IS 25 FS
Info:     PISTON TEMPERATURE IS 300 K
Info:       PRESSURE CONTROL IS GROUP-BASED
Info:    INITIAL STRAIN RATE IS -0.000238454 -0.000238454 -0.000238454
Info:       CELL FLUCTUATION IS ISOTROPIC
Info: PARTICLE MESH EWALD (PME) ACTIVE
Info: PME TOLERANCE               1e-06
Info: PME EWALD COEFFICIENT       0.348832
Info: PME INTERPOLATION ORDER     4
Info: PME GRID DIMENSIONS         32 32 32
Info: PME MAXIMUM GRID SPACING    1
Info: PME CALCULATION WILL BE PERFORMED ON GPU
Info: FULL ELECTROSTATIC EVALUATION FREQUENCY      2
Info: USING VERLET I (r-RESPA) MTS SCHEME.
Info: C1 SPLITTING OF LONG RANGE ELECTROSTATICS
Info: PLACING ATOMS IN PATCHES BY HYDROGEN GROUPS
Info: RIGID BONDS TO HYDROGEN : ALL
Info:         ERROR TOLERANCE : 1e-08
Info:          MAX ITERATIONS : 100
Info: RIGID WATER USING SETTLE ALGORITHM
Info: RANDOM NUMBER SEED     1743477484
Info: USE HYDROGEN BONDS?    NO
Info: Using AMBER format force field!
Info: AMBER PARM FILE        mobley_2481002.prmtop
Info: COORDINATE PDB         mobley_2481002.pdb
Info: Exclusions will be read from PARM file!
Info: SCNB (VDW SCALING)     2
Info: USING ARITHMETIC MEAN TO COMBINE L-J SIGMA PARAMETERS
Info: BINARY COORDINATES     mobley_2481002_equil.coor
Info: SUMMARY OF PARAMETERS:
Info: 5 BONDS
Info: 4 ANGLES
Info:   4 HARMONIC
Info:   0 COSINE-BASED
Info: 1 DIHEDRAL
Info: 0 IMPROPER
Info: 0 CROSSTERM
Info: 0 VDW
Info: 21 VDW_PAIRS
Info: 0 NBTHOLE_PAIRS
Info: To read alchdata from file: mobley_2481002.pdb
Info: To read alchflag data from column: 5
Info: STRUCTURE SUMMARY:
Info: 2929 ATOMS
Info: 2928 BONDS
Info: 9 ANGLES
Info: 6 DIHEDRALS
Info: 0 IMPROPERS
Info: 0 CROSSTERMS
Info: 2943 EXCLUSIONS
Info: 2922 RIGID BONDS
Info: ALCH: 0 ATOMS TO DISAPPEAR IN FINAL STATE
Info: ALCH: 7 ATOMS TO APPEAR IN FINAL STATE
Info: 5865 DEGREES OF FREEDOM
Info: 981 HYDROGEN GROUPS
Info: 3 ATOMS IN LARGEST HYDROGEN GROUP
Info: 981 MIGRATION GROUPS
Info: 3 ATOMS IN LARGEST MIGRATION GROUP
Info: TOTAL MASS = 17712 amu
Info: TOTAL CHARGE = 1.11759e-08 e
Info: MASS DENSITY = 0.960552 g/cm^3
Info: ATOM DENSITY = 0.0956565 atoms/A^3
Info: ADDED 0 IMPLICIT EXCLUSIONS
Info: NONBONDED TABLE R-SQUARED SPACING: 0.0625
Info: NONBONDED TABLE SIZE: 705 POINTS
Info: REDUCING NUMBER OF PATCHES TO IMPROVE LOAD BALANCE
Info: REMOVING COM VELOCITY -0.050679 -0.0581654 -0.0174256
Info: Use 3D box decompostion in PME FFT.
Info: Updated CUDA force table with 4096 elements.
Info: Updated CUDA LJ table with 6 x 6 elements.
Info: Found 10 unique exclusion lists needing 12 bytes
TCL: Running for 1500000 steps
ETITLE: TS BOND ANGLE DIHED IMPRP ELECT VDW BOUNDARY MISC KINETIC TOTAL TEMP POTENTIAL TOTALAVG TEMPAVG PRESSURE GPRESSURE VOLUME PRESSAVG GPRESSAVG
ENERGY: 0 2.4340 2.0049 0.0000 0.0000 -10621.2441 1447.1065 0.0000 0.0000 1792.8745 -7376.8241 307.6609 -9169.6986 -7376.8241 307.6609 161.7869 240.5068 30619.9830 161.7869 240.5068
ENERGY: 300000 1.7463 2.5633 0.0000 0.0000 -10672.1308 1471.1857 0.0000 0.0000 1754.7234 -7441.9122 301.1141 -9196.6355 -7439.4225 301.2004 43.9698 140.0767 30210.0866 100.0791 155.5059
ENERGY: 600000 1.6265 0.8737 0.0000 0.0000 -10597.8938 1385.8983 0.0000 0.0000 1777.2624 -7432.2329 304.9818 -9209.4953 -7443.2773 301.1105 -431.3837 -381.2687 29959.6819 -80.2647 -30.4845
ENERGY: 900000 2.3782 3.2732 0.0000 0.0000 -10733.9620 1516.3023 0.0000 0.0000 1816.9181 -7395.0903 311.7868 -9212.0084 -7442.1386 302.2038 722.0201 830.8455 29900.4772 133.4751 192.8649
ENERGY: 1200000 0.5981 1.0837 0.0000 0.0000 -10678.7791 1438.0461 0.0000 0.0000 1727.6603 -7511.3909 296.4700 -9239.0511 -7457.5725 301.3995 -146.0722 -88.2102 30055.7715 39.2180 101.9107
ENERGY: 1500000 1.5583 0.6799 0.0000 0.0000 -10641.2323 1431.2842 0.0000 0.0000 1783.3309 -7424.3789 306.0232 -9207.7099 -7451.0118 301.1769 -41.1672 -48.4904 30132.8106 71.6858 126.1742
TCL: Running FEP window   2: Lambda1 0.05   Lambda2 0.1    [dLambda 0.05  ]
TCL: Setting parameter firsttimestep to 0
TCL: Setting parameter alchLambda to 0.05
Info: NONBONDED TABLE R-SQUARED SPACING: 0.0625
Info: NONBONDED TABLE SIZE: 705 POINTS
TCL: Setting parameter alchLambda2 to 0.1
Info: NONBONDED TABLE R-SQUARED SPACING: 0.0625
Info: NONBONDED TABLE SIZE: 705 POINTS
TCL: Running for 1500000 steps
ETITLE: TS BOND ANGLE DIHED IMPRP ELECT VDW BOUNDARY MISC KINETIC TOTAL TEMP POTENTIAL TOTALAVG TEMPAVG PRESSURE GPRESSURE VOLUME PRESSAVG GPRESSAVG
ENERGY: 0 1.5583 0.6799 0.0000 0.0000 -10641.2332 1437.4802 0.0000 0.0000 1782.4299 -7419.0849 305.8685 -9201.5148 -7419.0849 305.8685 -111.4373 -39.8280 30132.8106 -111.4373 -39.8280
ENERGY: 300000 3.2701 2.3648 0.0000 0.0000 -10522.7429 1349.4064 0.0000 0.0000 1715.1239 -7452.5778 294.3187 -9167.7017 -7431.4643 304.3922 -569.9349 -548.0012 29880.8056 -266.7079 -219.0502
ENERGY: 600000 2.0113 3.2283 0.0000 0.0000 -10550.8750 1419.1724 0.0000 0.0000 1769.2321 -7357.2309 303.6038 -9126.4630 -7429.3923 301.9311 110.9421 165.8025 30046.9262 3.5228 58.4662
ENERGY: 900000 0.2991 2.3340 0.0000 0.0000 -10518.3277 1427.3635 0.0000 0.0000 1767.2016 -7321.1293 303.2554 -9088.3309 -7418.6511 300.9908 370.5331 434.4512 30128.7644 -70.9843 -10.9156
ENERGY: 1200000 1.5715 3.2586 0.0000 0.0000 -10717.0566 1468.7120 0.0000 0.0000 1777.0513 -7466.4631 304.9456 -9243.5144 -7424.3054 300.7073 -97.9627 -31.1620 30346.1709 39.6886 93.5335
ENERGY: 1500000 1.0126 0.9814 0.0000 0.0000 -10643.3857 1459.7957 0.0000 0.0000 1790.6047 -7390.9914 307.2714 -9181.5961 -7427.4533 301.0697 556.1698 577.3401 29578.8749 60.1595 118.5577
TCL: Running FEP window   3: Lambda1 0.1    Lambda2 0.15000000000000002 [dLambda 0.05000000000000002]
TCL: Setting parameter firsttimestep to 0
TCL: Setting parameter alchLambda to 0.1
Info: NONBONDED TABLE R-SQUARED SPACING: 0.0625
Info: NONBONDED TABLE SIZE: 705 POINTS
TCL: Setting parameter alchLambda2 to 0.15000000000000002
Info: NONBONDED TABLE R-SQUARED SPACING: 0.0625
Info: NONBONDED TABLE SIZE: 705 POINTS
TCL: Running for 1500000 steps
ETITLE: TS BOND ANGLE DIHED IMPRP ELECT VDW BOUNDARY MISC KINETIC TOTAL TEMP POTENTIAL TOTALAVG TEMPAVG PRESSURE GPRESSURE VOLUME PRESSAVG GPRESSAVG
ENERGY: 0 1.0126 0.9814 0.0000 0.0000 -10643.3851 1461.5237 0.0000 0.0000 1789.7429 -7390.1246 307.1235 -9179.8674 -7390.1246 307.1235 508.2323 583.9352 29578.8749 508.2323 583.9352
ENERGY: 300000 5.4796 1.7822 0.0000 0.0000 -10443.1644 1293.5878 0.0000 0.0000 1781.4955 -7360.8192 305.7082 -9142.3147 -7427.6406 303.2293 -988.6415 -943.9234 30391.7444 59.7007 127.3247
ENERGY: 600000 0.8014 4.9095 0.0000 0.0000 -10799.0389 1542.4714 0.0000 0.0000 1704.7818 -7546.0748 292.5440 -9250.8566 -7460.0591 298.2111 717.1774 815.4235 29997.1524 160.8352 233.7128
ENERGY: 900000 1.3089 3.7152 0.0000 0.0000 -10665.6209 1443.4592 0.0000 0.0000 1768.1246 -7449.0129 303.4137 -9217.1376 -7457.1340 299.4988 -69.8973 -40.5079 30248.4833 264.3804 332.9878
ENERGY: 1200000 4.9106 4.9291 0.0000 0.0000 -10653.1455 1426.1744 0.0000 0.0000 1748.0683 -7469.0631 299.9720 -9217.1314 -7461.0324 299.1886 -290.2910 -148.9860 30047.0567 105.4519 177.6299
ENERGY: 1500000 3.4107 2.9905 0.0000 0.0000 -10528.9000 1361.2250 0.0000 0.0000 1759.8353 -7401.4385 301.9913 -9161.2737 -7457.7899 298.7648 -807.8946 -704.2395 30658.8720 29.4449 104.9001
TCL: Running FEP window   4: Lambda1 0.15000000000000002 Lambda2 0.2    [dLambda 0.04999999999999999]
TCL: Setting parameter firsttimestep to 0
TCL: Setting parameter alchLambda to 0.15000000000000002
Info: NONBONDED TABLE R-SQUARED SPACING: 0.0625
Info: NONBONDED TABLE SIZE: 705 POINTS
TCL: Setting parameter alchLambda2 to 0.2
Info: NONBONDED TABLE R-SQUARED SPACING: 0.0625
Info: NONBONDED TABLE SIZE: 705 POINTS
TCL: Running for 1500000 steps
ETITLE: TS BOND ANGLE DIHED IMPRP ELECT VDW BOUNDARY MISC KINETIC TOTAL TEMP POTENTIAL TOTALAVG TEMPAVG PRESSURE GPRESSURE VOLUME PRESSAVG GPRESSAVG
ENERGY: 0 3.4107 2.9905 0.0000 0.0000 -10528.9006 1361.7153 0.0000 0.0000 1758.9399 -7401.8442 301.8376 -9160.7841 -7401.8442 301.8376 -767.7855 -698.9093 30658.8720 -767.7855 -698.9093
ENERGY: 300000 0.9442 2.2384 0.0000 0.0000 -10593.2543 1415.0740 0.0000 0.0000 1816.6277 -7358.3700 311.7370 -9174.9977 -7404.0313 302.8123 -61.3136 -43.9371 30233.2644 -85.6052 -23.7763
ENERGY: 600000 1.6263 2.9027 0.0000 0.0000 -10653.5551 1481.4991 0.0000 0.0000 1767.0753 -7400.4518 303.2337 -9167.5271 -7419.6062 302.2837 506.3780 506.2550 30047.1202 -101.2433 -37.6739
ENERGY: 900000 2.9420 3.8205 0.0000 0.0000 -10581.5866 1380.9341 0.0000 0.0000 1733.9453 -7459.9448 297.5485 -9193.8900 -7433.6516 301.8898 -490.0169 -377.4838 29885.7472 -103.5317 -35.8360
ENERGY: 1200000 2.3901 3.1086 0.0000 0.0000 -10508.1776 1340.7729 0.0000 0.0000 1808.8106 -7353.0953 310.3955 -9161.9060 -7436.5024 302.5804 -598.2525 -570.6004 30276.8769 -196.1790 -136.3977
ENERGY: 1500000 1.4647 1.7840 0.0000 0.0000 -10778.3655 1496.0366 0.0000 0.0000 1713.7664 -7565.3138 294.0857 -9279.0802 -7446.2371 301.7915 367.4832 416.7743 29820.4646 -125.6960 -66.0144
TCL: Running FEP window   5: Lambda1 0.2    Lambda2 0.25   [dLambda 0.04999999999999999]
TCL: Setting parameter firsttimestep to 0
TCL: Setting parameter alchLambda to 0.2
Info: NONBONDED TABLE R-SQUARED SPACING: 0.0625
Info: NONBONDED TABLE SIZE: 705 POINTS
TCL: Setting parameter alchLambda2 to 0.25
Info: NONBONDED TABLE R-SQUARED SPACING: 0.0625
Info: NONBONDED TABLE SIZE: 705 POINTS
TCL: Running for 1500000 steps
ETITLE: TS BOND ANGLE DIHED IMPRP ELECT VDW BOUNDARY MISC KINETIC TOTAL TEMP POTENTIAL TOTALAVG TEMPAVG PRESSURE GPRESSURE VOLUME PRESSAVG GPRESSAVG
ENERGY: 0 1.4647 1.7840 0.0000 0.0000 -10778.3666 1497.2158 0.0000 0.0000 1712.9087 -7564.9933 293.9386 -9277.9021 -7564.9933 293.9386 349.0206 425.9058 29820.4646 349.0206 425.9058
ENERGY: 300000 2.2100 1.5653 0.0000 0.0000 -10747.9509 1497.3064 0.0000 0.0000 1739.1572 -7507.7120 298.4429 -9246.8692 -7477.0476 300.1388 495.1259 521.7142 29722.8603 81.7964 132.5507
ENERGY: 600000 2.1498 3.8608 0.0000 0.0000 -10469.2408 1315.0991 0.0000 0.0000 1793.1460 -7354.9852 307.7074 -9148.1312 -7438.3733 300.9853 -639.0703 -539.4458 29942.0261 130.1990 179.6957
ENERGY: 900000 0.7449 0.7214 0.0000 0.0000 -10560.4229 1441.6005 0.0000 0.0000 1748.6250 -7368.7310 300.0676 -9117.3560 -7424.8094 301.3882 419.6212 460.4840 29959.2956 259.2484 308.9144
ENERGY: 1200000 2.8772 4.8941 0.0000 0.0000 -10647.1810 1430.5547 0.0000 0.0000 1749.5828 -7459.2723 300.2319 -9208.8551 -7433.2451 300.5066 -190.5166 -160.1540 30343.8430 104.0585 163.0144
ENERGY: 1500000 0.3037 3.5911 0.0000 0.0000 -10527.9692 1358.5720 0.0000 0.0000 1710.6765 -7454.8259 293.5555 -9165.5024 -7433.4249 299.8094 -582.4025 -481.4620 30209.1123 32.5481 93.8735
TCL: Running FEP window   6: Lambda1 0.25   Lambda2 0.3    [dLambda 0.04999999999999999]
TCL: Setting parameter firsttimestep to 0
TCL: Setting parameter alchLambda to 0.25
Info: NONBONDED TABLE R-SQUARED SPACING: 0.0625
Info: NONBONDED TABLE SIZE: 705 POINTS
TCL: Setting parameter alchLambda2 to 0.3
Info: NONBONDED TABLE R-SQUARED SPACING: 0.0625
Info: NONBONDED TABLE SIZE: 705 POINTS
TCL: Running for 1500000 steps
ETITLE: TS BOND ANGLE DIHED IMPRP ELECT VDW BOUNDARY MISC KINETIC TOTAL TEMP POTENTIAL TOTALAVG TEMPAVG PRESSURE GPRESSURE VOLUME PRESSAVG GPRESSAVG
ENERGY: 0 0.3037 3.5911 0.0000 0.0000 -10527.9701 1358.4841 0.0000 0.0000 1709.7684 -7455.8227 293.3997 -9165.5912 -7455.8227 293.3997 -556.3174 -475.5882 30209.1123 -556.3174 -475.5882
ENERGY: 300000 0.1640 1.7794 0.0000 0.0000 -10635.3287 1454.2112 0.0000 0.0000 1781.3890 -7397.7851 305.6899 -9179.1741 -7422.2379 301.7065 504.5896 531.4716 29831.7975 -245.0236 -216.9326
ENERGY: 600000 1.7006 2.3372 0.0000 0.0000 -10784.7681 1501.6190 0.0000 0.0000 1710.2769 -7568.8344 293.4870 -9279.1113 -7454.5200 301.6088 374.6513 462.9775 29761.8009 -199.3927 -143.6920
ENERGY: 900000 2.7795 3.1686 0.0000 0.0000 -10723.7400 1479.0592 0.0000 0.0000 1741.7283 -7497.0044 298.8841 -9238.7327 -7458.8496 301.7926 212.3012 378.2986 30072.3689 -193.4678 -118.8759
ENERGY: 1200000 2.0668 0.9237 0.0000 0.0000 -10619.5878 1382.4185 0.0000 0.0000 1777.6167 -7456.5621 305.0426 -9234.1788 -7459.9688 300.9807 -467.1506 -426.4067 30016.1493 -232.7032 -164.3191
ENERGY: 1500000 1.9113 2.5098 0.0000 0.0000 -10694.1029 1464.2118 0.0000 0.0000 1756.7272 -7468.7428 301.4579 -9225.4700 -7458.9673 300.6237 329.5481 465.5704 29796.7172 -199.1800 -125.9953
TCL: Running FEP window   7: Lambda1 0.3    Lambda2 0.35   [dLambda 0.04999999999999999]
TCL: Setting parameter firsttimestep to 0
TCL: Setting parameter alchLambda to 0.3
Info: NONBONDED TABLE R-SQUARED SPACING: 0.0625
Info: NONBONDED TABLE SIZE: 705 POINTS
TCL: Setting parameter alchLambda2 to 0.35
Info: NONBONDED TABLE R-SQUARED SPACING: 0.0625
Info: NONBONDED TABLE SIZE: 705 POINTS
TCL: Running for 1500000 steps
ETITLE: TS BOND ANGLE DIHED IMPRP ELECT VDW BOUNDARY MISC KINETIC TOTAL TEMP POTENTIAL TOTALAVG TEMPAVG PRESSURE GPRESSURE VOLUME PRESSAVG GPRESSAVG
ENERGY: 0 1.9113 2.5098 0.0000 0.0000 -10694.1036 1464.6582 0.0000 0.0000 1755.8614 -7469.1628 301.3093 -9225.0242 -7469.1628 301.3093 378.1156 472.9133 29796.7172 378.1156 472.9133
ENERGY: 300000 1.0362 3.4086 0.0000 0.0000 -10708.2842 1438.2410 0.0000 0.0000 1716.3838 -7549.2145 294.5349 -9265.5983 -7497.1570 297.2103 21.1136 69.3920 30049.1764 -94.1865 -35.7743
ENERGY: 600000 2.3302 2.5219 0.0000 0.0000 -10709.2880 1456.3050 0.0000 0.0000 1753.3917 -7494.7393 300.8855 -9248.1309 -7488.7023 297.5512 -51.8482 -26.2063 30258.5045 35.8046 87.0438
ENERGY: 900000 1.6768 2.0481 0.0000 0.0000 -10760.9917 1535.7869 0.0000 0.0000 1729.0240 -7492.4559 296.7040 -9221.4799 -7473.4524 297.6099 637.9169 654.8435 30380.9364 219.8280 268.5104
ENERGY: 1200000 0.9732 3.9545 0.0000 0.0000 -10656.8204 1422.3067 0.0000 0.0000 1731.4276 -7498.1585 297.1165 -9229.5860 -7474.1404 298.5343 -19.7573 61.4688 29911.1784 133.9339 185.8181
ENERGY: 1500000 1.6508 1.7280 0.0000 0.0000 -10707.4120 1445.1159 0.0000 0.0000 1756.9956 -7501.9216 301.5040 -9258.9172 -7468.4085 299.0411 -89.2167 1.5175 30362.2339 42.2547 97.7067
TCL: Running FEP window   8: Lambda1 0.35   Lambda2 0.39999999999999997 [dLambda 0.04999999999999999]
TCL: Setting parameter firsttimestep to 0
TCL: Setting parameter alchLambda to 0.35
Info: NONBONDED TABLE R-SQUARED SPACING: 0.0625
Info: NONBONDED TABLE SIZE: 705 POINTS
TCL: Setting parameter alchLambda2 to 0.39999999999999997
Info: NONBONDED TABLE R-SQUARED SPACING: 0.0625
Info: NONBONDED TABLE SIZE: 705 POINTS
TCL: Running for 1500000 steps
ETITLE: TS BOND ANGLE DIHED IMPRP ELECT VDW BOUNDARY MISC KINETIC TOTAL TEMP POTENTIAL TOTALAVG TEMPAVG PRESSURE GPRESSURE VOLUME PRESSAVG GPRESSAVG
ENERGY: 0 1.6508 1.7280 0.0000 0.0000 -10707.4119 1445.4028 0.0000 0.0000 1756.1543 -7502.4760 301.3596 -9258.6303 -7502.4760 301.3596 -74.8257 8.4679 30362.2339 -74.8257 8.4679
ENERGY: 300000 4.0139 1.6582 0.0000 0.0000 -10700.7663 1500.7732 0.0000 0.0000 1760.5090 -7433.8120 302.1069 -9194.3210 -7443.6674 301.0542 496.0500 500.4839 30086.0583 121.4848 185.4921
ENERGY: 600000 1.0399 0.7943 0.0000 0.0000 -10766.5975 1463.5953 0.0000 0.0000 1733.6556 -7567.5124 297.4988 -9301.1681 -7455.9463 299.4001 22.5451 117.9726 29874.4823 -30.1583 30.8582
ENERGY: 900000 1.3027 0.9430 0.0000 0.0000 -10608.5005 1405.8653 0.0000 0.0000 1732.1776 -7468.2119 297.2451 -9200.3895 -7461.6249 298.5683 -50.7387 39.0819 29739.6972 34.5434 99.4186
ENERGY: 1200000 0.7350 1.2895 0.0000 0.0000 -10716.5034 1434.7261 0.0000 0.0000 1782.9421 -7496.8107 305.9565 -9279.7528 -7456.9338 299.7607 -365.2299 -269.4121 30282.4287 -33.7951 36.3009
ENERGY: 1500000 0.4857 1.4063 0.0000 0.0000 -10615.1316 1432.2825 0.0000 0.0000 1776.6736 -7404.2836 304.8808 -9180.9572 -7457.5199 298.9098 -45.9916 4.0756 30475.4078 31.8244 100.2297
TCL: Running FEP window   9: Lambda1 0.39999999999999997 Lambda2 0.44999999999999996 [dLambda 0.04999999999999999]
TCL: Setting parameter firsttimestep to 0
TCL: Setting parameter alchLambda to 0.39999999999999997
Info: NONBONDED TABLE R-SQUARED SPACING: 0.0625
Info: NONBONDED TABLE SIZE: 705 POINTS
TCL: Setting parameter alchLambda2 to 0.44999999999999996
Info: NONBONDED TABLE R-SQUARED SPACING: 0.0625
Info: NONBONDED TABLE SIZE: 705 POINTS
TCL: Running for 1500000 steps
ETITLE: TS BOND ANGLE DIHED IMPRP ELECT VDW BOUNDARY MISC KINETIC TOTAL TEMP POTENTIAL TOTALAVG TEMPAVG PRESSURE GPRESSURE VOLUME PRESSAVG GPRESSAVG
ENERGY: 0 0.4857 1.4063 0.0000 0.0000 -10615.1327 1432.4608 0.0000 0.0000 1775.7990 -7404.9808 304.7307 -9180.7799 -7404.9808 304.7307 -74.3674 9.8342 30475.4078 -74.3674 9.8342
ENERGY: 300000 2.3757 3.4415 0.0000 0.0000 -10556.7344 1377.8873 0.0000 0.0000 1766.7600 -7406.2700 303.1796 -9173.0300 -7407.3749 302.6565 -515.0852 -481.8674 30540.9012 -223.2082 -164.8657
ENERGY: 600000 1.5601 3.0822 0.0000 0.0000 -10658.1846 1432.2266 0.0000 0.0000 1737.5453 -7483.7704 298.1663 -9221.3157 -7421.6631 301.0212 120.6955 162.1265 29985.5700 -322.3128 -274.0340
ENERGY: 900000 2.7996 1.2856 0.0000 0.0000 -10694.1538 1492.5442 0.0000 0.0000 1698.0640 -7499.4604 291.3912 -9197.5244 -7439.9354 299.7084 433.5010 455.2786 30083.8273 -114.1037 -59.9946
ENERGY: 1200000 1.2838 1.0475 0.0000 0.0000 -10626.7116 1392.0502 0.0000 0.0000 1759.0585 -7473.2716 301.8580 -9232.3301 -7452.6253 299.4852 -410.4985 -355.2298 30522.0047 -178.2980 -123.4305
ENERGY: 1500000 0.7531 1.6275 0.0000 0.0000 -10686.6396 1447.8674 0.0000 0.0000 1766.0659 -7470.3257 303.0605 -9236.3916 -7451.6887 300.2584 140.5832 138.2471 29899.8904 -74.7450 -24.7806
TCL: Running FEP window  10: Lambda1 0.44999999999999996 Lambda2 0.49999999999999994 [dLambda 0.04999999999999999]
TCL: Setting parameter firsttimestep to 0
TCL: Setting parameter alchLambda to 0.44999999999999996
Info: NONBONDED TABLE R-SQUARED SPACING: 0.0625
Info: NONBONDED TABLE SIZE: 705 POINTS
TCL: Setting parameter alchLambda2 to 0.49999999999999994
Info: NONBONDED TABLE R-SQUARED SPACING: 0.0625
Info: NONBONDED TABLE SIZE: 705 POINTS
TCL: Running for 1500000 steps
ETITLE: TS BOND ANGLE DIHED IMPRP ELECT VDW BOUNDARY MISC KINETIC TOTAL TEMP POTENTIAL TOTALAVG TEMPAVG PRESSURE GPRESSURE VOLUME PRESSAVG GPRESSAVG
ENERGY: 0 0.7531 1.6275 0.0000 0.0000 -10686.6388 1448.7789 0.0000 0.0000 1765.2119 -7470.2674 302.9139 -9235.4793 -7470.2674 302.9139 76.3778 149.3836 29899.8904 76.3778 149.3836
ENERGY: 300000 2.5964 2.7466 0.0000 0.0000 -10666.5283 1413.8282 0.0000 0.0000 1742.6021 -7504.7548 299.0340 -9247.3570 -7468.0057 300.7521 -207.3619 -115.7775 29827.9682 189.1697 259.4633
ENERGY: 600000 3.6447 1.8691 0.0000 0.0000 -10568.6122 1393.2355 0.0000 0.0000 1695.8429 -7474.0200 291.0100 -9169.8629 -7450.9892 299.2944 -619.7448 -499.5789 30541.5311 1.2357 88.7948
ENERGY: 900000 2.8552 2.3100 0.0000 0.0000 -10705.0372 1437.3879 0.0000 0.0000 1793.4389 -7469.0453 307.7577 -9262.4841 -7453.9969 299.9922 -190.3264 -117.0262 30085.6892 -61.7195 18.9033
ENERGY: 1200000 1.0401 1.0662 0.0000 0.0000 -10618.3746 1475.5477 0.0000 0.0000 1795.6635 -7345.0569 308.1395 -9140.7205 -7441.3327 300.4872 407.2531 479.4004 30149.1498 -46.6191 29.8056
ENERGY: 1500000 2.6490 3.6531 0.0000 0.0000 -10766.2647 1546.9355 0.0000 0.0000 1705.8896 -7507.1374 292.7341 -9213.0270 -7450.2014 300.6644 666.4586 761.7461 30217.0185 -37.8240 43.9188
TCL: Running FEP window  11: Lambda1 0.49999999999999994 Lambda2 0.5499999999999999 [dLambda 0.04999999999999999]
TCL: Setting parameter firsttimestep to 0
TCL: Setting parameter alchLambda to 0.49999999999999994
Info: NONBONDED TABLE R-SQUARED SPACING: 0.0625
Info: NONBONDED TABLE SIZE: 705 POINTS
TCL: Setting parameter alchLambda2 to 0.5499999999999999
Info: NONBONDED TABLE R-SQUARED SPACING: 0.0625
Info: NONBONDED TABLE SIZE: 705 POINTS
TCL: Running for 1500000 steps
ETITLE: TS BOND ANGLE DIHED IMPRP ELECT VDW BOUNDARY MISC KINETIC TOTAL TEMP POTENTIAL TOTALAVG TEMPAVG PRESSURE GPRESSURE VOLUME PRESSAVG GPRESSAVG
ENERGY: 0 2.6490 3.6531 0.0000 0.0000 -10766.2651 1546.6728 0.0000 0.0000 1705.0435 -7508.2467 292.5889 -9213.2902 -7508.2467 292.5889 680.7525 760.7936 30217.0185 680.7525 760.7936
ENERGY: 300000 1.8164 2.0104 0.0000 0.0000 -10591.0958 1395.1094 0.0000 0.0000 1706.7277 -7485.4319 292.8779 -9192.1596 -7468.6150 295.3766 -596.4062 -559.9511 30513.0901 -369.5242 -303.8225
ENERGY: 600000 2.2009 0.7653 0.0000 0.0000 -10583.4075 1427.2143 0.0000 0.0000 1792.0276 -7361.1995 307.5155 -9153.2271 -7437.8484 296.7068 58.8297 161.7517 30308.8986 -160.3137 -78.2539
ENERGY: 900000 2.8521 2.6939 0.0000 0.0000 -10647.6955 1451.4074 0.0000 0.0000 1707.0287 -7483.7134 292.9296 -9190.7421 -7451.9418 296.3293 1.4348 58.7864 30127.5349 -88.7381 -17.5296
ENERGY: 1200000 2.6472 4.3528 0.0000 0.0000 -10487.0886 1344.1155 0.0000 0.0000 1753.8730 -7382.1001 300.9681 -9135.9731 -7443.2852 297.4324 -410.9320 -309.9532 30261.7563 -70.2729 1.8307
ENERGY: 1500000 0.9502 2.9706 0.0000 0.0000 -10658.9760 1485.7557 0.0000 0.0000 1823.6812 -7345.6184 312.9474 -9169.2996 -7445.1130 298.6415 665.1458 759.6528 29929.9479 -61.6105 6.5866
TCL: Running FEP window  12: Lambda1 0.5499999999999999 Lambda2 0.6    [dLambda 0.050000000000000044]
TCL: Setting parameter firsttimestep to 0
TCL: Setting parameter alchLambda to 0.5499999999999999
Info: NONBONDED TABLE R-SQUARED SPACING: 0.0625
Info: NONBONDED TABLE SIZE: 705 POINTS
TCL: Setting parameter alchLambda2 to 0.6
Info: NONBONDED TABLE R-SQUARED SPACING: 0.0625
Info: NONBONDED TABLE SIZE: 705 POINTS
TCL: Running for 1500000 steps
ETITLE: TS BOND ANGLE DIHED IMPRP ELECT VDW BOUNDARY MISC KINETIC TOTAL TEMP POTENTIAL TOTALAVG TEMPAVG PRESSURE GPRESSURE VOLUME PRESSAVG GPRESSAVG
ENERGY: 0 0.9502 2.9706 0.0000 0.0000 -10658.9950 1485.9056 0.0000 0.0000 1822.8107 -7346.3580 312.7980 -9169.1687 -7346.3580 312.7980 685.0159 767.6443 29929.9479 685.0159 767.6443
ENERGY: 300000 2.2836 1.2594 0.0000 0.0000 -10646.6713 1396.3753 0.0000 0.0000 1767.4836 -7479.2693 303.3037 -9246.7529 -7442.3456 304.2192 -490.9855 -439.4495 30340.1279 -189.3127 -122.5184
ENERGY: 600000 0.9307 2.0977 0.0000 0.0000 -10592.0384 1436.1820 0.0000 0.0000 1747.0890 -7405.7391 299.8040 -9152.8280 -7445.8908 301.5175 51.2148 59.5867 30596.9378 -344.4870 -285.3271
ENERGY: 900000 3.4675 2.6296 0.0000 0.0000 -10722.3631 1494.3490 0.0000 0.0000 1766.9532 -7454.9638 303.2127 -9221.9170 -7440.7658 301.9284 356.0638 438.7535 29912.8309 -235.6488 -167.0536
ENERGY: 1200000 1.3072 3.0791 0.0000 0.0000 -10748.4022 1478.3422 0.0000 0.0000 1787.9746 -7477.6990 306.8200 -9265.6737 -7442.4368 302.0797 302.9899 391.2587 29733.0918 -172.5163 -103.0979
ENERGY: 1500000 0.6609 2.8777 0.0000 0.0000 -10795.4076 1483.9698 0.0000 0.0000 1709.0500 -7598.8492 293.2764 -9307.8992 -7466.9668 300.0775 -152.0499 -47.6757 30473.0845 -127.8794 -58.7576
TCL: Running FEP window  13: Lambda1 0.6    Lambda2 0.65   [dLambda 0.050000000000000044]
TCL: Setting parameter firsttimestep to 0
TCL: Setting parameter alchLambda to 0.6
Info: NONBONDED TABLE R-SQUARED SPACING: 0.0625
Info: NONBONDED TABLE SIZE: 705 POINTS
TCL: Setting parameter alchLambda2 to 0.65
Info: NONBONDED TABLE R-SQUARED SPACING: 0.0625
Info: NONBONDED TABLE SIZE: 705 POINTS
TCL: Running for 1500000 steps
ETITLE: TS BOND ANGLE DIHED IMPRP ELECT VDW BOUNDARY MISC KINETIC TOTAL TEMP POTENTIAL TOTALAVG TEMPAVG PRESSURE GPRESSURE VOLUME PRESSAVG GPRESSAVG
ENERGY: 0 0.6609 2.8777 0.0000 0.0000 -10795.4433 1483.5767 0.0000 0.0000 1708.1764 -7600.1516 293.1265 -9308.3280 -7600.1516 293.1265 -146.1439 -43.8834 30473.0845 -146.1439 -43.8834
ENERGY: 300000 2.7898 5.0875 0.0000 0.0000 -10605.8656 1441.4169 0.0000 0.0000 1740.0638 -7416.5075 298.5984 -9156.5713 -7470.6442 298.5901 107.7968 134.5820 30280.2048 259.2874 309.1776
ENERGY: 600000 1.0327 3.1861 0.0000 0.0000 -10726.3534 1428.0509 0.0000 0.0000 1759.1901 -7534.8936 301.8806 -9294.0838 -7499.6236 297.6070 -343.0882 -330.4778 30190.0990 91.1552 121.4275
ENERGY: 900000 4.7472 1.3667 0.0000 0.0000 -10580.7268 1392.7772 0.0000 0.0000 1796.3508 -7385.4849 308.2574 -9181.8357 -7482.4218 299.2133 -141.6428 -104.3394 30411.6597 17.0512 64.2023
ENERGY: 1200000 1.1617 5.4436 0.0000 0.0000 -10766.0786 1525.7326 0.0000 0.0000 1731.9661 -7501.7747 297.2089 -9233.7408 -7474.9623 299.7175 596.0542 651.4438 30196.3278 96.8338 143.0939
ENERGY: 1500000 1.4430 1.2039 0.0000 0.0000 -10598.6390 1383.5418 0.0000 0.0000 1744.0032 -7468.4471 299.2745 -9212.4504 -7469.2142 299.8435 -432.0314 -378.2178 30055.3940 -18.8290 34.5674
TCL: Running FEP window  14: Lambda1 0.65   Lambda2 0.7000000000000001 [dLambda 0.050000000000000044]
TCL: Setting parameter firsttimestep to 0
TCL: Setting parameter alchLambda to 0.65
Info: NONBONDED TABLE R-SQUARED SPACING: 0.0625
Info: NONBONDED TABLE SIZE: 705 POINTS
TCL: Setting parameter alchLambda2 to 0.7000000000000001
Info: NONBONDED TABLE R-SQUARED SPACING: 0.0625
Info: NONBONDED TABLE SIZE: 705 POINTS
TCL: Running for 1500000 steps
ETITLE: TS BOND ANGLE DIHED IMPRP ELECT VDW BOUNDARY MISC KINETIC TOTAL TEMP POTENTIAL TOTALAVG TEMPAVG PRESSURE GPRESSURE VOLUME PRESSAVG GPRESSAVG
ENERGY: 0 1.4430 1.2039 0.0000 0.0000 -10598.6223 1383.6797 0.0000 0.0000 1743.1504 -7469.1452 299.1281 -9212.2956 -7469.1452 299.1281 -456.4688 -370.6514 30055.3940 -456.4688 -370.6514
ENERGY: 300000 2.3111 3.6542 0.0000 0.0000 -10708.2889 1504.2550 0.0000 0.0000 1766.7481 -7431.3206 303.1775 -9198.0687 -7453.9428 303.2395 633.1261 732.1786 30219.6111 35.6083 89.4649
ENERGY: 600000 1.0920 2.8886 0.0000 0.0000 -10689.6005 1440.7423 0.0000 0.0000 1731.3169 -7513.5607 297.0975 -9244.8775 -7462.1411 301.8558 48.4391 107.4622 30068.4048 -256.0659 -187.9526
ENERGY: 900000 1.8005 2.1400 0.0000 0.0000 -10559.6612 1418.5705 0.0000 0.0000 1730.8912 -7406.2590 297.0244 -9137.1502 -7454.7960 301.1039 -153.6076 -127.4952 30877.5387 -232.2030 -165.0626
ENERGY: 1200000 0.2370 2.2646 0.0000 0.0000 -10520.9124 1380.9755 0.0000 0.0000 1699.3136 -7438.1217 291.6056 -9137.4353 -7447.9693 300.7368 -227.3562 -103.1418 30094.0511 -197.0543 -121.1149
ENERGY: 1500000 3.5036 2.6198 0.0000 0.0000 -10594.8293 1441.9598 0.0000 0.0000 1750.5286 -7396.2175 300.3942 -9146.7461 -7438.8398 300.2854 166.5264 239.9082 30378.5156 -118.5049 -40.6900
TCL: Running FEP window  15: Lambda1 0.7000000000000001 Lambda2 0.7500000000000001 [dLambda 0.050000000000000044]
TCL: Setting parameter firsttimestep to 0
TCL: Setting parameter alchLambda to 0.7000000000000001
Info: NONBONDED TABLE R-SQUARED SPACING: 0.0625
Info: NONBONDED TABLE SIZE: 705 POINTS
TCL: Setting parameter alchLambda2 to 0.7500000000000001
Info: NONBONDED TABLE R-SQUARED SPACING: 0.0625
Info: NONBONDED TABLE SIZE: 705 POINTS
TCL: Running for 1500000 steps
ETITLE: TS BOND ANGLE DIHED IMPRP ELECT VDW BOUNDARY MISC KINETIC TOTAL TEMP POTENTIAL TOTALAVG TEMPAVG PRESSURE GPRESSURE VOLUME PRESSAVG GPRESSAVG
ENERGY: 0 3.5036 2.6198 0.0000 0.0000 -10594.8262 1441.5469 0.0000 0.0000 1749.6130 -7397.5430 300.2371 -9147.1560 -7397.5430 300.2371 167.0839 243.6284 30378.5156 167.0839 243.6284
ENERGY: 300000 1.1976 3.2057 0.0000 0.0000 -10658.9512 1399.7508 0.0000 0.0000 1789.4209 -7465.3763 307.0682 -9254.7971 -7462.5287 301.9985 -475.4655 -369.6368 30363.6745 -182.2298 -103.5702
ENERGY: 600000 1.9271 2.7427 0.0000 0.0000 -10687.7284 1476.2031 0.0000 0.0000 1787.7933 -7419.0622 306.7889 -9206.8556 -7449.6240 301.0471 387.8677 471.2803 30334.1234 -73.7202 0.9563
ENERGY: 900000 3.7150 1.2336 0.0000 0.0000 -10438.5360 1296.0062 0.0000 0.0000 1785.1851 -7352.3961 306.3413 -9137.5812 -7450.9224 301.4375 -1059.3993 -1017.7544 30672.0432 -88.6720 -18.4794
ENERGY: 1200000 3.3681 3.5990 0.0000 0.0000 -10784.2515 1453.5130 0.0000 0.0000 1717.6065 -7606.1650 294.7447 -9323.7714 -7464.4771 300.6531 -231.2334 -177.5202 30028.5750 -102.5183 -33.7409
ENERGY: 1500000 0.3011 3.6120 0.0000 0.0000 -10647.1878 1450.0516 0.0000 0.0000 1763.6402 -7429.5829 302.6442 -9193.2231 -7464.0165 301.0150 159.4381 261.4973 30299.0679 -128.2028 -55.9270
TCL: Running FEP window  16: Lambda1 0.7500000000000001 Lambda2 0.8000000000000002 [dLambda 0.050000000000000044]
TCL: Setting parameter firsttimestep to 0
TCL: Setting parameter alchLambda to 0.7500000000000001
Info: NONBONDED TABLE R-SQUARED SPACING: 0.0625
Info: NONBONDED TABLE SIZE: 705 POINTS
TCL: Setting parameter alchLambda2 to 0.8000000000000002
Info: NONBONDED TABLE R-SQUARED SPACING: 0.0625
Info: NONBONDED TABLE SIZE: 705 POINTS
TCL: Running for 1500000 steps
ETITLE: TS BOND ANGLE DIHED IMPRP ELECT VDW BOUNDARY MISC KINETIC TOTAL TEMP POTENTIAL TOTALAVG TEMPAVG PRESSURE GPRESSURE VOLUME PRESSAVG GPRESSAVG
ENERGY: 0 0.3011 3.6120 0.0000 0.0000 -10647.3106 1449.7696 0.0000 0.0000 1762.7682 -7430.8597 302.4946 -9193.6279 -7430.8597 302.4946 177.0444 264.7527 30299.0679 177.0444 264.7527
ENERGY: 300000 1.9788 3.1003 0.0000 0.0000 -10736.2813 1544.8288 0.0000 0.0000 1791.1244 -7395.2490 307.3606 -9186.3735 -7469.6561 299.6779 862.5748 930.7299 30592.5796 248.0004 331.1100
ENERGY: 600000 1.5251 0.7656 0.0000 0.0000 -10594.1167 1413.7279 0.0000 0.0000 1777.5679 -7400.5301 305.0342 -9178.0981 -7477.2280 299.6430 -67.1466 21.8960 30289.0026 106.3646 186.9597
ENERGY: 900000 1.0573 1.3240 0.0000 0.0000 -10690.0349 1478.7579 0.0000 0.0000 1773.0369 -7435.8589 304.2567 -9208.8958 -7462.4721 299.4773 232.9766 256.5292 30493.8926 178.2610 260.1034
ENERGY: 1200000 1.1722 1.6934 0.0000 0.0000 -10466.5688 1350.4045 0.0000 0.0000 1734.7980 -7378.5007 297.6948 -9113.2987 -7451.7971 299.3657 -560.3620 -474.4068 30612.9335 92.3626 166.6673
ENERGY: 1500000 3.0094 4.1510 0.0000 0.0000 -10694.5861 1466.3703 0.0000 0.0000 1768.0011 -7453.0542 303.3925 -9221.0554 -7445.5596 300.3529 374.2976 367.2304 30229.5590 54.4985 121.5596
TCL: Running FEP window  17: Lambda1 0.8000000000000002 Lambda2 0.8500000000000002 [dLambda 0.050000000000000044]
TCL: Setting parameter firsttimestep to 0
TCL: Setting parameter alchLambda to 0.8000000000000002
Info: NONBONDED TABLE R-SQUARED SPACING: 0.0625
Info: NONBONDED TABLE SIZE: 705 POINTS
TCL: Setting parameter alchLambda2 to 0.8500000000000002
Info: NONBONDED TABLE R-SQUARED SPACING: 0.0625
Info: NONBONDED TABLE SIZE: 705 POINTS
TCL: Running for 1500000 steps
ETITLE: TS BOND ANGLE DIHED IMPRP ELECT VDW BOUNDARY MISC KINETIC TOTAL TEMP POTENTIAL TOTALAVG TEMPAVG PRESSURE GPRESSURE VOLUME PRESSAVG GPRESSAVG
ENERGY: 0 3.0094 4.1510 0.0000 0.0000 -10694.6625 1466.9281 0.0000 0.0000 1767.1260 -7453.4479 303.2424 -9220.5739 -7453.4479 303.2424 304.2995 384.7753 30229.5590 304.2995 384.7753
ENERGY: 300000 1.9671 1.7740 0.0000 0.0000 -10653.8922 1433.9734 0.0000 0.0000 1738.2810 -7477.8968 298.2925 -9216.1778 -7436.5324 300.0176 34.0069 91.8873 29962.2397 175.2883 223.7517
ENERGY: 600000 1.3179 5.2095 0.0000 0.0000 -10567.8563 1366.0400 0.0000 0.0000 1710.6755 -7484.6133 293.5554 -9195.2889 -7448.0696 299.2890 -414.2449 -331.0953 30123.0708 107.6681 170.4749
ENERGY: 900000 1.9941 2.6589 0.0000 0.0000 -10678.3586 1488.7141 0.0000 0.0000 1724.6914 -7460.3001 295.9605 -9184.9915 -7450.5532 299.5824 479.8644 571.2823 30088.6656 233.1503 298.4972
ENERGY: 1200000 0.8469 1.7668 0.0000 0.0000 -10649.1667 1397.1292 0.0000 0.0000 1745.9083 -7503.5154 299.6014 -9249.4238 -7458.5214 299.9511 -208.1149 -123.8834 29830.6117 71.8709 133.8676
ENERGY: 1500000 0.5594 2.0326 0.0000 0.0000 -10790.0926 1463.7684 0.0000 0.0000 1778.5378 -7545.1944 305.2007 -9323.7323 -7475.9587 300.0430 -76.8557 -24.8368 30132.9724 72.0712 133.9281
TCL: Running FEP window  18: Lambda1 0.8500000000000002 Lambda2 0.9000000000000002 [dLambda 0.050000000000000044]
TCL: Setting parameter firsttimestep to 0
TCL: Setting parameter alchLambda to 0.8500000000000002
Info: NONBONDED TABLE R-SQUARED SPACING: 0.0625
Info: NONBONDED TABLE SIZE: 705 POINTS
TCL: Setting parameter alchLambda2 to 0.9000000000000002
Info: NONBONDED TABLE R-SQUARED SPACING: 0.0625
Info: NONBONDED TABLE SIZE: 705 POINTS
TCL: Running for 1500000 steps
ETITLE: TS BOND ANGLE DIHED IMPRP ELECT VDW BOUNDARY MISC KINETIC TOTAL TEMP POTENTIAL TOTALAVG TEMPAVG PRESSURE GPRESSURE VOLUME PRESSAVG GPRESSAVG
ENERGY: 0 0.5594 2.0326 0.0000 0.0000 -10790.1597 1463.2736 0.0000 0.0000 1777.6714 -7546.6228 305.0520 -9324.2941 -7546.6228 305.0520 -97.0297 -19.6374 30132.9724 -97.0297 -19.6374
ENERGY: 300000 2.5342 0.9139 0.0000 0.0000 -10819.3229 1524.2054 0.0000 0.0000 1781.8996 -7509.7697 305.7776 -9291.6693 -7475.7655 303.6703 534.0029 641.9400 30030.8941 17.2006 79.1594
ENERGY: 600000 3.7669 1.0622 0.0000 0.0000 -10619.0266 1439.2616 0.0000 0.0000 1776.9099 -7398.0260 304.9213 -9174.9359 -7446.6629 303.7031 132.6020 188.1926 30302.9487 -115.3124 -43.0022
ENERGY: 900000 2.8742 1.2510 0.0000 0.0000 -10637.0580 1434.9086 0.0000 0.0000 1763.3499 -7434.6742 302.5944 -9198.0241 -7429.3919 305.2365 156.1385 171.1800 30257.9601 -14.0373 55.5793
ENERGY: 1200000 2.2208 1.5254 0.0000 0.0000 -10783.1451 1552.3307 0.0000 0.0000 1698.9319 -7528.1363 291.5401 -9227.0682 -7437.6857 302.7255 738.3823 832.7443 29991.1244 -10.7197 56.0609
ENERGY: 1500000 2.1297 4.1145 0.0000 0.0000 -10562.0447 1331.7754 0.0000 0.0000 1799.9628 -7424.0623 308.8772 -9224.0251 -7438.3630 303.0296 -572.9358 -524.6030 29830.9263 -139.6438 -76.2316
TCL: Running FEP window  19: Lambda1 0.9000000000000002 Lambda2 0.9500000000000003 [dLambda 0.050000000000000044]
TCL: Setting parameter firsttimestep to 0
TCL: Setting parameter alchLambda to 0.9000000000000002
Info: NONBONDED TABLE R-SQUARED SPACING: 0.0625
Info: NONBONDED TABLE SIZE: 705 POINTS
TCL: Setting parameter alchLambda2 to 0.9500000000000003
Info: NONBONDED TABLE R-SQUARED SPACING: 0.0625
Info: NONBONDED TABLE SIZE: 705 POINTS
TCL: Running for 1500000 steps
ETITLE: TS BOND ANGLE DIHED IMPRP ELECT VDW BOUNDARY MISC KINETIC TOTAL TEMP POTENTIAL TOTALAVG TEMPAVG PRESSURE GPRESSURE VOLUME PRESSAVG GPRESSAVG
ENERGY: 0 2.1297 4.1145 0.0000 0.0000 -10562.1045 1332.1231 0.0000 0.0000 1799.1003 -7424.6368 308.7292 -9223.7371 -7424.6368 308.7292 -581.4681 -511.3983 29830.9263 -581.4681 -511.3983
ENERGY: 300000 0.4719 1.1138 0.0000 0.0000 -10727.7596 1505.7228 0.0000 0.0000 1749.5358 -7470.9153 300.2239 -9220.4511 -7445.2859 305.6196 595.4971 559.7638 30194.1730 -83.7434 -59.2387
ENERGY: 600000 0.6657 1.5296 0.0000 0.0000 -10777.1499 1505.2666 0.0000 0.0000 1770.8186 -7498.8694 303.8760 -9269.6881 -7472.7034 303.6258 514.5785 607.7520 29926.7147 97.5522 147.8361
ENERGY: 900000 3.5561 0.5536 0.0000 0.0000 -10628.4984 1430.7242 0.0000 0.0000 1761.4647 -7432.1998 302.2709 -9193.6645 -7449.4136 304.1858 -233.2197 -187.4810 30710.9525 -31.9026 14.4214
ENERGY: 1200000 0.7755 6.3097 0.0000 0.0000 -10541.7221 1347.7670 0.0000 0.0000 1701.2761 -7485.5937 291.9424 -9186.8698 -7444.4317 302.9247 -706.4689 -644.7097 30442.5203 -88.8856 -40.9956
ENERGY: 1500000 1.5311 0.8629 0.0000 0.0000 -10533.3579 1365.6706 0.0000 0.0000 1714.8244 -7450.4689 294.2673 -9165.2932 -7449.8495 301.7531 -357.4275 -312.7438 30338.7982 -83.3559 -32.9152
TCL: Running FEP window  20: Lambda1 0.9500000000000003 Lambda2 1.0    [dLambda 0.04999999999999971]
TCL: Setting parameter firsttimestep to 0
TCL: Setting parameter alchLambda to 0.9500000000000003
Info: NONBONDED TABLE R-SQUARED SPACING: 0.0625
Info: NONBONDED TABLE SIZE: 705 POINTS
TCL: Setting parameter alchLambda2 to 1.0
Info: NONBONDED TABLE R-SQUARED SPACING: 0.0625
Info: NONBONDED TABLE SIZE: 705 POINTS
TCL: Running for 1500000 steps
ETITLE: TS BOND ANGLE DIHED IMPRP ELECT VDW BOUNDARY MISC KINETIC TOTAL TEMP POTENTIAL TOTALAVG TEMPAVG PRESSURE GPRESSURE VOLUME PRESSAVG GPRESSAVG
ENERGY: 0 1.5311 0.8629 0.0000 0.0000 -10533.4961 1365.1057 0.0000 0.0000 1713.9819 -7452.0146 294.1227 -9165.9965 -7452.0146 294.1227 -395.6157 -309.7218 30338.7982 -395.6157 -309.7218
ENERGY: 300000 1.3495 2.5890 0.0000 0.0000 -10663.2302 1468.1253 0.0000 0.0000 1768.1751 -7422.9914 303.4224 -9191.1665 -7451.1704 296.4983 383.3967 454.4518 30183.9367 -128.2461 -58.7467
ENERGY: 600000 3.2226 3.3302 0.0000 0.0000 -10546.5513 1392.5594 0.0000 0.0000 1727.4375 -7420.0016 296.4317 -9147.4391 -7458.4482 295.8472 -359.7240 -318.2663 30638.8176 -161.7413 -90.9433
ENERGY: 900000 0.7774 2.1021 0.0000 0.0000 -10634.6443 1414.8832 0.0000 0.0000 1731.2410 -7485.6407 297.0844 -9216.8817 -7461.8329 296.5731 -114.9085 -46.7875 30159.9278 -139.8251 -77.6452
ENERGY: 1200000 0.5774 2.6198 0.0000 0.0000 -10497.3562 1363.9676 0.0000 0.0000 1770.4134 -7359.7780 303.8065 -9130.1914 -7453.9897 297.4424 -192.4946 -213.9562 30413.4178 -215.8767 -159.3398
ENERGY: 1500000 2.1686 2.6465 0.0000 0.0000 -10762.1545 1435.6095 0.0000 0.0000 1704.8566 -7616.8733 292.5568 -9321.7299 -7463.0244 298.0812 -141.7629 -154.4500 29837.3022 -182.1253 -129.6624
TCL: Exiting due to exit command.
