Info: SIMULATION PARAMETERS:
Info: TIMESTEP               2
Info: NUMBER OF STEPS        0
Info: STEPS PER CYCLE        10
Info: PERIODIC CELL BASIS 1  35.436 0 0
Info: PERIODIC CELL BASIS 2  0 34.1 0
Info: PERIODIC CELL BASIS 3  0 0 36.697
Info: PERIODIC CELL CENTER   0 0 0
Info: WRAPPING WATERS AROUND PERIODIC BOUNDARIES ON OUTPUT.
Info: WRAPPING ALL CLUSTERS AROUND PERIODIC BOUNDARIES ON OUTPUT.
Info: FIRST LDB TIMESTEP     50
Info: LAST LDB TIMESTEP     -1
Info: HOM BACKGROUND SCALING 1
Info: PME BACKGROUND SCALING 1
Info: MIN ATOMS PER PATCH    40
Info: EMPTY PATCH LOAD       40 ATOMS
Info: INITIAL TEMPERATURE    300
Info: CENTER OF MASS MOVING INITIALLY? NO
Info: DIELECTRIC             1
Info: EXCLUDE                SCALED ONE-FOUR
Info: 1-4 ELECTROSTATICS SCALED BY 0.833333
Info: MODIFIED 1-4 VDW PARAMETERS WILL BE USED
Info: DCD FILENAME           mobley_6743808_equil.dcd
Info: DCD FREQUENCY          100000
Info: DCD FIRST STEP         100000
Info: DCD FILE WILL CONTAIN UNIT CELL DATA
Info: XST FILENAME           mobley_6743808_equil.xst
Info: XST FREQUENCY          100000
Info: NO VELOCITY DCD OUTPUT
Info: NO FORCE DCD OUTPUT
Info: OUTPUT FILENAME        mobley_6743808_equil
Info: BINARY OUTPUT FILES WILL BE USED
Info: RESTART FILENAME       mobley_6743808_equil.restart
Info: RESTART FREQUENCY      100000
Info: BINARY RESTART FILES WILL BE USED
Info: CUTOFF                 9
Info: PAIRLIST DISTANCE      11
Info: PAIRLIST SHRINK RATE   0.01
Info: PAIRLIST GROW RATE     0.01
Info: PAIRLIST TRIGGER       0.3
Info: PAIRLISTS PER CYCLE    2
Info: PAIRLISTS ENABLED
Info: MARGIN                 8
Info: HYDROGEN GROUP CUTOFF  2.5
Info: PATCH DIMENSION        21.5
Info: ENERGY OUTPUT STEPS    100000
Info: ENERGY EVALUATION STEPS    100000
Info: OUTPUT ENERGY PRECISION 4
Info: CROSSTERM ENERGY INCLUDED IN DIHEDRAL
Info: TIMING OUTPUT STEPS    1000000
Info: PRESSURE OUTPUT STEPS  100000
Info: LANGEVIN DYNAMICS ACTIVE
Info: LANGEVIN TEMPERATURE   30
Info: LANGEVIN USING BBK INTEGRATOR
Info: LANGEVIN DAMPING COEFFICIENT IS 1 INVERSE PS
Info: LANGEVIN DYNAMICS APPLIED TO HYDROGENS
Info: LANGEVIN PISTON PRESSURE CONTROL ACTIVE
Info:        TARGET PRESSURE IS 1.01325 BAR
Info:     OSCILLATION PERIOD IS 50 FS
Info:             DECAY TIME IS 25 FS
Info:     PISTON TEMPERATURE IS 300 K
Info:       PRESSURE CONTROL IS GROUP-BASED
Info:    INITIAL STRAIN RATE IS 0 0 0
Info:       CELL FLUCTUATION IS ISOTROPIC
Info: PARTICLE MESH EWALD (PME) ACTIVE
Info: PME TOLERANCE               1e-06
Info: PME EWALD COEFFICIENT       0.348832
Info: PME INTERPOLATION ORDER     4
Info: PME GRID DIMENSIONS         36 36 40
Info: PME MAXIMUM GRID SPACING    1
Info: FULL ELECTROSTATIC EVALUATION FREQUENCY      2
Info: USING VERLET I (r-RESPA) MTS SCHEME.
Info: C1 SPLITTING OF LONG RANGE ELECTROSTATICS
Info: PLACING ATOMS IN PATCHES BY HYDROGEN GROUPS
Info: RIGID BONDS TO HYDROGEN : ALL
Info:         ERROR TOLERANCE : 1e-08
Info:          MAX ITERATIONS : 100
Info: RIGID WATER USING SETTLE ALGORITHM
Info: RANDOM NUMBER SEED     1743217193
Info: USE HYDROGEN BONDS?    NO
Info: Using AMBER format force field!
Info: AMBER PARM FILE        mobley_6743808.prmtop
Info: COORDINATE PDB         mobley_6743808.pdb
Info: Exclusions will be read from PARM file!
Info: SCNB (VDW SCALING)     2
Info: USING ARITHMETIC MEAN TO COMBINE L-J SIGMA PARAMETERS
Info: BINARY COORDINATES     mobley_6743808_min.coor
Info: SUMMARY OF PARAMETERS:
Info: 8 BONDS
Info: 7 ANGLES
Info:   7 HARMONIC
Info:   0 COSINE-BASED
Info: 4 DIHEDRAL
Info: 0 IMPROPER
Info: 0 CROSSTERM
Info: 0 VDW
Info: 28 VDW_PAIRS
Info: 0 NBTHOLE_PAIRS
Info: STRUCTURE SUMMARY:
Info: 2965 ATOMS
Info: 2965 BONDS
Info: 31 ANGLES
Info: 44 DIHEDRALS
Info: 0 IMPROPERS
Info: 0 CROSSTERMS
Info: 3031 EXCLUSIONS
Info: 2956 RIGID BONDS
Info: 5939 DEGREES OF FREEDOM
Info: 991 HYDROGEN GROUPS
Info: 4 ATOMS IN LARGEST HYDROGEN GROUP
Info: 991 MIGRATION GROUPS
Info: 4 ATOMS IN LARGEST MIGRATION GROUP
Info: TOTAL MASS = 17813.9 amu
Info: TOTAL CHARGE = -1.11759e-08 e
Info: MASS DENSITY = 0.667095 g/cm^3
Info: ATOM DENSITY = 0.0668644 atoms/A^3
Info: ADDED 0 IMPLICIT EXCLUSIONS
Info: NONBONDED TABLE R-SQUARED SPACING: 0.0625
Info: NONBONDED TABLE SIZE: 705 POINTS
Info: REMOVING COM VELOCITY 0.0886158 -0.0649296 -0.144022
TCL: Running for 100000 steps
ETITLE: TS BOND ANGLE DIHED IMPRP ELECT VDW BOUNDARY MISC KINETIC TOTAL TEMP POTENTIAL TOTAL3 TEMPAVG PRESSURE GPRESSURE VOLUME PRESSAVG GPRESSAVG
ENERGY: 0 0.2526 0.1937 0.1161 0.0000 -13690.9307 2404.9671 0.0000 0.0000 1761.4742 -9523.9271 298.5062 -11285.4012 -9523.5626 298.5062 511.2025 548.9888 44343.4658 511.2025 548.9888
ENERGY: 100000 0.2888 0.7017 0.7433 0.0000 -14217.5480 2387.3174 0.0000 0.0000 177.5436 -11650.9531 30.0872 -11828.4968 -11650.6963 30.8955 -661.1711 -603.5903 28646.7173 3.5832 3.5969
TCL: Running 100000 steps at 60 kelvin.
TCL: Setting parameter langevinTemp to 60
TCL: Running for 100000 steps
ETITLE: TS BOND ANGLE DIHED IMPRP ELECT VDW BOUNDARY MISC KINETIC TOTAL TEMP POTENTIAL TOTAL3 TEMPAVG PRESSURE GPRESSURE VOLUME PRESSAVG GPRESSAVG
ENERGY: 100000 0.2888 0.7017 0.7433 0.0000 -14217.5480 2387.3174 0.0000 0.0000 177.4547 -11651.0420 30.0722 -11828.4968 -11650.6572 30.0722 -666.2957 -603.6433 28646.7173 -666.2957 -603.6433
ENERGY: 200000 0.7936 1.4037 1.3164 0.0000 -14338.5638 2591.8022 0.0000 0.0000 355.9879 -11387.2600 60.3271 -11743.2479 -11386.4674 60.1368 1288.5731 1385.1020 28452.1208 5.3133 5.2846
TCL: Running 100000 steps at 90 kelvin.
TCL: Setting parameter langevinTemp to 90
TCL: Running for 100000 steps
ETITLE: TS BOND ANGLE DIHED IMPRP ELECT VDW BOUNDARY MISC KINETIC TOTAL TEMP POTENTIAL TOTAL3 TEMPAVG PRESSURE GPRESSURE VOLUME PRESSAVG GPRESSAVG
ENERGY: 200000 0.7936 1.4037 1.3164 0.0000 -14338.5638 2591.8022 0.0000 0.0000 355.8126 -11387.4353 60.2974 -11743.2479 -11386.8775 60.2974 1315.1667 1385.1513 28452.1208 1315.1667 1385.1513
ENERGY: 300000 1.6215 2.9328 0.6465 0.0000 -14050.0162 2412.6084 0.0000 0.0000 531.2065 -11101.0005 90.0203 -11632.2070 -11099.5732 89.9087 283.1285 353.9144 28584.2310 3.0479 3.0388
TCL: Running 100000 steps at 120 kelvin.
TCL: Setting parameter langevinTemp to 120
TCL: Running for 100000 steps
ETITLE: TS BOND ANGLE DIHED IMPRP ELECT VDW BOUNDARY MISC KINETIC TOTAL TEMP POTENTIAL TOTAL3 TEMPAVG PRESSURE GPRESSURE VOLUME PRESSAVG GPRESSAVG
ENERGY: 300000 1.6215 2.9328 0.6465 0.0000 -14050.0162 2412.6084 0.0000 0.0000 530.9516 -11101.2555 89.9771 -11632.2070 -11100.1094 89.9771 281.2936 352.9200 28584.2310 281.2936 352.9200
ENERGY: 400000 1.1512 1.4787 2.0409 0.0000 -13865.7282 2370.5760 0.0000 0.0000 704.8650 -10785.6164 119.4491 -11490.4814 -10784.1230 120.1199 349.0438 394.5299 28823.0735 4.7774 4.9416
TCL: Running 100000 steps at 150 kelvin.
TCL: Setting parameter langevinTemp to 150
TCL: Running for 100000 steps
ETITLE: TS BOND ANGLE DIHED IMPRP ELECT VDW BOUNDARY MISC KINETIC TOTAL TEMP POTENTIAL TOTAL3 TEMPAVG PRESSURE GPRESSURE VOLUME PRESSAVG GPRESSAVG
ENERGY: 400000 1.1512 1.4787 2.0409 0.0000 -13865.7282 2370.5760 0.0000 0.0000 704.5003 -10785.9811 119.3873 -11490.4814 -10784.4918 119.3873 343.5667 394.9450 28823.0735 343.5667 394.9450
ENERGY: 500000 1.6940 3.3734 1.5096 0.0000 -13466.4062 2156.8103 0.0000 0.0000 912.9756 -10390.0433 154.7164 -11303.0189 -10387.0263 149.7961 -687.5503 -637.4585 29216.1955 5.3778 5.2075
TCL: Running 100000 steps at 180 kelvin.
TCL: Setting parameter langevinTemp to 180
TCL: Running for 100000 steps
ETITLE: TS BOND ANGLE DIHED IMPRP ELECT VDW BOUNDARY MISC KINETIC TOTAL TEMP POTENTIAL TOTAL3 TEMPAVG PRESSURE GPRESSURE VOLUME PRESSAVG GPRESSAVG
ENERGY: 500000 1.6940 3.3734 1.5096 0.0000 -13466.4062 2156.8103 0.0000 0.0000 912.5192 -10390.4998 154.6390 -11303.0189 -10388.7032 154.6390 -674.5553 -637.4897 29216.1955 -674.5553 -637.4897
ENERGY: 600000 1.0610 5.1652 2.2384 0.0000 -13071.5700 2032.3029 0.0000 0.0000 1040.3190 -9990.4835 176.2965 -11030.8025 -9988.8583 180.0760 -961.2869 -872.8391 29533.1781 3.3765 3.4243
TCL: Running 100000 steps at 210 kelvin.
TCL: Setting parameter langevinTemp to 210
TCL: Running for 100000 steps
ETITLE: TS BOND ANGLE DIHED IMPRP ELECT VDW BOUNDARY MISC KINETIC TOTAL TEMP POTENTIAL TOTAL3 TEMPAVG PRESSURE GPRESSURE VOLUME PRESSAVG GPRESSAVG
ENERGY: 600000 1.0610 5.1652 2.2384 0.0000 -13071.5700 2032.3029 0.0000 0.0000 1039.8028 -9990.9997 176.2090 -11030.8025 -9989.0599 176.2090 -938.8553 -871.9691 29533.1781 -938.8553 -871.9691
ENERGY: 700000 4.3244 3.1205 1.3917 0.0000 -12682.3894 2054.4187 0.0000 0.0000 1208.2298 -9410.9043 204.7513 -10619.1341 -9407.7810 210.0105 1024.2466 1042.3763 28887.1676 1.9872 2.0024
TCL: Running 100000 steps at 240 kelvin.
TCL: Setting parameter langevinTemp to 240
TCL: Running for 100000 steps
ETITLE: TS BOND ANGLE DIHED IMPRP ELECT VDW BOUNDARY MISC KINETIC TOTAL TEMP POTENTIAL TOTAL3 TEMPAVG PRESSURE GPRESSURE VOLUME PRESSAVG GPRESSAVG
ENERGY: 700000 4.3244 3.1205 1.3917 0.0000 -12682.3894 2054.4187 0.0000 0.0000 1207.5840 -9411.5501 204.6418 -10619.1341 -9409.6662 204.6418 975.7747 1042.4705 28887.1676 975.7747 1042.4705
ENERGY: 800000 4.3788 6.1173 1.9215 0.0000 -11777.0610 1676.1328 0.0000 0.0000 1362.7572 -8725.7534 230.9381 -10088.5106 -8720.4083 239.4019 -462.1952 -340.4722 29238.6239 5.0562 5.0056
TCL: Running 100000 steps at 270 kelvin.
TCL: Setting parameter langevinTemp to 270
TCL: Running for 100000 steps
ETITLE: TS BOND ANGLE DIHED IMPRP ELECT VDW BOUNDARY MISC KINETIC TOTAL TEMP POTENTIAL TOTAL3 TEMPAVG PRESSURE GPRESSURE VOLUME PRESSAVG GPRESSAVG
ENERGY: 800000 4.3788 6.1173 1.9215 0.0000 -11777.0610 1676.1328 0.0000 0.0000 1362.0438 -8726.4667 230.8172 -10088.5106 -8724.8000 230.8172 -415.6791 -337.1163 29238.6239 -415.6791 -337.1163
ENERGY: 900000 1.2187 8.3419 0.9736 0.0000 -11159.0578 1469.4016 0.0000 0.0000 1571.5326 -8107.5895 266.3180 -9679.1221 -8104.3038 270.2876 -845.2338 -743.0080 29908.9357 5.5816 5.4056
TCL: Running 1000000 steps at 300 kelvin.
TCL: Setting parameter langevinTemp to 300
TCL: Running for 1000000 steps
ETITLE: TS BOND ANGLE DIHED IMPRP ELECT VDW BOUNDARY MISC KINETIC TOTAL TEMP POTENTIAL TOTAL3 TEMPAVG PRESSURE GPRESSURE VOLUME PRESSAVG GPRESSAVG
ENERGY: 900000 1.2187 8.3419 0.9736 0.0000 -11159.0578 1469.4016 0.0000 0.0000 1570.7715 -8108.3506 266.1890 -9679.1221 -8105.9080 266.1890 -833.4596 -742.4724 29908.9357 -833.4596 -742.4724
ENERGY: 1100000 2.0945 4.3389 6.7656 0.0000 -10721.5353 1383.6464 0.0000 0.0000 1767.5294 -7557.1604 299.5323 -9324.6899 -7554.3539 300.3170 -375.9892 -233.4284 30292.3512 3.1307 3.3545
ENERGY: 1300000 2.1139 2.8471 4.1148 0.0000 -10784.8871 1508.9149 0.0000 0.0000 1756.3143 -7510.5822 297.6318 -9266.8965 -7507.1465 299.4740 574.5354 587.7459 30745.2074 2.8714 2.8222
ENERGY: 1500000 2.5516 4.0649 4.7579 0.0000 -10883.7549 1493.8780 0.0000 0.0000 1804.6462 -7573.8563 305.8223 -9378.5025 -7567.5729 299.6763 556.8526 677.9832 29812.3341 1.7255 1.8340
ENERGY: 1700000 5.0614 6.3732 2.8567 0.0000 -10694.1422 1385.6822 0.0000 0.0000 1715.6099 -7578.5588 290.7339 -9294.1687 -7576.1361 300.5933 -572.6666 -486.2104 30528.5543 3.2143 3.2027
ENERGY: 1900000 1.6189 5.9072 3.3945 0.0000 -10831.1602 1507.8622 0.0000 0.0000 1778.6258 -7533.7516 301.4128 -9312.3774 -7529.9318 300.3612 375.2949 485.6796 30681.3988 2.8113 2.7200
TCL: Exiting due to exit command.
