Info: SIMULATION PARAMETERS:
Info: TIMESTEP               2
Info: NUMBER OF STEPS        0
Info: STEPS PER CYCLE        10
Info: PERIODIC CELL BASIS 1  35.01 0 0
Info: PERIODIC CELL BASIS 2  0 35.411 0
Info: PERIODIC CELL BASIS 3  0 0 35.644
Info: PERIODIC CELL CENTER   0 0 0
Info: WRAPPING WATERS AROUND PERIODIC BOUNDARIES ON OUTPUT.
Info: WRAPPING ALL CLUSTERS AROUND PERIODIC BOUNDARIES ON OUTPUT.
Info: FIRST LDB TIMESTEP     50
Info: LAST LDB TIMESTEP     -1
Info: HOM BACKGROUND SCALING 1
Info: PME BACKGROUND SCALING 1
Info: MIN ATOMS PER PATCH    40
Info: EMPTY PATCH LOAD       40 ATOMS
Info: INITIAL TEMPERATURE    300
Info: CENTER OF MASS MOVING INITIALLY? NO
Info: DIELECTRIC             1
Info: EXCLUDE                SCALED ONE-FOUR
Info: 1-4 ELECTROSTATICS SCALED BY 0.833333
Info: MODIFIED 1-4 VDW PARAMETERS WILL BE USED
Info: DCD FILENAME           mobley_8006582_equil.dcd
Info: DCD FREQUENCY          100000
Info: DCD FIRST STEP         100000
Info: DCD FILE WILL CONTAIN UNIT CELL DATA
Info: XST FILENAME           mobley_8006582_equil.xst
Info: XST FREQUENCY          100000
Info: NO VELOCITY DCD OUTPUT
Info: NO FORCE DCD OUTPUT
Info: OUTPUT FILENAME        mobley_8006582_equil
Info: BINARY OUTPUT FILES WILL BE USED
Info: RESTART FILENAME       mobley_8006582_equil.restart
Info: RESTART FREQUENCY      100000
Info: BINARY RESTART FILES WILL BE USED
Info: CUTOFF                 9
Info: PAIRLIST DISTANCE      11
Info: PAIRLIST SHRINK RATE   0.01
Info: PAIRLIST GROW RATE     0.01
Info: PAIRLIST TRIGGER       0.3
Info: PAIRLISTS PER CYCLE    2
Info: PAIRLISTS ENABLED
Info: MARGIN                 8
Info: HYDROGEN GROUP CUTOFF  2.5
Info: PATCH DIMENSION        21.5
Info: ENERGY OUTPUT STEPS    100000
Info: ENERGY EVALUATION STEPS    100000
Info: OUTPUT ENERGY PRECISION 4
Info: CROSSTERM ENERGY INCLUDED IN DIHEDRAL
Info: TIMING OUTPUT STEPS    1000000
Info: PRESSURE OUTPUT STEPS  100000
Info: LANGEVIN DYNAMICS ACTIVE
Info: LANGEVIN TEMPERATURE   30
Info: LANGEVIN USING BBK INTEGRATOR
Info: LANGEVIN DAMPING COEFFICIENT IS 1 INVERSE PS
Info: LANGEVIN DYNAMICS APPLIED TO HYDROGENS
Info: LANGEVIN PISTON PRESSURE CONTROL ACTIVE
Info:        TARGET PRESSURE IS 1.01325 BAR
Info:     OSCILLATION PERIOD IS 50 FS
Info:             DECAY TIME IS 25 FS
Info:     PISTON TEMPERATURE IS 300 K
Info:       PRESSURE CONTROL IS GROUP-BASED
Info:    INITIAL STRAIN RATE IS 0 0 0
Info:       CELL FLUCTUATION IS ISOTROPIC
Info: PARTICLE MESH EWALD (PME) ACTIVE
Info: PME TOLERANCE               1e-06
Info: PME EWALD COEFFICIENT       0.348832
Info: PME INTERPOLATION ORDER     4
Info: PME GRID DIMENSIONS         36 36 36
Info: PME MAXIMUM GRID SPACING    1
Info: FULL ELECTROSTATIC EVALUATION FREQUENCY      2
Info: USING VERLET I (r-RESPA) MTS SCHEME.
Info: C1 SPLITTING OF LONG RANGE ELECTROSTATICS
Info: PLACING ATOMS IN PATCHES BY HYDROGEN GROUPS
Info: RIGID BONDS TO HYDROGEN : ALL
Info:         ERROR TOLERANCE : 1e-08
Info:          MAX ITERATIONS : 100
Info: RIGID WATER USING SETTLE ALGORITHM
Info: RANDOM NUMBER SEED     1743212301
Info: USE HYDROGEN BONDS?    NO
Info: Using AMBER format force field!
Info: AMBER PARM FILE        mobley_8006582.prmtop
Info: COORDINATE PDB         mobley_8006582.pdb
Info: Exclusions will be read from PARM file!
Info: SCNB (VDW SCALING)     2
Info: USING ARITHMETIC MEAN TO COMBINE L-J SIGMA PARAMETERS
Info: BINARY COORDINATES     mobley_8006582_min.coor
Info: SUMMARY OF PARAMETERS:
Info: 4 BONDS
Info: 3 ANGLES
Info:   3 HARMONIC
Info:   0 COSINE-BASED
Info: 5 DIHEDRAL
Info: 0 IMPROPER
Info: 0 CROSSTERM
Info: 0 VDW
Info: 10 VDW_PAIRS
Info: 0 NBTHOLE_PAIRS
Info: STRUCTURE SUMMARY:
Info: 2964 ATOMS
Info: 2964 BONDS
Info: 30 ANGLES
Info: 55 DIHEDRALS
Info: 0 IMPROPERS
Info: 0 CROSSTERMS
Info: 3034 EXCLUSIONS
Info: 2959 RIGID BONDS
Info: 5933 DEGREES OF FREEDOM
Info: 988 HYDROGEN GROUPS
Info: 3 ATOMS IN LARGEST HYDROGEN GROUP
Info: 988 MIGRATION GROUPS
Info: 3 ATOMS IN LARGEST MIGRATION GROUP
Info: TOTAL MASS = 17779.9 amu
Info: TOTAL CHARGE = -0.000499971 e
Info: MASS DENSITY = 0.668145 g/cm^3
Info: ATOM DENSITY = 0.0670751 atoms/A^3
Info: ADDED 0 IMPLICIT EXCLUSIONS
Info: NONBONDED TABLE R-SQUARED SPACING: 0.0625
Info: NONBONDED TABLE SIZE: 705 POINTS
Info: REMOVING COM VELOCITY -0.0375688 -0.244612 0.125064
TCL: Running for 100000 steps
ETITLE: TS BOND ANGLE DIHED IMPRP ELECT VDW BOUNDARY MISC KINETIC TOTAL TEMP POTENTIAL TOTAL3 TEMPAVG PRESSURE GPRESSURE VOLUME PRESSAVG GPRESSAVG
ENERGY: 0 0.0279 4.0872 9.0810 0.0000 -13678.7132 2415.1197 0.0000 0.0000 1837.9958 -9412.4015 311.7888 -11250.3973 -9411.9821 311.7888 631.5564 669.7377 44189.2608 631.5564 669.7377
ENERGY: 100000 0.2657 4.9078 9.1619 0.0000 -14303.3739 2536.9246 0.0000 0.0000 184.1618 -11567.9522 31.2403 -11752.1140 -11567.4910 30.9655 486.6954 531.9183 29175.6688 4.2055 4.1964
TCL: Running 100000 steps at 60 kelvin.
TCL: Setting parameter langevinTemp to 60
TCL: Running for 100000 steps
ETITLE: TS BOND ANGLE DIHED IMPRP ELECT VDW BOUNDARY MISC KINETIC TOTAL TEMP POTENTIAL TOTAL3 TEMPAVG PRESSURE GPRESSURE VOLUME PRESSAVG GPRESSAVG
ENERGY: 100000 0.2657 4.9078 9.1619 0.0000 -14303.3739 2536.9246 0.0000 0.0000 184.0767 -11568.0374 31.2259 -11752.1140 -11567.6458 31.2259 474.9376 531.9173 29175.6688 474.9376 531.9173
ENERGY: 200000 0.1540 5.1549 9.4553 0.0000 -14073.2998 2376.0673 0.0000 0.0000 369.3016 -11313.1668 62.6466 -11682.4684 -11311.8905 59.8452 -567.0636 -518.4190 29178.4292 4.1521 4.0940
TCL: Running 100000 steps at 90 kelvin.
TCL: Setting parameter langevinTemp to 90
TCL: Running for 100000 steps
ETITLE: TS BOND ANGLE DIHED IMPRP ELECT VDW BOUNDARY MISC KINETIC TOTAL TEMP POTENTIAL TOTAL3 TEMPAVG PRESSURE GPRESSURE VOLUME PRESSAVG GPRESSAVG
ENERGY: 200000 0.1540 5.1549 9.4553 0.0000 -14073.2998 2376.0673 0.0000 0.0000 369.1219 -11313.3464 62.6161 -11682.4684 -11312.5534 62.6161 -569.1926 -518.6174 29178.4292 -569.1926 -518.6174
ENERGY: 300000 0.9535 6.1262 8.9107 0.0000 -13907.5513 2272.0969 0.0000 0.0000 541.4901 -11077.9739 91.8558 -11619.4639 -11076.3986 89.7665 -932.8372 -852.4263 28808.8455 4.6998 4.6549
TCL: Running 100000 steps at 120 kelvin.
TCL: Setting parameter langevinTemp to 120
TCL: Running for 100000 steps
ETITLE: TS BOND ANGLE DIHED IMPRP ELECT VDW BOUNDARY MISC KINETIC TOTAL TEMP POTENTIAL TOTAL3 TEMPAVG PRESSURE GPRESSURE VOLUME PRESSAVG GPRESSAVG
ENERGY: 300000 0.9535 6.1262 8.9107 0.0000 -13907.5513 2272.0969 0.0000 0.0000 541.2130 -11078.2510 91.8088 -11619.4639 -11076.8301 91.8088 -915.1801 -852.3890 28808.8455 -915.1801 -852.3890
ENERGY: 400000 0.5142 6.2538 9.3342 0.0000 -13910.6030 2423.1961 0.0000 0.0000 712.0145 -10759.2902 120.7827 -11471.3047 -10758.1027 119.7772 876.5470 926.4769 28688.0551 4.3221 4.2687
TCL: Running 100000 steps at 150 kelvin.
TCL: Setting parameter langevinTemp to 150
TCL: Running for 100000 steps
ETITLE: TS BOND ANGLE DIHED IMPRP ELECT VDW BOUNDARY MISC KINETIC TOTAL TEMP POTENTIAL TOTAL3 TEMPAVG PRESSURE GPRESSURE VOLUME PRESSAVG GPRESSAVG
ENERGY: 400000 0.5142 6.2538 9.3342 0.0000 -13910.6030 2423.1961 0.0000 0.0000 711.6620 -10759.6427 120.7229 -11471.3047 -10758.0896 120.7229 858.0137 925.2957 28688.0551 858.0137 925.2957
ENERGY: 500000 0.9668 6.3904 10.0192 0.0000 -13347.7652 2033.3155 0.0000 0.0000 891.5686 -10405.5048 151.2414 -11297.0734 -10402.8688 149.9883 -1981.0066 -1904.6093 29153.1626 3.2816 3.3411
TCL: Running 100000 steps at 180 kelvin.
TCL: Setting parameter langevinTemp to 180
TCL: Running for 100000 steps
ETITLE: TS BOND ANGLE DIHED IMPRP ELECT VDW BOUNDARY MISC KINETIC TOTAL TEMP POTENTIAL TOTAL3 TEMPAVG PRESSURE GPRESSURE VOLUME PRESSAVG GPRESSAVG
ENERGY: 500000 0.9668 6.3904 10.0192 0.0000 -13347.7652 2033.3155 0.0000 0.0000 891.1348 -10405.9386 151.1679 -11297.0734 -10403.6173 151.1679 -1955.6236 -1905.3211 29153.1626 -1955.6236 -1905.3211
ENERGY: 600000 1.5987 10.9165 8.4668 0.0000 -13075.6637 2064.9886 0.0000 0.0000 1065.3201 -9924.3730 180.7158 -10989.6931 -9921.9088 179.9010 -428.2127 -379.1133 28893.0081 4.3277 4.3839
TCL: Running 100000 steps at 210 kelvin.
TCL: Setting parameter langevinTemp to 210
TCL: Running for 100000 steps
ETITLE: TS BOND ANGLE DIHED IMPRP ELECT VDW BOUNDARY MISC KINETIC TOTAL TEMP POTENTIAL TOTAL3 TEMPAVG PRESSURE GPRESSURE VOLUME PRESSAVG GPRESSAVG
ENERGY: 600000 1.5987 10.9165 8.4668 0.0000 -13075.6637 2064.9886 0.0000 0.0000 1064.7875 -9924.9056 180.6255 -10989.6931 -9922.2941 180.6255 -454.0332 -380.3547 28893.0081 -454.0332 -380.3547
ENERGY: 700000 0.9169 10.7045 8.6191 0.0000 -12498.3625 1976.8521 0.0000 0.0000 1255.7861 -9245.4837 213.0256 -10501.2698 -9241.7422 209.7111 725.7419 789.4891 28664.7242 3.9115 3.9146
TCL: Running 100000 steps at 240 kelvin.
TCL: Setting parameter langevinTemp to 240
TCL: Running for 100000 steps
ETITLE: TS BOND ANGLE DIHED IMPRP ELECT VDW BOUNDARY MISC KINETIC TOTAL TEMP POTENTIAL TOTAL3 TEMPAVG PRESSURE GPRESSURE VOLUME PRESSAVG GPRESSAVG
ENERGY: 700000 0.9169 10.7045 8.6191 0.0000 -12498.3625 1976.8521 0.0000 0.0000 1255.1482 -9246.1217 212.9173 -10501.2698 -9244.0144 212.9173 702.6987 791.0381 28664.7242 702.6987 791.0381
ENERGY: 800000 0.3258 10.8124 10.2645 0.0000 -11688.7162 1587.2107 0.0000 0.0000 1401.1434 -8678.9593 237.6833 -10080.1028 -8677.3807 240.2937 -1222.0683 -1159.9989 29463.7723 3.5259 3.4801
TCL: Running 100000 steps at 270 kelvin.
TCL: Setting parameter langevinTemp to 270
TCL: Running for 100000 steps
ETITLE: TS BOND ANGLE DIHED IMPRP ELECT VDW BOUNDARY MISC KINETIC TOTAL TEMP POTENTIAL TOTAL3 TEMPAVG PRESSURE GPRESSURE VOLUME PRESSAVG GPRESSAVG
ENERGY: 800000 0.3258 10.8124 10.2645 0.0000 -11688.7162 1587.2107 0.0000 0.0000 1400.4395 -8679.6633 237.5639 -10080.1028 -8677.4090 237.5639 -1254.7851 -1160.8890 29463.7723 -1254.7851 -1160.8890
ENERGY: 900000 0.8458 9.3632 7.7893 0.0000 -11290.3597 1563.2223 0.0000 0.0000 1548.8422 -8160.2968 262.7382 -9709.1390 -8156.6140 269.7375 -184.8860 -171.2961 29678.7049 3.8810 3.9314
TCL: Running 1000000 steps at 300 kelvin.
TCL: Setting parameter langevinTemp to 300
TCL: Running for 1000000 steps
ETITLE: TS BOND ANGLE DIHED IMPRP ELECT VDW BOUNDARY MISC KINETIC TOTAL TEMP POTENTIAL TOTAL3 TEMPAVG PRESSURE GPRESSURE VOLUME PRESSAVG GPRESSAVG
ENERGY: 900000 0.8458 9.3632 7.7893 0.0000 -11290.3597 1563.2223 0.0000 0.0000 1548.0465 -8161.0926 262.6032 -9709.1390 -8158.8163 262.6032 -248.1780 -171.4669 29678.7049 -248.1780 -171.4669
ENERGY: 1100000 0.8889 16.4021 10.9972 0.0000 -10569.9333 1340.4223 0.0000 0.0000 1771.8022 -7429.4205 300.5601 -9201.2227 -7429.1620 300.2458 -643.2241 -554.5594 30622.0894 2.6422 2.4890
ENERGY: 1300000 1.9749 13.9200 7.9739 0.0000 -10850.4332 1512.4478 0.0000 0.0000 1769.3963 -7544.7204 300.1519 -9314.1167 -7542.3207 300.0296 413.9262 500.7948 30705.7615 4.0408 3.9133
ENERGY: 1500000 1.6297 10.5673 9.4103 0.0000 -10778.2687 1479.8481 0.0000 0.0000 1729.7374 -7547.0757 293.4244 -9276.8131 -7542.2417 300.5278 164.1747 256.2217 30780.7399 2.2717 2.2888
ENERGY: 1700000 0.7327 11.9210 8.5664 0.0000 -10768.8700 1475.8944 0.0000 0.0000 1757.4685 -7514.2870 298.1286 -9271.7556 -7511.7455 300.6377 357.8896 428.2438 30514.0692 2.5305 2.3132
ENERGY: 1900000 3.6881 8.9726 11.5329 0.0000 -10629.6909 1354.5204 0.0000 0.0000 1812.8503 -7438.1266 307.5233 -9250.9769 -7436.0441 300.3802 -719.5013 -634.4337 30594.9688 2.4457 2.5226
TCL: Exiting due to exit command.
