Info: SIMULATION PARAMETERS:
Info: TIMESTEP               2
Info: NUMBER OF STEPS        0
Info: STEPS PER CYCLE        10
Info: PERIODIC CELL BASIS 1  36.005 0 0
Info: PERIODIC CELL BASIS 2  0 34.696 0
Info: PERIODIC CELL BASIS 3  0 0 35.723
Info: PERIODIC CELL CENTER   0 0 0
Info: WRAPPING WATERS AROUND PERIODIC BOUNDARIES ON OUTPUT.
Info: WRAPPING ALL CLUSTERS AROUND PERIODIC BOUNDARIES ON OUTPUT.
Info: FIRST LDB TIMESTEP     50
Info: LAST LDB TIMESTEP     -1
Info: HOM BACKGROUND SCALING 1
Info: PME BACKGROUND SCALING 1
Info: MIN ATOMS PER PATCH    40
Info: EMPTY PATCH LOAD       40 ATOMS
Info: INITIAL TEMPERATURE    300
Info: CENTER OF MASS MOVING INITIALLY? NO
Info: DIELECTRIC             1
Info: EXCLUDE                SCALED ONE-FOUR
Info: 1-4 ELECTROSTATICS SCALED BY 0.833333
Info: MODIFIED 1-4 VDW PARAMETERS WILL BE USED
Info: DCD FILENAME           mobley_6714389_equil.dcd
Info: DCD FREQUENCY          100000
Info: DCD FIRST STEP         100000
Info: DCD FILE WILL CONTAIN UNIT CELL DATA
Info: XST FILENAME           mobley_6714389_equil.xst
Info: XST FREQUENCY          100000
Info: NO VELOCITY DCD OUTPUT
Info: NO FORCE DCD OUTPUT
Info: OUTPUT FILENAME        mobley_6714389_equil
Info: BINARY OUTPUT FILES WILL BE USED
Info: RESTART FILENAME       mobley_6714389_equil.restart
Info: RESTART FREQUENCY      100000
Info: BINARY RESTART FILES WILL BE USED
Info: CUTOFF                 9
Info: PAIRLIST DISTANCE      11
Info: PAIRLIST SHRINK RATE   0.01
Info: PAIRLIST GROW RATE     0.01
Info: PAIRLIST TRIGGER       0.3
Info: PAIRLISTS PER CYCLE    2
Info: PAIRLISTS ENABLED
Info: MARGIN                 8
Info: HYDROGEN GROUP CUTOFF  2.5
Info: PATCH DIMENSION        21.5
Info: ENERGY OUTPUT STEPS    100000
Info: ENERGY EVALUATION STEPS    100000
Info: OUTPUT ENERGY PRECISION 4
Info: CROSSTERM ENERGY INCLUDED IN DIHEDRAL
Info: TIMING OUTPUT STEPS    1000000
Info: PRESSURE OUTPUT STEPS  100000
Info: LANGEVIN DYNAMICS ACTIVE
Info: LANGEVIN TEMPERATURE   30
Info: LANGEVIN USING BBK INTEGRATOR
Info: LANGEVIN DAMPING COEFFICIENT IS 1 INVERSE PS
Info: LANGEVIN DYNAMICS APPLIED TO HYDROGENS
Info: LANGEVIN PISTON PRESSURE CONTROL ACTIVE
Info:        TARGET PRESSURE IS 1.01325 BAR
Info:     OSCILLATION PERIOD IS 50 FS
Info:             DECAY TIME IS 25 FS
Info:     PISTON TEMPERATURE IS 300 K
Info:       PRESSURE CONTROL IS GROUP-BASED
Info:    INITIAL STRAIN RATE IS 0 0 0
Info:       CELL FLUCTUATION IS ISOTROPIC
Info: PARTICLE MESH EWALD (PME) ACTIVE
Info: PME TOLERANCE               1e-06
Info: PME EWALD COEFFICIENT       0.348832
Info: PME INTERPOLATION ORDER     4
Info: PME GRID DIMENSIONS         40 36 36
Info: PME MAXIMUM GRID SPACING    1
Info: FULL ELECTROSTATIC EVALUATION FREQUENCY      2
Info: USING VERLET I (r-RESPA) MTS SCHEME.
Info: C1 SPLITTING OF LONG RANGE ELECTROSTATICS
Info: PLACING ATOMS IN PATCHES BY HYDROGEN GROUPS
Info: RIGID BONDS TO HYDROGEN : ALL
Info:         ERROR TOLERANCE : 1e-08
Info:          MAX ITERATIONS : 100
Info: RIGID WATER USING SETTLE ALGORITHM
Info: RANDOM NUMBER SEED     1743157278
Info: USE HYDROGEN BONDS?    NO
Info: Using AMBER format force field!
Info: AMBER PARM FILE        mobley_6714389.prmtop
Info: COORDINATE PDB         mobley_6714389.pdb
Info: Exclusions will be read from PARM file!
Info: SCNB (VDW SCALING)     2
Info: USING ARITHMETIC MEAN TO COMBINE L-J SIGMA PARAMETERS
Info: BINARY COORDINATES     mobley_6714389_min.coor
Info: SUMMARY OF PARAMETERS:
Info: 5 BONDS
Info: 4 ANGLES
Info:   4 HARMONIC
Info:   0 COSINE-BASED
Info: 1 DIHEDRAL
Info: 0 IMPROPER
Info: 0 CROSSTERM
Info: 0 VDW
Info: 21 VDW_PAIRS
Info: 0 NBTHOLE_PAIRS
Info: STRUCTURE SUMMARY:
Info: 2974 ATOMS
Info: 2973 BONDS
Info: 9 ANGLES
Info: 6 DIHEDRALS
Info: 0 IMPROPERS
Info: 0 CROSSTERMS
Info: 2988 EXCLUSIONS
Info: 2972 RIGID BONDS
Info: 5950 DEGREES OF FREEDOM
Info: 991 HYDROGEN GROUPS
Info: 4 ATOMS IN LARGEST HYDROGEN GROUP
Info: 991 MIGRATION GROUPS
Info: 4 ATOMS IN LARGEST MIGRATION GROUP
Info: TOTAL MASS = 17848.9 amu
Info: TOTAL CHARGE = 0.000100093 e
Info: MASS DENSITY = 0.664171 g/cm^3
Info: ATOM DENSITY = 0.0666424 atoms/A^3
Info: ADDED 0 IMPLICIT EXCLUSIONS
Info: NONBONDED TABLE R-SQUARED SPACING: 0.0625
Info: NONBONDED TABLE SIZE: 705 POINTS
Info: REMOVING COM VELOCITY 0.132446 0.0179289 -0.258464
TCL: Running for 100000 steps
ETITLE: TS BOND ANGLE DIHED IMPRP ELECT VDW BOUNDARY MISC KINETIC TOTAL TEMP POTENTIAL TOTAL3 TEMPAVG PRESSURE GPRESSURE VOLUME PRESSAVG GPRESSAVG
ENERGY: 0 0.0030 0.4078 0.0851 0.0000 -13760.9686 2430.1475 0.0000 0.0000 1767.0475 -9563.2777 298.8971 -11330.3252 -9562.9353 298.8971 482.7172 522.1987 44626.2247 482.7172 522.1987
ENERGY: 100000 0.0368 0.5179 0.0665 0.0000 -14350.7940 2466.4207 0.0000 0.0000 175.2829 -11708.4691 29.6492 -11883.7521 -11708.1261 30.9127 -359.4789 -309.1635 28788.2729 4.6615 4.6087
TCL: Running 100000 steps at 60 kelvin.
TCL: Setting parameter langevinTemp to 60
TCL: Running for 100000 steps
ETITLE: TS BOND ANGLE DIHED IMPRP ELECT VDW BOUNDARY MISC KINETIC TOTAL TEMP POTENTIAL TOTAL3 TEMPAVG PRESSURE GPRESSURE VOLUME PRESSAVG GPRESSAVG
ENERGY: 100000 0.0368 0.5179 0.0665 0.0000 -14350.7940 2466.4207 0.0000 0.0000 175.1963 -11708.5558 29.6346 -11883.7521 -11708.1704 29.6346 -361.3387 -309.2368 28788.2729 -361.3387 -309.2368
ENERGY: 200000 0.0067 0.6169 0.1422 0.0000 -14332.2046 2522.2027 0.0000 0.0000 363.3741 -11445.8620 61.4649 -11809.2361 -11445.3196 59.9676 535.5625 579.8791 28603.8590 3.8905 3.8908
TCL: Running 100000 steps at 90 kelvin.
TCL: Setting parameter langevinTemp to 90
TCL: Running for 100000 steps
ETITLE: TS BOND ANGLE DIHED IMPRP ELECT VDW BOUNDARY MISC KINETIC TOTAL TEMP POTENTIAL TOTAL3 TEMPAVG PRESSURE GPRESSURE VOLUME PRESSAVG GPRESSAVG
ENERGY: 200000 0.0067 0.6169 0.1422 0.0000 -14332.2046 2522.2027 0.0000 0.0000 363.1974 -11446.0386 61.4350 -11809.2361 -11445.4227 61.4350 529.5540 579.7111 28603.8590 529.5540 579.7111
ENERGY: 300000 0.1970 0.2606 0.0662 0.0000 -14082.5886 2395.5075 0.0000 0.0000 523.2926 -11163.2647 88.5152 -11686.5574 -11161.6053 89.8698 -25.0805 15.1021 28543.8181 3.4971 3.6141
TCL: Running 100000 steps at 120 kelvin.
TCL: Setting parameter langevinTemp to 120
TCL: Running for 100000 steps
ETITLE: TS BOND ANGLE DIHED IMPRP ELECT VDW BOUNDARY MISC KINETIC TOTAL TEMP POTENTIAL TOTAL3 TEMPAVG PRESSURE GPRESSURE VOLUME PRESSAVG GPRESSAVG
ENERGY: 300000 0.1970 0.2606 0.0662 0.0000 -14082.5886 2395.5075 0.0000 0.0000 523.0230 -11163.5344 88.4696 -11686.5574 -11162.6196 88.4696 -54.9239 16.0404 28543.8181 -54.9239 16.0404
ENERGY: 400000 0.1414 1.5642 0.1315 0.0000 -13734.8637 2201.3203 0.0000 0.0000 703.1247 -10828.5815 118.9339 -11531.7063 -10827.0186 119.9396 -1191.7781 -1086.2432 28859.0324 4.4403 4.3658
TCL: Running 100000 steps at 150 kelvin.
TCL: Setting parameter langevinTemp to 150
TCL: Running for 100000 steps
ETITLE: TS BOND ANGLE DIHED IMPRP ELECT VDW BOUNDARY MISC KINETIC TOTAL TEMP POTENTIAL TOTAL3 TEMPAVG PRESSURE GPRESSURE VOLUME PRESSAVG GPRESSAVG
ENERGY: 400000 0.1414 1.5642 0.1315 0.0000 -13734.8637 2201.3203 0.0000 0.0000 702.7835 -10828.9228 118.8762 -11531.7063 -10827.6854 118.8762 -1135.5656 -1085.6737 28859.0324 -1135.5656 -1085.6737
ENERGY: 500000 0.0912 1.5705 0.0768 0.0000 -13691.6778 2277.3230 0.0000 0.0000 891.3919 -10521.2244 150.7794 -11412.6163 -10519.2284 150.2180 -58.5556 -32.8905 28961.6171 3.5330 3.6747
TCL: Running 100000 steps at 180 kelvin.
TCL: Setting parameter langevinTemp to 180
TCL: Running for 100000 steps
ETITLE: TS BOND ANGLE DIHED IMPRP ELECT VDW BOUNDARY MISC KINETIC TOTAL TEMP POTENTIAL TOTAL3 TEMPAVG PRESSURE GPRESSURE VOLUME PRESSAVG GPRESSAVG
ENERGY: 500000 0.0912 1.5705 0.0768 0.0000 -13691.6778 2277.3230 0.0000 0.0000 890.9257 -10521.6905 150.7006 -11412.6163 -10519.7218 150.7006 -96.2787 -33.4391 28961.6171 -96.2787 -33.4391
ENERGY: 600000 1.8628 1.9719 0.4256 0.0000 -13035.6453 1992.1553 0.0000 0.0000 1048.8181 -9990.4115 177.4082 -11039.2296 -9987.6306 180.2701 -1220.7561 -1132.7455 29255.9432 2.7236 2.7462
TCL: Running 100000 steps at 210 kelvin.
TCL: Setting parameter langevinTemp to 210
TCL: Running for 100000 steps
ETITLE: TS BOND ANGLE DIHED IMPRP ELECT VDW BOUNDARY MISC KINETIC TOTAL TEMP POTENTIAL TOTAL3 TEMPAVG PRESSURE GPRESSURE VOLUME PRESSAVG GPRESSAVG
ENERGY: 600000 1.8628 1.9719 0.4256 0.0000 -13035.6453 1992.1553 0.0000 0.0000 1048.3087 -9990.9210 177.3220 -11039.2296 -9989.3531 177.3220 -1211.7810 -1132.2925 29255.9432 -1211.7810 -1132.2925
ENERGY: 700000 0.0357 2.1923 0.4936 0.0000 -12552.1715 1961.7130 0.0000 0.0000 1229.6390 -9358.0979 207.9941 -10587.7369 -9354.9575 210.4362 471.5276 541.7191 28929.3312 4.2910 4.2986
TCL: Running 100000 steps at 240 kelvin.
TCL: Setting parameter langevinTemp to 240
TCL: Running for 100000 steps
ETITLE: TS BOND ANGLE DIHED IMPRP ELECT VDW BOUNDARY MISC KINETIC TOTAL TEMP POTENTIAL TOTAL3 TEMPAVG PRESSURE GPRESSURE VOLUME PRESSAVG GPRESSAVG
ENERGY: 700000 0.0357 2.1923 0.4936 0.0000 -12552.1715 1961.7130 0.0000 0.0000 1229.0260 -9358.7109 207.8904 -10587.7369 -9357.3323 207.8904 460.8680 543.0093 28929.3312 460.8680 543.0093
ENERGY: 800000 0.0328 4.7034 0.2422 0.0000 -11980.7596 1813.0932 0.0000 0.0000 1386.0472 -8776.6408 234.4506 -10162.6880 -8775.9027 240.0295 631.8903 721.2221 29141.6450 4.5360 4.5132
TCL: Running 100000 steps at 270 kelvin.
TCL: Setting parameter langevinTemp to 270
TCL: Running for 100000 steps
ETITLE: TS BOND ANGLE DIHED IMPRP ELECT VDW BOUNDARY MISC KINETIC TOTAL TEMP POTENTIAL TOTAL3 TEMPAVG PRESSURE GPRESSURE VOLUME PRESSAVG GPRESSAVG
ENERGY: 800000 0.0328 4.7034 0.2422 0.0000 -11980.7596 1813.0932 0.0000 0.0000 1385.3379 -8777.3501 234.3307 -10162.6880 -8776.0451 234.3307 636.4308 720.0845 29141.6450 636.4308 720.0845
ENERGY: 900000 0.0018 2.1111 0.1692 0.0000 -11283.9647 1558.4931 0.0000 0.0000 1562.2050 -8160.9845 264.2478 -9723.1895 -8156.9907 269.5143 -198.8070 -115.8393 29787.9913 3.5531 3.5177
TCL: Running 1000000 steps at 300 kelvin.
TCL: Setting parameter langevinTemp to 300
TCL: Running for 1000000 steps
ETITLE: TS BOND ANGLE DIHED IMPRP ELECT VDW BOUNDARY MISC KINETIC TOTAL TEMP POTENTIAL TOTAL3 TEMPAVG PRESSURE GPRESSURE VOLUME PRESSAVG GPRESSAVG
ENERGY: 900000 0.0018 2.1111 0.1692 0.0000 -11283.9647 1558.4931 0.0000 0.0000 1561.4024 -8161.7871 264.1121 -9723.1895 -8159.2014 264.1121 -195.3549 -114.6247 29787.9913 -195.3549 -114.6247
ENERGY: 1100000 0.4792 3.6636 0.2272 0.0000 -10725.9694 1380.7258 0.0000 0.0000 1786.6808 -7554.1927 302.2180 -9340.8735 -7552.6179 300.3807 -328.8377 -298.9999 30512.1792 4.4391 4.1473
ENERGY: 1300000 0.0135 2.3796 0.1071 0.0000 -10710.1359 1406.4277 0.0000 0.0000 1810.3793 -7490.8288 306.2267 -9301.2080 -7490.1920 299.9289 -25.0646 91.8270 30451.7795 2.9818 3.0415
ENERGY: 1500000 0.3689 5.3003 0.6770 0.0000 -10814.0306 1413.2283 0.0000 0.0000 1771.5219 -7622.9341 299.6539 -9394.4560 -7618.7924 300.0773 -447.8706 -321.5835 30599.9376 2.6650 2.6454
ENERGY: 1700000 0.1532 2.2532 0.6488 0.0000 -10952.0592 1544.5193 0.0000 0.0000 1753.3517 -7651.1330 296.5804 -9404.4847 -7648.8886 300.5188 688.6119 818.2502 30040.7319 2.9613 3.0487
ENERGY: 1900000 0.2225 1.6780 0.2106 0.0000 -10821.5979 1496.7998 0.0000 0.0000 1749.9127 -7572.7742 295.9987 -9322.6869 -7570.1677 299.7723 377.9750 354.3117 30841.0635 3.5071 3.6937
TCL: Exiting due to exit command.
