Info: SIMULATION PARAMETERS:
Info: TIMESTEP               2
Info: NUMBER OF STEPS        0
Info: STEPS PER CYCLE        10
Info: PERIODIC CELL BASIS 1  37.435 0 0
Info: PERIODIC CELL BASIS 2  0 34.26 0
Info: PERIODIC CELL BASIS 3  0 0 34.229
Info: PERIODIC CELL CENTER   0 0 0
Info: WRAPPING WATERS AROUND PERIODIC BOUNDARIES ON OUTPUT.
Info: WRAPPING ALL CLUSTERS AROUND PERIODIC BOUNDARIES ON OUTPUT.
Info: FIRST LDB TIMESTEP     50
Info: LAST LDB TIMESTEP     -1
Info: HOM BACKGROUND SCALING 1
Info: PME BACKGROUND SCALING 1
Info: MIN ATOMS PER PATCH    40
Info: EMPTY PATCH LOAD       40 ATOMS
Info: INITIAL TEMPERATURE    300
Info: CENTER OF MASS MOVING INITIALLY? NO
Info: DIELECTRIC             1
Info: EXCLUDE                SCALED ONE-FOUR
Info: 1-4 ELECTROSTATICS SCALED BY 0.833333
Info: MODIFIED 1-4 VDW PARAMETERS WILL BE USED
Info: DCD FILENAME           mobley_1875719_equil.dcd
Info: DCD FREQUENCY          100000
Info: DCD FIRST STEP         100000
Info: DCD FILE WILL CONTAIN UNIT CELL DATA
Info: XST FILENAME           mobley_1875719_equil.xst
Info: XST FREQUENCY          100000
Info: NO VELOCITY DCD OUTPUT
Info: NO FORCE DCD OUTPUT
Info: OUTPUT FILENAME        mobley_1875719_equil
Info: BINARY OUTPUT FILES WILL BE USED
Info: RESTART FILENAME       mobley_1875719_equil.restart
Info: RESTART FREQUENCY      100000
Info: BINARY RESTART FILES WILL BE USED
Info: CUTOFF                 9
Info: PAIRLIST DISTANCE      11
Info: PAIRLIST SHRINK RATE   0.01
Info: PAIRLIST GROW RATE     0.01
Info: PAIRLIST TRIGGER       0.3
Info: PAIRLISTS PER CYCLE    2
Info: PAIRLISTS ENABLED
Info: MARGIN                 8
Info: HYDROGEN GROUP CUTOFF  2.5
Info: PATCH DIMENSION        21.5
Info: ENERGY OUTPUT STEPS    100000
Info: ENERGY EVALUATION STEPS    100000
Info: OUTPUT ENERGY PRECISION 4
Info: CROSSTERM ENERGY INCLUDED IN DIHEDRAL
Info: TIMING OUTPUT STEPS    1000000
Info: PRESSURE OUTPUT STEPS  100000
Info: LANGEVIN DYNAMICS ACTIVE
Info: LANGEVIN TEMPERATURE   30
Info: LANGEVIN USING BBK INTEGRATOR
Info: LANGEVIN DAMPING COEFFICIENT IS 1 INVERSE PS
Info: LANGEVIN DYNAMICS APPLIED TO HYDROGENS
Info: LANGEVIN PISTON PRESSURE CONTROL ACTIVE
Info:        TARGET PRESSURE IS 1.01325 BAR
Info:     OSCILLATION PERIOD IS 50 FS
Info:             DECAY TIME IS 25 FS
Info:     PISTON TEMPERATURE IS 300 K
Info:       PRESSURE CONTROL IS GROUP-BASED
Info:    INITIAL STRAIN RATE IS 0 0 0
Info:       CELL FLUCTUATION IS ISOTROPIC
Info: PARTICLE MESH EWALD (PME) ACTIVE
Info: PME TOLERANCE               1e-06
Info: PME EWALD COEFFICIENT       0.348832
Info: PME INTERPOLATION ORDER     4
Info: PME GRID DIMENSIONS         40 36 36
Info: PME MAXIMUM GRID SPACING    1
Info: FULL ELECTROSTATIC EVALUATION FREQUENCY      2
Info: USING VERLET I (r-RESPA) MTS SCHEME.
Info: C1 SPLITTING OF LONG RANGE ELECTROSTATICS
Info: PLACING ATOMS IN PATCHES BY HYDROGEN GROUPS
Info: RIGID BONDS TO HYDROGEN : ALL
Info:         ERROR TOLERANCE : 1e-08
Info:          MAX ITERATIONS : 100
Info: RIGID WATER USING SETTLE ALGORITHM
Info: RANDOM NUMBER SEED     1743240815
Info: USE HYDROGEN BONDS?    NO
Info: Using AMBER format force field!
Info: AMBER PARM FILE        mobley_1875719.prmtop
Info: COORDINATE PDB         mobley_1875719.pdb
Info: Exclusions will be read from PARM file!
Info: SCNB (VDW SCALING)     2
Info: USING ARITHMETIC MEAN TO COMBINE L-J SIGMA PARAMETERS
Info: BINARY COORDINATES     mobley_1875719_min.coor
Info: SUMMARY OF PARAMETERS:
Info: 6 BONDS
Info: 6 ANGLES
Info: 7 DIHEDRAL
Info: 0 IMPROPER
Info: 0 CROSSTERM
Info: 0 VDW
Info: 21 VDW_PAIRS
Info: 0 NBTHOLE_PAIRS
Info: STRUCTURE SUMMARY:
Info: 2950 ATOMS
Info: 2949 BONDS
Info: 27 ANGLES
Info: 39 DIHEDRALS
Info: 0 IMPROPERS
Info: 0 CROSSTERMS
Info: 3006 EXCLUSIONS
Info: 2944 RIGID BONDS
Info: 5906 DEGREES OF FREEDOM
Info: 984 HYDROGEN GROUPS
Info: 4 ATOMS IN LARGEST HYDROGEN GROUP
Info: 984 MIGRATION GROUPS
Info: 4 ATOMS IN LARGEST MIGRATION GROUP
Info: TOTAL MASS = 17705.8 amu
Info: TOTAL CHARGE = -1.49012e-08 e
Info: MASS DENSITY = 0.669753 g/cm^3
Info: ATOM DENSITY = 0.067199 atoms/A^3
Info: ADDED 0 IMPLICIT EXCLUSIONS
Info: NONBONDED TABLE R-SQUARED SPACING: 0.0625
Info: NONBONDED TABLE SIZE: 705 POINTS
Info: REMOVING COM VELOCITY 0.0462476 0.15375 -0.0112303
TCL: Running for 100000 steps
ETITLE: TS BOND ANGLE DIHED IMPRP ELECT VDW BOUNDARY MISC KINETIC TOTAL TEMP POTENTIAL TOTAL3 TEMPAVG PRESSURE GPRESSURE VOLUME PRESSAVG GPRESSAVG
ENERGY: 0 0.1182 0.5183 1.6074 0.0000 -13573.2597 2342.8786 0.0000 0.0000 1756.3701 -9471.7671 299.3043 -11228.1372 -9471.4429 299.3043 94.6277 136.6844 43899.4832 94.6277 136.6844
ENERGY: 100000 0.1672 1.3556 2.1059 0.0000 -14271.7550 2565.3246 0.0000 0.0000 170.8184 -11531.9834 29.1093 -11702.8018 -11531.6071 30.8617 708.4637 761.5980 29351.5107 4.2706 4.3489
TCL: Running 100000 steps at 60 kelvin.
TCL: Setting parameter langevinTemp to 60
TCL: Running for 100000 steps
ETITLE: TS BOND ANGLE DIHED IMPRP ELECT VDW BOUNDARY MISC KINETIC TOTAL TEMP POTENTIAL TOTAL3 TEMPAVG PRESSURE GPRESSURE VOLUME PRESSAVG GPRESSAVG
ENERGY: 100000 0.1672 1.3556 2.1059 0.0000 -14271.7550 2565.3246 0.0000 0.0000 170.7308 -11532.0710 29.0944 -11702.8018 -11531.7265 29.0944 708.8691 761.6365 29351.5107 708.8691 761.6365
ENERGY: 200000 0.5086 2.3506 2.0825 0.0000 -14079.3505 2446.0645 0.0000 0.0000 352.6721 -11275.6721 60.0991 -11628.3442 -11274.6507 59.9586 68.7633 168.3969 29235.0725 3.8367 3.8742
TCL: Running 100000 steps at 90 kelvin.
TCL: Setting parameter langevinTemp to 90
TCL: Running for 100000 steps
ETITLE: TS BOND ANGLE DIHED IMPRP ELECT VDW BOUNDARY MISC KINETIC TOTAL TEMP POTENTIAL TOTAL3 TEMPAVG PRESSURE GPRESSURE VOLUME PRESSAVG GPRESSAVG
ENERGY: 200000 0.5086 2.3506 2.0825 0.0000 -14079.3505 2446.0645 0.0000 0.0000 352.4942 -11275.8500 60.0688 -11628.3442 -11275.2061 60.0688 93.3892 168.4986 29235.0725 93.3892 168.4986
ENERGY: 300000 0.1989 2.3815 1.8340 0.0000 -13897.7871 2339.8975 0.0000 0.0000 535.5824 -11017.8930 91.2690 -11553.4753 -11016.2152 90.1049 -308.2812 -270.5462 28816.8651 3.4798 3.6193
TCL: Running 100000 steps at 120 kelvin.
TCL: Setting parameter langevinTemp to 120
TCL: Running for 100000 steps
ETITLE: TS BOND ANGLE DIHED IMPRP ELECT VDW BOUNDARY MISC KINETIC TOTAL TEMP POTENTIAL TOTAL3 TEMPAVG PRESSURE GPRESSURE VOLUME PRESSAVG GPRESSAVG
ENERGY: 300000 0.1989 2.3815 1.8340 0.0000 -13897.7871 2339.8975 0.0000 0.0000 535.3142 -11018.1611 91.2233 -11553.4753 -11017.0425 91.2233 -315.7510 -270.3860 28816.8651 -315.7510 -270.3860
ENERGY: 400000 0.5477 3.0276 1.8556 0.0000 -13894.0734 2437.6280 0.0000 0.0000 693.7769 -10757.2375 118.2270 -11451.0145 -10755.5469 119.8682 1007.2789 1068.7200 28386.3899 3.9069 3.8159
TCL: Running 100000 steps at 150 kelvin.
TCL: Setting parameter langevinTemp to 150
TCL: Running for 100000 steps
ETITLE: TS BOND ANGLE DIHED IMPRP ELECT VDW BOUNDARY MISC KINETIC TOTAL TEMP POTENTIAL TOTAL3 TEMPAVG PRESSURE GPRESSURE VOLUME PRESSAVG GPRESSAVG
ENERGY: 400000 0.5477 3.0276 1.8556 0.0000 -13894.0734 2437.6280 0.0000 0.0000 693.4423 -10757.5722 118.1700 -11451.0145 -10756.1516 118.1700 1016.2187 1068.4195 28386.3899 1016.2187 1068.4195
ENERGY: 500000 0.6452 3.2771 3.7101 0.0000 -13499.4077 2255.8387 0.0000 0.0000 862.8429 -10373.0937 147.0377 -11235.9366 -10370.6850 149.5978 243.3066 318.8839 28554.1448 3.0555 3.0560
TCL: Running 100000 steps at 180 kelvin.
TCL: Setting parameter langevinTemp to 180
TCL: Running for 100000 steps
ETITLE: TS BOND ANGLE DIHED IMPRP ELECT VDW BOUNDARY MISC KINETIC TOTAL TEMP POTENTIAL TOTAL3 TEMPAVG PRESSURE GPRESSURE VOLUME PRESSAVG GPRESSAVG
ENERGY: 500000 0.6452 3.2771 3.7101 0.0000 -13499.4077 2255.8387 0.0000 0.0000 862.4114 -10373.5252 146.9642 -11235.9366 -10371.9541 146.9642 238.4272 318.9153 28554.1448 238.4272 318.9153
ENERGY: 600000 0.6468 4.0194 1.7932 0.0000 -12934.2975 2003.8352 0.0000 0.0000 1073.1206 -9850.8824 182.8713 -10924.0030 -9847.5132 179.6669 -518.0200 -495.0292 28794.6661 3.6377 3.7175
TCL: Running 100000 steps at 210 kelvin.
TCL: Setting parameter langevinTemp to 210
TCL: Running for 100000 steps
ETITLE: TS BOND ANGLE DIHED IMPRP ELECT VDW BOUNDARY MISC KINETIC TOTAL TEMP POTENTIAL TOTAL3 TEMPAVG PRESSURE GPRESSURE VOLUME PRESSAVG GPRESSAVG
ENERGY: 600000 0.6468 4.0194 1.7932 0.0000 -12934.2975 2003.8352 0.0000 0.0000 1072.5838 -9851.4191 182.7798 -10924.0030 -9849.3139 182.7798 -551.8034 -494.6736 28794.6661 -551.8034 -494.6736
ENERGY: 700000 1.1170 3.6268 2.6509 0.0000 -12380.0830 1895.9236 0.0000 0.0000 1247.0349 -9229.7298 212.5081 -10476.7647 -9226.5575 210.0874 -25.7539 78.8033 28789.0084 4.0596 3.9325
TCL: Running 100000 steps at 240 kelvin.
TCL: Setting parameter langevinTemp to 240
TCL: Running for 100000 steps
ETITLE: TS BOND ANGLE DIHED IMPRP ELECT VDW BOUNDARY MISC KINETIC TOTAL TEMP POTENTIAL TOTAL3 TEMPAVG PRESSURE GPRESSURE VOLUME PRESSAVG GPRESSAVG
ENERGY: 700000 1.1170 3.6268 2.6509 0.0000 -12380.0830 1895.9236 0.0000 0.0000 1246.3981 -9230.3666 212.3996 -10476.7647 -9227.5902 212.3996 -10.6265 78.6876 28789.0084 -10.6265 78.6876
ENERGY: 800000 2.4380 4.9131 5.0782 0.0000 -11763.9384 1681.0353 0.0000 0.0000 1440.4877 -8629.9861 245.4746 -10070.4738 -8626.2263 240.0042 -130.4441 -34.7358 28798.3260 3.6463 3.6316
TCL: Running 100000 steps at 270 kelvin.
TCL: Setting parameter langevinTemp to 270
TCL: Running for 100000 steps
ETITLE: TS BOND ANGLE DIHED IMPRP ELECT VDW BOUNDARY MISC KINETIC TOTAL TEMP POTENTIAL TOTAL3 TEMPAVG PRESSURE GPRESSURE VOLUME PRESSAVG GPRESSAVG
ENERGY: 800000 2.4380 4.9131 5.0782 0.0000 -11763.9384 1681.0353 0.0000 0.0000 1439.7911 -8630.6827 245.3559 -10070.4738 -8628.4175 245.3559 -129.3949 -33.4774 28798.3260 -129.3949 -33.4774
ENERGY: 900000 0.4289 5.0691 2.4369 0.0000 -11284.5016 1597.6977 0.0000 0.0000 1587.4958 -8091.3731 270.5263 -9678.8689 -8087.3078 269.7144 129.8040 266.7250 29464.2481 2.3017 2.4559
TCL: Running 1000000 steps at 300 kelvin.
TCL: Setting parameter langevinTemp to 300
TCL: Running for 1000000 steps
ETITLE: TS BOND ANGLE DIHED IMPRP ELECT VDW BOUNDARY MISC KINETIC TOTAL TEMP POTENTIAL TOTAL3 TEMPAVG PRESSURE GPRESSURE VOLUME PRESSAVG GPRESSAVG
ENERGY: 900000 0.4289 5.0691 2.4369 0.0000 -11284.5016 1597.6977 0.0000 0.0000 1586.7227 -8092.1462 270.3946 -9678.8689 -8089.7297 270.3946 186.8241 266.0338 29464.2481 186.8241 266.0338
ENERGY: 1100000 1.2199 6.4444 3.6677 0.0000 -10718.0480 1411.0945 0.0000 0.0000 1776.1241 -7519.4973 302.6706 -9295.6215 -7515.0994 299.7528 -210.5259 -204.4177 30542.7196 3.7696 3.6431
ENERGY: 1300000 0.5331 6.4692 4.4957 0.0000 -10642.0348 1395.3619 0.0000 0.0000 1758.6299 -7476.5450 299.6894 -9235.1749 -7472.9603 300.1930 -150.8758 -155.9503 30405.4088 2.0203 2.1005
ENERGY: 1500000 1.0624 6.8868 2.7693 0.0000 -10701.3151 1488.2367 0.0000 0.0000 1777.3704 -7424.9897 302.8830 -9202.3601 -7421.8010 300.3852 421.5177 470.0584 30716.4794 3.9204 3.8423
ENERGY: 1700000 0.5406 4.6329 3.3347 0.0000 -10642.5256 1379.7660 0.0000 0.0000 1781.1146 -7473.1369 303.5210 -9254.2515 -7467.6834 300.2286 -668.3410 -605.3577 30992.4929 3.1810 3.2348
ENERGY: 1900000 0.8802 8.4515 5.2279 0.0000 -10558.3326 1334.9665 0.0000 0.0000 1763.8812 -7444.9252 300.5843 -9208.8065 -7440.8608 300.6574 -477.7373 -363.8501 30306.1061 1.9844 2.2715
TCL: Exiting due to exit command.
