Info: SIMULATION PARAMETERS:
Info: TIMESTEP               2
Info: NUMBER OF STEPS        0
Info: STEPS PER CYCLE        10
Info: PERIODIC CELL BASIS 1  35.01 0 0
Info: PERIODIC CELL BASIS 2  0 38.307 0
Info: PERIODIC CELL BASIS 3  0 0 33.876
Info: PERIODIC CELL CENTER   0 0 0
Info: WRAPPING WATERS AROUND PERIODIC BOUNDARIES ON OUTPUT.
Info: WRAPPING ALL CLUSTERS AROUND PERIODIC BOUNDARIES ON OUTPUT.
Info: FIRST LDB TIMESTEP     50
Info: LAST LDB TIMESTEP     -1
Info: HOM BACKGROUND SCALING 1
Info: PME BACKGROUND SCALING 1
Info: MIN ATOMS PER PATCH    40
Info: EMPTY PATCH LOAD       40 ATOMS
Info: INITIAL TEMPERATURE    300
Info: CENTER OF MASS MOVING INITIALLY? NO
Info: DIELECTRIC             1
Info: EXCLUDE                SCALED ONE-FOUR
Info: 1-4 ELECTROSTATICS SCALED BY 0.833333
Info: MODIFIED 1-4 VDW PARAMETERS WILL BE USED
Info: DCD FILENAME           mobley_6060301_equil.dcd
Info: DCD FREQUENCY          100000
Info: DCD FIRST STEP         100000
Info: DCD FILE WILL CONTAIN UNIT CELL DATA
Info: XST FILENAME           mobley_6060301_equil.xst
Info: XST FREQUENCY          100000
Info: NO VELOCITY DCD OUTPUT
Info: NO FORCE DCD OUTPUT
Info: OUTPUT FILENAME        mobley_6060301_equil
Info: BINARY OUTPUT FILES WILL BE USED
Info: RESTART FILENAME       mobley_6060301_equil.restart
Info: RESTART FREQUENCY      100000
Info: BINARY RESTART FILES WILL BE USED
Info: CUTOFF                 9
Info: PAIRLIST DISTANCE      11
Info: PAIRLIST SHRINK RATE   0.01
Info: PAIRLIST GROW RATE     0.01
Info: PAIRLIST TRIGGER       0.3
Info: PAIRLISTS PER CYCLE    2
Info: PAIRLISTS ENABLED
Info: MARGIN                 8
Info: HYDROGEN GROUP CUTOFF  2.5
Info: PATCH DIMENSION        21.5
Info: ENERGY OUTPUT STEPS    100000
Info: ENERGY EVALUATION STEPS    100000
Info: OUTPUT ENERGY PRECISION 4
Info: CROSSTERM ENERGY INCLUDED IN DIHEDRAL
Info: TIMING OUTPUT STEPS    1000000
Info: PRESSURE OUTPUT STEPS  100000
Info: LANGEVIN DYNAMICS ACTIVE
Info: LANGEVIN TEMPERATURE   30
Info: LANGEVIN USING BBK INTEGRATOR
Info: LANGEVIN DAMPING COEFFICIENT IS 1 INVERSE PS
Info: LANGEVIN DYNAMICS APPLIED TO HYDROGENS
Info: LANGEVIN PISTON PRESSURE CONTROL ACTIVE
Info:        TARGET PRESSURE IS 1.01325 BAR
Info:     OSCILLATION PERIOD IS 50 FS
Info:             DECAY TIME IS 25 FS
Info:     PISTON TEMPERATURE IS 300 K
Info:       PRESSURE CONTROL IS GROUP-BASED
Info:    INITIAL STRAIN RATE IS 0 0 0
Info:       CELL FLUCTUATION IS ISOTROPIC
Info: PARTICLE MESH EWALD (PME) ACTIVE
Info: PME TOLERANCE               1e-06
Info: PME EWALD COEFFICIENT       0.348832
Info: PME INTERPOLATION ORDER     4
Info: PME GRID DIMENSIONS         36 40 36
Info: PME MAXIMUM GRID SPACING    1
Info: FULL ELECTROSTATIC EVALUATION FREQUENCY      2
Info: USING VERLET I (r-RESPA) MTS SCHEME.
Info: C1 SPLITTING OF LONG RANGE ELECTROSTATICS
Info: PLACING ATOMS IN PATCHES BY HYDROGEN GROUPS
Info: RIGID BONDS TO HYDROGEN : ALL
Info:         ERROR TOLERANCE : 1e-08
Info:          MAX ITERATIONS : 100
Info: RIGID WATER USING SETTLE ALGORITHM
Info: RANDOM NUMBER SEED     1743256267
Info: USE HYDROGEN BONDS?    NO
Info: Using AMBER format force field!
Info: AMBER PARM FILE        mobley_6060301.prmtop
Info: COORDINATE PDB         mobley_6060301.pdb
Info: Exclusions will be read from PARM file!
Info: SCNB (VDW SCALING)     2
Info: USING ARITHMETIC MEAN TO COMBINE L-J SIGMA PARAMETERS
Info: BINARY COORDINATES     mobley_6060301_min.coor
Info: SUMMARY OF PARAMETERS:
Info: 7 BONDS
Info: 9 ANGLES
Info:   9 HARMONIC
Info:   0 COSINE-BASED
Info: 7 DIHEDRAL
Info: 0 IMPROPER
Info: 0 CROSSTERM
Info: 0 VDW
Info: 28 VDW_PAIRS
Info: 0 NBTHOLE_PAIRS
Info: STRUCTURE SUMMARY:
Info: 2974 ATOMS
Info: 2973 BONDS
Info: 39 ANGLES
Info: 57 DIHEDRALS
Info: 0 IMPROPERS
Info: 0 CROSSTERMS
Info: 3063 EXCLUSIONS
Info: 2967 RIGID BONDS
Info: 5955 DEGREES OF FREEDOM
Info: 991 HYDROGEN GROUPS
Info: 4 ATOMS IN LARGEST HYDROGEN GROUP
Info: 991 MIGRATION GROUPS
Info: 4 ATOMS IN LARGEST MIGRATION GROUP
Info: TOTAL MASS = 17828.9 amu
Info: TOTAL CHARGE = -9.9957e-05 e
Info: MASS DENSITY = 0.651662 g/cm^3
Info: ATOM DENSITY = 0.0654604 atoms/A^3
Info: ADDED 0 IMPLICIT EXCLUSIONS
Info: NONBONDED TABLE R-SQUARED SPACING: 0.0625
Info: NONBONDED TABLE SIZE: 705 POINTS
Info: REMOVING COM VELOCITY 0.0867601 0.0784475 -0.108474
TCL: Running for 100000 steps
ETITLE: TS BOND ANGLE DIHED IMPRP ELECT VDW BOUNDARY MISC KINETIC TOTAL TEMP POTENTIAL TOTAL3 TEMPAVG PRESSURE GPRESSURE VOLUME PRESSAVG GPRESSAVG
ENERGY: 0 0.0530 0.2542 1.3199 0.0000 -13756.7368 2467.0884 0.0000 0.0000 1830.8970 -9457.1243 309.4372 -11288.0212 -9456.7504 309.4372 680.1454 713.6973 45432.0545 680.1454 713.6973
ENERGY: 100000 0.1618 1.3812 1.4123 0.0000 -14363.6601 2519.7456 0.0000 0.0000 172.0081 -11668.9510 29.0708 -11840.9591 -11668.5353 31.0229 87.8469 131.5496 29029.4726 5.4687 5.4282
TCL: Running 100000 steps at 60 kelvin.
TCL: Setting parameter langevinTemp to 60
TCL: Running for 100000 steps
ETITLE: TS BOND ANGLE DIHED IMPRP ELECT VDW BOUNDARY MISC KINETIC TOTAL TEMP POTENTIAL TOTAL3 TEMPAVG PRESSURE GPRESSURE VOLUME PRESSAVG GPRESSAVG
ENERGY: 100000 0.1618 1.3812 1.4123 0.0000 -14363.6601 2519.7456 0.0000 0.0000 171.9238 -11669.0353 29.0566 -11840.9591 -11668.6359 29.0566 88.4400 131.4055 29029.4726 88.4400 131.4055
ENERGY: 200000 0.7048 2.3955 1.4581 0.0000 -14118.4543 2377.3606 0.0000 0.0000 358.1526 -11378.3827 60.5308 -11736.5353 -11377.4311 59.9921 -728.0447 -648.3891 29132.3293 3.4876 3.6214
TCL: Running 100000 steps at 90 kelvin.
TCL: Setting parameter langevinTemp to 90
TCL: Running for 100000 steps
ETITLE: TS BOND ANGLE DIHED IMPRP ELECT VDW BOUNDARY MISC KINETIC TOTAL TEMP POTENTIAL TOTAL3 TEMPAVG PRESSURE GPRESSURE VOLUME PRESSAVG GPRESSAVG
ENERGY: 200000 0.7048 2.3955 1.4581 0.0000 -14118.4543 2377.3606 0.0000 0.0000 357.9783 -11378.5570 60.5014 -11736.5353 -11377.6974 60.5014 -699.7916 -648.6580 29132.3293 -699.7916 -648.6580
ENERGY: 300000 0.9266 3.9621 1.5034 0.0000 -13913.8315 2270.3475 0.0000 0.0000 532.5521 -11104.5397 90.0058 -11637.0918 -11103.0098 89.9697 -966.0290 -921.4604 28956.7862 4.6146 4.7165
TCL: Running 100000 steps at 120 kelvin.
TCL: Setting parameter langevinTemp to 120
TCL: Running for 100000 steps
ETITLE: TS BOND ANGLE DIHED IMPRP ELECT VDW BOUNDARY MISC KINETIC TOTAL TEMP POTENTIAL TOTAL3 TEMPAVG PRESSURE GPRESSURE VOLUME PRESSAVG GPRESSAVG
ENERGY: 300000 0.9266 3.9621 1.5034 0.0000 -13913.8315 2270.3475 0.0000 0.0000 532.2919 -11104.7999 89.9619 -11637.0918 -11103.5411 89.9619 -960.7247 -921.6367 28956.7862 -960.7247 -921.6367
ENERGY: 400000 0.3023 4.2920 2.1330 0.0000 -13857.2793 2373.0475 0.0000 0.0000 689.1809 -10788.3236 116.4775 -11477.5046 -10787.0729 120.0025 244.5318 317.0160 29101.0827 3.9763 3.8648
TCL: Running 100000 steps at 150 kelvin.
TCL: Setting parameter langevinTemp to 150
TCL: Running for 100000 steps
ETITLE: TS BOND ANGLE DIHED IMPRP ELECT VDW BOUNDARY MISC KINETIC TOTAL TEMP POTENTIAL TOTAL3 TEMPAVG PRESSURE GPRESSURE VOLUME PRESSAVG GPRESSAVG
ENERGY: 400000 0.3023 4.2920 2.1330 0.0000 -13857.2793 2373.0475 0.0000 0.0000 688.8121 -10788.6925 116.4151 -11477.5046 -10787.5498 116.4151 268.2633 316.6626 29101.0827 268.2633 316.6626
ENERGY: 500000 0.6007 4.5650 1.7121 0.0000 -13705.6400 2349.9936 0.0000 0.0000 908.5334 -10440.2354 153.5499 -11348.7687 -10438.8482 149.9521 615.2776 653.4593 29009.6171 4.4021 4.5188
TCL: Running 100000 steps at 180 kelvin.
TCL: Setting parameter langevinTemp to 180
TCL: Running for 100000 steps
ETITLE: TS BOND ANGLE DIHED IMPRP ELECT VDW BOUNDARY MISC KINETIC TOTAL TEMP POTENTIAL TOTAL3 TEMPAVG PRESSURE GPRESSURE VOLUME PRESSAVG GPRESSAVG
ENERGY: 500000 0.6007 4.5650 1.7121 0.0000 -13705.6400 2349.9936 0.0000 0.0000 908.0680 -10440.7008 153.4712 -11348.7687 -10439.0481 153.4712 606.1365 652.5822 29009.6171 606.1365 652.5822
ENERGY: 600000 0.6184 6.8209 2.4040 0.0000 -13009.8671 2019.5802 0.0000 0.0000 1084.2047 -9896.2390 183.2398 -10980.4436 -9892.7514 179.9692 -728.1967 -662.5412 29260.6298 5.1471 4.9499
TCL: Running 100000 steps at 210 kelvin.
TCL: Setting parameter langevinTemp to 210
TCL: Running for 100000 steps
ETITLE: TS BOND ANGLE DIHED IMPRP ELECT VDW BOUNDARY MISC KINETIC TOTAL TEMP POTENTIAL TOTAL3 TEMPAVG PRESSURE GPRESSURE VOLUME PRESSAVG GPRESSAVG
ENERGY: 600000 0.6184 6.8209 2.4040 0.0000 -13009.8671 2019.5802 0.0000 0.0000 1083.6965 -9896.7472 183.1539 -10980.4436 -9894.1974 183.1539 -731.4648 -663.8101 29260.6298 -731.4648 -663.8101
ENERGY: 700000 0.6554 5.5335 2.3692 0.0000 -12469.6240 1891.8321 0.0000 0.0000 1248.1550 -9321.0787 210.9488 -10569.2337 -9317.4027 210.2392 -67.5121 31.0887 28961.6080 3.6668 3.6732
TCL: Running 100000 steps at 240 kelvin.
TCL: Setting parameter langevinTemp to 240
TCL: Running for 100000 steps
ETITLE: TS BOND ANGLE DIHED IMPRP ELECT VDW BOUNDARY MISC KINETIC TOTAL TEMP POTENTIAL TOTAL3 TEMPAVG PRESSURE GPRESSURE VOLUME PRESSAVG GPRESSAVG
ENERGY: 700000 0.6554 5.5335 2.3692 0.0000 -12469.6240 1891.8321 0.0000 0.0000 1247.5371 -9321.6966 210.8444 -10569.2337 -9319.1674 210.8444 -56.4557 30.5172 28961.6080 -56.4557 30.5172
ENERGY: 800000 0.9029 7.9359 2.1382 0.0000 -11886.9411 1763.9481 0.0000 0.0000 1468.9857 -8643.0304 248.2711 -10112.0160 -8640.7767 239.7301 287.3851 357.0465 29382.8855 2.9930 3.0412
TCL: Running 100000 steps at 270 kelvin.
TCL: Setting parameter langevinTemp to 270
TCL: Running for 100000 steps
ETITLE: TS BOND ANGLE DIHED IMPRP ELECT VDW BOUNDARY MISC KINETIC TOTAL TEMP POTENTIAL TOTAL3 TEMPAVG PRESSURE GPRESSURE VOLUME PRESSAVG GPRESSAVG
ENERGY: 800000 0.9029 7.9359 2.1382 0.0000 -11886.9411 1763.9481 0.0000 0.0000 1468.2640 -8643.7520 248.1491 -10112.0160 -8640.5582 248.1491 285.4057 357.4143 29382.8855 285.4057 357.4143
ENERGY: 900000 1.5825 12.2376 2.8723 0.0000 -11234.6466 1530.9574 0.0000 0.0000 1629.6984 -8057.2985 275.4329 -9686.9969 -8055.8985 270.2550 -510.5928 -422.0948 30040.6485 4.0897 4.0789
TCL: Running 1000000 steps at 300 kelvin.
TCL: Setting parameter langevinTemp to 300
TCL: Running for 1000000 steps
ETITLE: TS BOND ANGLE DIHED IMPRP ELECT VDW BOUNDARY MISC KINETIC TOTAL TEMP POTENTIAL TOTAL3 TEMPAVG PRESSURE GPRESSURE VOLUME PRESSAVG GPRESSAVG
ENERGY: 900000 1.5825 12.2376 2.8723 0.0000 -11234.6466 1530.9574 0.0000 0.0000 1628.9229 -8058.0740 275.3019 -9686.9969 -8056.2378 275.3019 -499.0009 -421.2396 30040.6485 -499.0009 -421.2396
ENERGY: 1100000 0.7698 7.5400 4.9083 0.0000 -10750.2342 1447.7739 0.0000 0.0000 1783.6655 -7505.5767 301.4547 -9289.2422 -7501.1840 299.9465 48.8421 193.1011 30502.9999 2.5060 2.5059
ENERGY: 1300000 1.3567 8.5498 3.0609 0.0000 -10781.3139 1462.7600 0.0000 0.0000 1782.3361 -7523.2504 301.2300 -9305.5865 -7518.8000 299.8572 250.5326 307.3112 30532.6956 5.3010 5.0684
ENERGY: 1500000 3.7557 11.3521 2.9182 0.0000 -10879.3448 1566.3259 0.0000 0.0000 1716.7425 -7578.2504 290.1441 -9294.9930 -7577.7229 301.0823 1048.5579 1078.6001 30201.7975 2.8955 3.1402
ENERGY: 1700000 1.9189 10.1685 2.8853 0.0000 -10710.7129 1410.1917 0.0000 0.0000 1779.1775 -7506.3709 300.6962 -9285.5485 -7501.7708 300.0371 -523.1635 -459.1552 30790.0150 5.2293 5.1719
ENERGY: 1900000 2.6409 11.5553 4.2026 0.0000 -10680.7885 1382.2458 0.0000 0.0000 1774.5051 -7505.6387 299.9065 -9280.1438 -7500.9302 300.6802 -722.1481 -705.3278 31117.4828 2.6079 2.6451
TCL: Exiting due to exit command.
