Info: SIMULATION PARAMETERS:
Info: TIMESTEP               2
Info: NUMBER OF STEPS        0
Info: STEPS PER CYCLE        10
Info: PERIODIC CELL BASIS 1  36.592 0 0
Info: PERIODIC CELL BASIS 2  0 35.779 0
Info: PERIODIC CELL BASIS 3  0 0 33.876
Info: PERIODIC CELL CENTER   0 0 0
Info: WRAPPING WATERS AROUND PERIODIC BOUNDARIES ON OUTPUT.
Info: WRAPPING ALL CLUSTERS AROUND PERIODIC BOUNDARIES ON OUTPUT.
Info: FIRST LDB TIMESTEP     50
Info: LAST LDB TIMESTEP     -1
Info: HOM BACKGROUND SCALING 1
Info: PME BACKGROUND SCALING 1
Info: MIN ATOMS PER PATCH    40
Info: EMPTY PATCH LOAD       40 ATOMS
Info: INITIAL TEMPERATURE    300
Info: CENTER OF MASS MOVING INITIALLY? NO
Info: DIELECTRIC             1
Info: EXCLUDE                SCALED ONE-FOUR
Info: 1-4 ELECTROSTATICS SCALED BY 0.833333
Info: MODIFIED 1-4 VDW PARAMETERS WILL BE USED
Info: DCD FILENAME           mobley_352111_equil.dcd
Info: DCD FREQUENCY          100000
Info: DCD FIRST STEP         100000
Info: DCD FILE WILL CONTAIN UNIT CELL DATA
Info: XST FILENAME           mobley_352111_equil.xst
Info: XST FREQUENCY          100000
Info: NO VELOCITY DCD OUTPUT
Info: NO FORCE DCD OUTPUT
Info: OUTPUT FILENAME        mobley_352111_equil
Info: BINARY OUTPUT FILES WILL BE USED
Info: RESTART FILENAME       mobley_352111_equil.restart
Info: RESTART FREQUENCY      100000
Info: BINARY RESTART FILES WILL BE USED
Info: CUTOFF                 9
Info: PAIRLIST DISTANCE      11
Info: PAIRLIST SHRINK RATE   0.01
Info: PAIRLIST GROW RATE     0.01
Info: PAIRLIST TRIGGER       0.3
Info: PAIRLISTS PER CYCLE    2
Info: PAIRLISTS ENABLED
Info: MARGIN                 8
Info: HYDROGEN GROUP CUTOFF  2.5
Info: PATCH DIMENSION        21.5
Info: ENERGY OUTPUT STEPS    100000
Info: ENERGY EVALUATION STEPS    100000
Info: OUTPUT ENERGY PRECISION 4
Info: CROSSTERM ENERGY INCLUDED IN DIHEDRAL
Info: TIMING OUTPUT STEPS    1000000
Info: PRESSURE OUTPUT STEPS  100000
Info: LANGEVIN DYNAMICS ACTIVE
Info: LANGEVIN TEMPERATURE   30
Info: LANGEVIN USING BBK INTEGRATOR
Info: LANGEVIN DAMPING COEFFICIENT IS 1 INVERSE PS
Info: LANGEVIN DYNAMICS APPLIED TO HYDROGENS
Info: LANGEVIN PISTON PRESSURE CONTROL ACTIVE
Info:        TARGET PRESSURE IS 1.01325 BAR
Info:     OSCILLATION PERIOD IS 50 FS
Info:             DECAY TIME IS 25 FS
Info:     PISTON TEMPERATURE IS 300 K
Info:       PRESSURE CONTROL IS GROUP-BASED
Info:    INITIAL STRAIN RATE IS 0 0 0
Info:       CELL FLUCTUATION IS ISOTROPIC
Info: PARTICLE MESH EWALD (PME) ACTIVE
Info: PME TOLERANCE               1e-06
Info: PME EWALD COEFFICIENT       0.348832
Info: PME INTERPOLATION ORDER     4
Info: PME GRID DIMENSIONS         40 36 36
Info: PME MAXIMUM GRID SPACING    1
Info: FULL ELECTROSTATIC EVALUATION FREQUENCY      2
Info: USING VERLET I (r-RESPA) MTS SCHEME.
Info: C1 SPLITTING OF LONG RANGE ELECTROSTATICS
Info: PLACING ATOMS IN PATCHES BY HYDROGEN GROUPS
Info: RIGID BONDS TO HYDROGEN : ALL
Info:         ERROR TOLERANCE : 1e-08
Info:          MAX ITERATIONS : 100
Info: RIGID WATER USING SETTLE ALGORITHM
Info: RANDOM NUMBER SEED     1743250565
Info: USE HYDROGEN BONDS?    NO
Info: Using AMBER format force field!
Info: AMBER PARM FILE        mobley_352111.prmtop
Info: COORDINATE PDB         mobley_352111.pdb
Info: Exclusions will be read from PARM file!
Info: SCNB (VDW SCALING)     2
Info: USING ARITHMETIC MEAN TO COMBINE L-J SIGMA PARAMETERS
Info: BINARY COORDINATES     mobley_352111_min.coor
Info: SUMMARY OF PARAMETERS:
Info: 9 BONDS
Info: 10 ANGLES
Info:   10 HARMONIC
Info:   0 COSINE-BASED
Info: 17 DIHEDRAL
Info: 0 IMPROPER
Info: 0 CROSSTERM
Info: 0 VDW
Info: 36 VDW_PAIRS
Info: 0 NBTHOLE_PAIRS
Info: STRUCTURE SUMMARY:
Info: 2924 ATOMS
Info: 2923 BONDS
Info: 32 ANGLES
Info: 58 DIHEDRALS
Info: 0 IMPROPERS
Info: 0 CROSSTERMS
Info: 2986 EXCLUSIONS
Info: 2914 RIGID BONDS
Info: 5858 DEGREES OF FREEDOM
Info: 978 HYDROGEN GROUPS
Info: 4 ATOMS IN LARGEST HYDROGEN GROUP
Info: 978 MIGRATION GROUPS
Info: 4 ATOMS IN LARGEST MIGRATION GROUP
Info: TOTAL MASS = 17585.6 amu
Info: TOTAL CHARGE = 0.00029996 e
Info: MASS DENSITY = 0.658432 g/cm^3
Info: ATOM DENSITY = 0.0659282 atoms/A^3
Info: ADDED 0 IMPLICIT EXCLUSIONS
Info: NONBONDED TABLE R-SQUARED SPACING: 0.0625
Info: NONBONDED TABLE SIZE: 705 POINTS
Info: REMOVING COM VELOCITY -0.180709 -0.0630517 0.100726
TCL: Running for 100000 steps
ETITLE: TS BOND ANGLE DIHED IMPRP ELECT VDW BOUNDARY MISC KINETIC TOTAL TEMP POTENTIAL TOTAL3 TEMPAVG PRESSURE GPRESSURE VOLUME PRESSAVG GPRESSAVG
ENERGY: 0 0.1405 0.8071 10.0892 0.0000 -13493.9673 2389.9759 0.0000 0.0000 1736.3177 -9356.6368 298.3117 -11092.9545 -9356.2939 298.3117 572.3415 604.3267 44351.3118 572.3415 604.3267
ENERGY: 100000 0.3265 1.7395 11.1539 0.0000 -14032.8711 2373.4873 0.0000 0.0000 178.5525 -11467.6113 30.6766 -11646.1638 -11467.2663 30.9058 -628.4540 -595.0904 29078.3188 5.0240 4.9856
TCL: Running 100000 steps at 60 kelvin.
TCL: Setting parameter langevinTemp to 60
TCL: Running for 100000 steps
ETITLE: TS BOND ANGLE DIHED IMPRP ELECT VDW BOUNDARY MISC KINETIC TOTAL TEMP POTENTIAL TOTAL3 TEMPAVG PRESSURE GPRESSURE VOLUME PRESSAVG GPRESSAVG
ENERGY: 100000 0.3265 1.7395 11.1539 0.0000 -14032.8711 2373.4873 0.0000 0.0000 178.4661 -11467.6977 30.6617 -11646.1638 -11467.2803 30.6617 -645.6770 -595.1819 29078.3188 -645.6770 -595.1819
ENERGY: 200000 0.2263 2.7653 10.1704 0.0000 -14202.5379 2594.6486 0.0000 0.0000 349.3461 -11245.3811 60.0201 -11594.7272 -11244.1409 59.8638 1585.3236 1671.6516 28618.6798 5.4673 5.4511
TCL: Running 100000 steps at 90 kelvin.
TCL: Setting parameter langevinTemp to 90
TCL: Running for 100000 steps
ETITLE: TS BOND ANGLE DIHED IMPRP ELECT VDW BOUNDARY MISC KINETIC TOTAL TEMP POTENTIAL TOTAL3 TEMPAVG PRESSURE GPRESSURE VOLUME PRESSAVG GPRESSAVG
ENERGY: 200000 0.2263 2.7653 10.1704 0.0000 -14202.5379 2594.6486 0.0000 0.0000 349.1718 -11245.5554 59.9902 -11594.7272 -11244.9454 59.9902 1618.5345 1671.9834 28618.6798 1618.5345 1671.9834
ENERGY: 300000 1.2222 2.1771 11.2322 0.0000 -13918.5168 2427.8712 0.0000 0.0000 521.6541 -10954.3599 89.6239 -11476.0140 -10953.8270 90.0752 440.9527 489.2208 28849.7577 4.7210 4.6667
TCL: Running 100000 steps at 120 kelvin.
TCL: Setting parameter langevinTemp to 120
TCL: Running for 100000 steps
ETITLE: TS BOND ANGLE DIHED IMPRP ELECT VDW BOUNDARY MISC KINETIC TOTAL TEMP POTENTIAL TOTAL3 TEMPAVG PRESSURE GPRESSURE VOLUME PRESSAVG GPRESSAVG
ENERGY: 300000 1.2222 2.1771 11.2322 0.0000 -13918.5168 2427.8712 0.0000 0.0000 521.3875 -10954.6265 89.5781 -11476.0140 -10953.6150 89.5781 432.0354 489.1667 28849.7577 432.0354 489.1667
ENERGY: 400000 0.3482 3.8469 10.6759 0.0000 -13798.7372 2441.1560 0.0000 0.0000 690.0192 -10652.6909 118.5502 -11342.7101 -10651.7417 119.7893 1264.6909 1337.2071 28405.5184 4.6009 4.5305
TCL: Running 100000 steps at 150 kelvin.
TCL: Setting parameter langevinTemp to 150
TCL: Running for 100000 steps
ETITLE: TS BOND ANGLE DIHED IMPRP ELECT VDW BOUNDARY MISC KINETIC TOTAL TEMP POTENTIAL TOTAL3 TEMPAVG PRESSURE GPRESSURE VOLUME PRESSAVG GPRESSAVG
ENERGY: 400000 0.3482 3.8469 10.6759 0.0000 -13798.7372 2441.1560 0.0000 0.0000 689.6729 -10653.0372 118.4907 -11342.7101 -10651.5283 118.4907 1277.3133 1336.1341 28405.5184 1277.3133 1336.1341
ENERGY: 500000 0.4240 5.3676 10.5743 0.0000 -13407.5684 2227.6224 0.0000 0.0000 897.8813 -10265.6988 154.2624 -11163.5802 -10263.9832 150.1426 241.0761 342.5762 28516.4087 4.1920 4.1407
TCL: Running 100000 steps at 180 kelvin.
TCL: Setting parameter langevinTemp to 180
TCL: Running for 100000 steps
ETITLE: TS BOND ANGLE DIHED IMPRP ELECT VDW BOUNDARY MISC KINETIC TOTAL TEMP POTENTIAL TOTAL3 TEMPAVG PRESSURE GPRESSURE VOLUME PRESSAVG GPRESSAVG
ENERGY: 500000 0.4240 5.3676 10.5743 0.0000 -13407.5684 2227.6224 0.0000 0.0000 897.4399 -10266.1403 154.1865 -11163.5802 -10264.6047 154.1865 269.5492 342.6741 28516.4087 269.5492 342.6741
ENERGY: 600000 2.4269 5.0900 11.5049 0.0000 -12916.8370 1965.4357 0.0000 0.0000 1047.7304 -9884.6492 180.0075 -10932.3795 -9882.4183 179.9488 -985.4767 -930.6933 28186.8237 5.0025 4.9344
TCL: Running 100000 steps at 210 kelvin.
TCL: Setting parameter langevinTemp to 210
TCL: Running for 100000 steps
ETITLE: TS BOND ANGLE DIHED IMPRP ELECT VDW BOUNDARY MISC KINETIC TOTAL TEMP POTENTIAL TOTAL3 TEMPAVG PRESSURE GPRESSURE VOLUME PRESSAVG GPRESSAVG
ENERGY: 600000 2.4269 5.0900 11.5049 0.0000 -12916.8370 1965.4357 0.0000 0.0000 1047.1951 -9885.1844 179.9155 -10932.3795 -9882.9804 179.9155 -1006.1635 -931.3948 28186.8237 -1006.1635 -931.3948
ENERGY: 700000 3.7878 11.1268 9.5411 0.0000 -12474.0540 1948.6915 0.0000 0.0000 1199.8603 -9301.0465 206.1445 -10500.9068 -9297.8131 209.8218 644.1871 723.9037 28237.2403 3.7270 3.5696
TCL: Running 100000 steps at 240 kelvin.
TCL: Setting parameter langevinTemp to 240
TCL: Running for 100000 steps
ETITLE: TS BOND ANGLE DIHED IMPRP ELECT VDW BOUNDARY MISC KINETIC TOTAL TEMP POTENTIAL TOTAL3 TEMPAVG PRESSURE GPRESSURE VOLUME PRESSAVG GPRESSAVG
ENERGY: 700000 3.7878 11.1268 9.5411 0.0000 -12474.0540 1948.6915 0.0000 0.0000 1199.2714 -9301.6355 206.0433 -10500.9068 -9299.1974 206.0433 639.3868 724.3667 28237.2403 639.3868 724.3667
ENERGY: 800000 3.5493 9.9033 9.5928 0.0000 -11663.2852 1646.6058 0.0000 0.0000 1440.5247 -8553.1093 247.4923 -9993.6340 -8550.9114 239.9651 -466.4474 -380.9440 28865.5506 3.1162 2.9934
TCL: Running 100000 steps at 270 kelvin.
TCL: Setting parameter langevinTemp to 270
TCL: Running for 100000 steps
ETITLE: TS BOND ANGLE DIHED IMPRP ELECT VDW BOUNDARY MISC KINETIC TOTAL TEMP POTENTIAL TOTAL3 TEMPAVG PRESSURE GPRESSURE VOLUME PRESSAVG GPRESSAVG
ENERGY: 800000 3.5493 9.9033 9.5928 0.0000 -11663.2852 1646.6058 0.0000 0.0000 1439.8322 -8553.8018 247.3733 -9993.6340 -8550.5726 247.3733 -465.5566 -382.7326 28865.5506 -465.5566 -382.7326
ENERGY: 900000 2.3524 7.6047 12.0211 0.0000 -11052.8388 1468.9859 0.0000 0.0000 1589.2293 -7972.6454 273.0408 -9561.8747 -7968.7547 269.5692 -717.0172 -665.0540 29779.8274 3.0617 3.1408
TCL: Running 1000000 steps at 300 kelvin.
TCL: Setting parameter langevinTemp to 300
TCL: Running for 1000000 steps
ETITLE: TS BOND ANGLE DIHED IMPRP ELECT VDW BOUNDARY MISC KINETIC TOTAL TEMP POTENTIAL TOTAL3 TEMPAVG PRESSURE GPRESSURE VOLUME PRESSAVG GPRESSAVG
ENERGY: 900000 2.3524 7.6047 12.0211 0.0000 -11052.8388 1468.9859 0.0000 0.0000 1588.4133 -7973.4613 272.9006 -9561.8747 -7970.3447 272.9006 -749.8765 -666.5716 29779.8274 -749.8765 -666.5716
ENERGY: 1100000 5.0679 4.4525 10.7278 0.0000 -10560.5086 1355.3486 0.0000 0.0000 1763.8526 -7421.0593 303.0423 -9184.9119 -7417.0047 300.5925 -162.1368 -103.2559 29920.7842 5.2907 5.3719
ENERGY: 1300000 1.5816 14.3262 9.3547 0.0000 -10654.2676 1367.3271 0.0000 0.0000 1745.4583 -7516.2197 299.8821 -9261.6780 -7512.2557 300.3378 -480.4071 -394.4560 29934.3434 2.8191 2.8472
ENERGY: 1500000 3.7918 9.1206 12.1409 0.0000 -10716.0456 1494.1465 0.0000 0.0000 1736.4736 -7460.3722 298.3384 -9196.8458 -7458.6591 299.9249 762.4782 841.6552 29694.3465 3.1499 3.2095
ENERGY: 1700000 3.8540 8.6488 9.5698 0.0000 -10506.4837 1389.7979 0.0000 0.0000 1748.1889 -7346.4242 300.3512 -9094.6132 -7341.8649 300.3528 -296.4400 -192.9955 30629.8942 2.9597 2.8914
ENERGY: 1900000 3.4834 7.9749 9.2761 0.0000 -10757.5383 1439.6532 0.0000 0.0000 1729.9890 -7567.1618 297.2243 -9297.1508 -7562.6936 299.9809 -460.3699 -367.1898 30597.5793 0.8278 0.8351
TCL: Exiting due to exit command.
