Info: SIMULATION PARAMETERS:
Info: TIMESTEP               2
Info: NUMBER OF STEPS        0
Info: STEPS PER CYCLE        10
Info: PERIODIC CELL BASIS 1  36.281 0 0
Info: PERIODIC CELL BASIS 2  0 34.26 0
Info: PERIODIC CELL BASIS 3  0 0 36.199
Info: PERIODIC CELL CENTER   0 0 0
Info: WRAPPING WATERS AROUND PERIODIC BOUNDARIES ON OUTPUT.
Info: WRAPPING ALL CLUSTERS AROUND PERIODIC BOUNDARIES ON OUTPUT.
Info: FIRST LDB TIMESTEP     50
Info: LAST LDB TIMESTEP     -1
Info: HOM BACKGROUND SCALING 1
Info: PME BACKGROUND SCALING 1
Info: MIN ATOMS PER PATCH    40
Info: EMPTY PATCH LOAD       40 ATOMS
Info: INITIAL TEMPERATURE    300
Info: CENTER OF MASS MOVING INITIALLY? NO
Info: DIELECTRIC             1
Info: EXCLUDE                SCALED ONE-FOUR
Info: 1-4 ELECTROSTATICS SCALED BY 0.833333
Info: MODIFIED 1-4 VDW PARAMETERS WILL BE USED
Info: DCD FILENAME           mobley_8723116_equil.dcd
Info: DCD FREQUENCY          100000
Info: DCD FIRST STEP         100000
Info: DCD FILE WILL CONTAIN UNIT CELL DATA
Info: XST FILENAME           mobley_8723116_equil.xst
Info: XST FREQUENCY          100000
Info: NO VELOCITY DCD OUTPUT
Info: NO FORCE DCD OUTPUT
Info: OUTPUT FILENAME        mobley_8723116_equil
Info: BINARY OUTPUT FILES WILL BE USED
Info: RESTART FILENAME       mobley_8723116_equil.restart
Info: RESTART FREQUENCY      100000
Info: BINARY RESTART FILES WILL BE USED
Info: CUTOFF                 9
Info: PAIRLIST DISTANCE      11
Info: PAIRLIST SHRINK RATE   0.01
Info: PAIRLIST GROW RATE     0.01
Info: PAIRLIST TRIGGER       0.3
Info: PAIRLISTS PER CYCLE    2
Info: PAIRLISTS ENABLED
Info: MARGIN                 8
Info: HYDROGEN GROUP CUTOFF  2.5
Info: PATCH DIMENSION        21.5
Info: ENERGY OUTPUT STEPS    100000
Info: ENERGY EVALUATION STEPS    100000
Info: OUTPUT ENERGY PRECISION 4
Info: CROSSTERM ENERGY INCLUDED IN DIHEDRAL
Info: TIMING OUTPUT STEPS    1000000
Info: PRESSURE OUTPUT STEPS  100000
Info: LANGEVIN DYNAMICS ACTIVE
Info: LANGEVIN TEMPERATURE   30
Info: LANGEVIN USING BBK INTEGRATOR
Info: LANGEVIN DAMPING COEFFICIENT IS 1 INVERSE PS
Info: LANGEVIN DYNAMICS APPLIED TO HYDROGENS
Info: LANGEVIN PISTON PRESSURE CONTROL ACTIVE
Info:        TARGET PRESSURE IS 1.01325 BAR
Info:     OSCILLATION PERIOD IS 50 FS
Info:             DECAY TIME IS 25 FS
Info:     PISTON TEMPERATURE IS 300 K
Info:       PRESSURE CONTROL IS GROUP-BASED
Info:    INITIAL STRAIN RATE IS 0 0 0
Info:       CELL FLUCTUATION IS ISOTROPIC
Info: PARTICLE MESH EWALD (PME) ACTIVE
Info: PME TOLERANCE               1e-06
Info: PME EWALD COEFFICIENT       0.348832
Info: PME INTERPOLATION ORDER     4
Info: PME GRID DIMENSIONS         40 36 40
Info: PME MAXIMUM GRID SPACING    1
Info: FULL ELECTROSTATIC EVALUATION FREQUENCY      2
Info: USING VERLET I (r-RESPA) MTS SCHEME.
Info: C1 SPLITTING OF LONG RANGE ELECTROSTATICS
Info: PLACING ATOMS IN PATCHES BY HYDROGEN GROUPS
Info: RIGID BONDS TO HYDROGEN : ALL
Info:         ERROR TOLERANCE : 1e-08
Info:          MAX ITERATIONS : 100
Info: RIGID WATER USING SETTLE ALGORITHM
Info: RANDOM NUMBER SEED     1743211006
Info: USE HYDROGEN BONDS?    NO
Info: Using AMBER format force field!
Info: AMBER PARM FILE        mobley_8723116.prmtop
Info: COORDINATE PDB         mobley_8723116.pdb
Info: Exclusions will be read from PARM file!
Info: SCNB (VDW SCALING)     2
Info: USING ARITHMETIC MEAN TO COMBINE L-J SIGMA PARAMETERS
Info: BINARY COORDINATES     mobley_8723116_min.coor
Info: SUMMARY OF PARAMETERS:
Info: 7 BONDS
Info: 6 ANGLES
Info:   6 HARMONIC
Info:   0 COSINE-BASED
Info: 3 DIHEDRAL
Info: 0 IMPROPER
Info: 0 CROSSTERM
Info: 0 VDW
Info: 28 VDW_PAIRS
Info: 0 NBTHOLE_PAIRS
Info: STRUCTURE SUMMARY:
Info: 2987 ATOMS
Info: 2987 BONDS
Info: 21 ANGLES
Info: 35 DIHEDRALS
Info: 0 IMPROPERS
Info: 0 CROSSTERMS
Info: 3033 EXCLUSIONS
Info: 2979 RIGID BONDS
Info: 5982 DEGREES OF FREEDOM
Info: 999 HYDROGEN GROUPS
Info: 3 ATOMS IN LARGEST HYDROGEN GROUP
Info: 999 MIGRATION GROUPS
Info: 3 ATOMS IN LARGEST MIGRATION GROUP
Info: TOTAL MASS = 17981.4 amu
Info: TOTAL CHARGE = -2.6077e-08 e
Info: MASS DENSITY = 0.663621 g/cm^3
Info: ATOM DENSITY = 0.0663853 atoms/A^3
Info: ADDED 0 IMPLICIT EXCLUSIONS
Info: NONBONDED TABLE R-SQUARED SPACING: 0.0625
Info: NONBONDED TABLE SIZE: 705 POINTS
Info: REMOVING COM VELOCITY 0.0855038 0.197738 -0.200694
TCL: Running for 100000 steps
ETITLE: TS BOND ANGLE DIHED IMPRP ELECT VDW BOUNDARY MISC KINETIC TOTAL TEMP POTENTIAL TOTAL3 TEMPAVG PRESSURE GPRESSURE VOLUME PRESSAVG GPRESSAVG
ENERGY: 0 0.1368 0.0807 2.2119 0.0000 -13824.0672 2437.0918 0.0000 0.0000 1767.4032 -9617.1428 297.3580 -11384.5460 -9616.7860 297.3580 400.7115 430.3528 44994.8886 400.7115 430.3528
ENERGY: 100000 0.3671 0.4707 1.9302 0.0000 -14409.2131 2486.2342 0.0000 0.0000 179.3238 -11740.8871 30.1705 -11920.2109 -11740.3823 30.9568 -353.5776 -285.0916 29270.9624 2.5718 2.6701
TCL: Running 100000 steps at 60 kelvin.
TCL: Setting parameter langevinTemp to 60
TCL: Running for 100000 steps
ETITLE: TS BOND ANGLE DIHED IMPRP ELECT VDW BOUNDARY MISC KINETIC TOTAL TEMP POTENTIAL TOTAL3 TEMPAVG PRESSURE GPRESSURE VOLUME PRESSAVG GPRESSAVG
ENERGY: 100000 0.3671 0.4707 1.9302 0.0000 -14409.2131 2486.2342 0.0000 0.0000 179.2337 -11740.9772 30.1553 -11920.2109 -11740.6205 30.1553 -353.4398 -284.9620 29270.9624 -353.4398 -284.9620
ENERGY: 200000 0.9194 1.0489 3.4304 0.0000 -14407.5961 2536.5012 0.0000 0.0000 347.6498 -11518.0462 58.4906 -11865.6961 -11517.4006 59.8254 534.9467 605.6844 29041.4184 2.9031 2.9508
TCL: Running 100000 steps at 90 kelvin.
TCL: Setting parameter langevinTemp to 90
TCL: Running for 100000 steps
ETITLE: TS BOND ANGLE DIHED IMPRP ELECT VDW BOUNDARY MISC KINETIC TOTAL TEMP POTENTIAL TOTAL3 TEMPAVG PRESSURE GPRESSURE VOLUME PRESSAVG GPRESSAVG
ENERGY: 200000 0.9194 1.0489 3.4304 0.0000 -14407.5961 2536.5012 0.0000 0.0000 347.4804 -11518.2157 58.4621 -11865.6961 -11517.4238 58.4621 542.4166 605.4706 29041.4184 542.4166 605.4706
ENERGY: 300000 0.1647 2.2000 2.3101 0.0000 -14226.1088 2473.8067 0.0000 0.0000 528.2757 -11219.3516 88.8801 -11747.6273 -11218.6049 90.0063 395.5771 507.7106 29047.9624 3.9422 3.8473
TCL: Running 100000 steps at 120 kelvin.
TCL: Setting parameter langevinTemp to 120
TCL: Running for 100000 steps
ETITLE: TS BOND ANGLE DIHED IMPRP ELECT VDW BOUNDARY MISC KINETIC TOTAL TEMP POTENTIAL TOTAL3 TEMPAVG PRESSURE GPRESSURE VOLUME PRESSAVG GPRESSAVG
ENERGY: 300000 0.1647 2.2000 2.3101 0.0000 -14226.1088 2473.8067 0.0000 0.0000 528.0104 -11219.6169 88.8355 -11747.6273 -11218.6303 88.8355 455.7272 506.9819 29047.9624 455.7272 506.9819
ENERGY: 400000 1.2115 0.6403 1.7429 0.0000 -13964.9490 2309.7494 0.0000 0.0000 721.2724 -10930.3325 121.3510 -11651.6049 -10928.7802 119.7595 -700.1644 -672.5117 29456.3293 5.3320 5.3458
TCL: Running 100000 steps at 150 kelvin.
TCL: Setting parameter langevinTemp to 150
TCL: Running for 100000 steps
ETITLE: TS BOND ANGLE DIHED IMPRP ELECT VDW BOUNDARY MISC KINETIC TOTAL TEMP POTENTIAL TOTAL3 TEMPAVG PRESSURE GPRESSURE VOLUME PRESSAVG GPRESSAVG
ENERGY: 400000 1.2115 0.6403 1.7429 0.0000 -13964.9490 2309.7494 0.0000 0.0000 720.9216 -10930.6833 121.2920 -11651.6049 -10929.1268 121.2920 -713.9525 -672.4709 29456.3293 -713.9525 -672.4709
ENERGY: 500000 1.7031 3.2466 2.8202 0.0000 -13815.7157 2378.4172 0.0000 0.0000 863.4308 -10566.0979 145.2685 -11429.5286 -10563.4009 150.0490 712.9977 709.2676 29457.0315 3.2936 3.2958
TCL: Running 100000 steps at 180 kelvin.
TCL: Setting parameter langevinTemp to 180
TCL: Running for 100000 steps
ETITLE: TS BOND ANGLE DIHED IMPRP ELECT VDW BOUNDARY MISC KINETIC TOTAL TEMP POTENTIAL TOTAL3 TEMPAVG PRESSURE GPRESSURE VOLUME PRESSAVG GPRESSAVG
ENERGY: 500000 1.7031 3.2466 2.8202 0.0000 -13815.7157 2378.4172 0.0000 0.0000 862.9981 -10566.5305 145.1957 -11429.5286 -10564.9279 145.1957 657.7154 709.7662 29457.0315 657.7154 709.7662
ENERGY: 600000 2.9397 2.8994 1.4776 0.0000 -13180.9995 2056.5566 0.0000 0.0000 1076.9181 -10040.2082 181.1868 -11117.1262 -10038.8771 179.9631 -776.7762 -757.7470 29484.3044 3.8881 3.8953
TCL: Running 100000 steps at 210 kelvin.
TCL: Setting parameter langevinTemp to 210
TCL: Running for 100000 steps
ETITLE: TS BOND ANGLE DIHED IMPRP ELECT VDW BOUNDARY MISC KINETIC TOTAL TEMP POTENTIAL TOTAL3 TEMPAVG PRESSURE GPRESSURE VOLUME PRESSAVG GPRESSAVG
ENERGY: 600000 2.9397 2.8994 1.4776 0.0000 -13180.9995 2056.5566 0.0000 0.0000 1076.3902 -10040.7361 181.0980 -11117.1262 -10038.4686 181.0980 -808.9675 -759.0789 29484.3044 -808.9675 -759.0789
ENERGY: 700000 2.5293 2.4661 3.7486 0.0000 -12529.9370 1897.8907 0.0000 0.0000 1224.8028 -9398.4995 206.0678 -10623.3023 -9395.2870 210.0360 487.2215 544.0063 28688.4822 2.4812 2.4071
TCL: Running 100000 steps at 240 kelvin.
TCL: Setting parameter langevinTemp to 240
TCL: Running for 100000 steps
ETITLE: TS BOND ANGLE DIHED IMPRP ELECT VDW BOUNDARY MISC KINETIC TOTAL TEMP POTENTIAL TOTAL3 TEMPAVG PRESSURE GPRESSURE VOLUME PRESSAVG GPRESSAVG
ENERGY: 700000 2.5293 2.4661 3.7486 0.0000 -12529.9370 1897.8907 0.0000 0.0000 1224.1717 -9399.1306 205.9616 -10623.3023 -9396.8660 205.9616 468.4649 544.9769 28688.4822 468.4649 544.9769
ENERGY: 800000 2.0938 4.1848 4.1820 0.0000 -11970.5659 1724.1542 0.0000 0.0000 1441.8228 -8794.1283 242.5805 -10235.9510 -8790.5080 239.6286 -281.8544 -218.5688 29753.3931 3.6794 3.7252
TCL: Running 100000 steps at 270 kelvin.
TCL: Setting parameter langevinTemp to 270
TCL: Running for 100000 steps
ETITLE: TS BOND ANGLE DIHED IMPRP ELECT VDW BOUNDARY MISC KINETIC TOTAL TEMP POTENTIAL TOTAL3 TEMPAVG PRESSURE GPRESSURE VOLUME PRESSAVG GPRESSAVG
ENERGY: 800000 2.0938 4.1848 4.1820 0.0000 -11970.5659 1724.1542 0.0000 0.0000 1441.0924 -8794.8586 242.4576 -10235.9510 -8792.1384 242.4576 -296.6135 -219.1760 29753.3931 -296.6135 -219.1760
ENERGY: 900000 1.5709 3.2430 4.4067 0.0000 -11384.9447 1572.9348 0.0000 0.0000 1581.9137 -8220.8755 266.1502 -9802.7892 -8218.5091 269.8808 -239.8025 -83.2787 30011.4754 3.5918 3.4953
TCL: Running 1000000 steps at 300 kelvin.
TCL: Setting parameter langevinTemp to 300
TCL: Running for 1000000 steps
ETITLE: TS BOND ANGLE DIHED IMPRP ELECT VDW BOUNDARY MISC KINETIC TOTAL TEMP POTENTIAL TOTAL3 TEMPAVG PRESSURE GPRESSURE VOLUME PRESSAVG GPRESSAVG
ENERGY: 900000 1.5709 3.2430 4.4067 0.0000 -11384.9447 1572.9348 0.0000 0.0000 1581.1282 -8221.6610 266.0180 -9802.7892 -8218.8999 266.0180 -173.1494 -84.1251 30011.4754 -173.1494 -84.1251
ENERGY: 1100000 2.2828 2.7557 3.9785 0.0000 -10768.8397 1402.5676 0.0000 0.0000 1766.9337 -7590.3215 297.2790 -9357.2552 -7588.6763 300.1469 -426.7267 -378.6882 30998.9419 3.7730 3.5991
ENERGY: 1300000 2.7821 3.2096 5.3015 0.0000 -10848.1840 1406.8071 0.0000 0.0000 1819.4169 -7610.6668 306.1091 -9430.0838 -7606.4096 300.1227 -347.6471 -299.5429 30806.0734 2.3227 2.2983
ENERGY: 1500000 1.2713 4.8478 2.8461 0.0000 -10787.4472 1421.0131 0.0000 0.0000 1796.2202 -7561.2487 302.2063 -9357.4689 -7557.0759 300.2580 -84.1462 -1.2875 30625.2366 3.3157 3.3849
ENERGY: 1700000 3.0465 4.3681 3.5286 0.0000 -10877.9367 1454.0052 0.0000 0.0000 1779.8384 -7633.1500 299.4502 -9412.9884 -7628.4056 300.3323 -106.9159 -1.1505 30842.9306 3.5999 3.8025
ENERGY: 1900000 1.2955 4.6017 4.1861 0.0000 -10774.9337 1446.4141 0.0000 0.0000 1770.0963 -7548.3400 297.8111 -9318.4364 -7545.6861 299.3834 -28.3562 142.3044 31281.1322 3.6792 3.9294
TCL: Exiting due to exit command.
