Info: SIMULATION PARAMETERS:
Info: TIMESTEP               2
Info: NUMBER OF STEPS        0
Info: STEPS PER CYCLE        10
Info: PERIODIC CELL BASIS 1  34.986 0 0
Info: PERIODIC CELL BASIS 2  0 34.26 0
Info: PERIODIC CELL BASIS 3  0 0 37.195
Info: PERIODIC CELL CENTER   0 0 0
Info: WRAPPING WATERS AROUND PERIODIC BOUNDARIES ON OUTPUT.
Info: WRAPPING ALL CLUSTERS AROUND PERIODIC BOUNDARIES ON OUTPUT.
Info: FIRST LDB TIMESTEP     50
Info: LAST LDB TIMESTEP     -1
Info: HOM BACKGROUND SCALING 1
Info: PME BACKGROUND SCALING 1
Info: MIN ATOMS PER PATCH    40
Info: EMPTY PATCH LOAD       40 ATOMS
Info: INITIAL TEMPERATURE    300
Info: CENTER OF MASS MOVING INITIALLY? NO
Info: DIELECTRIC             1
Info: EXCLUDE                SCALED ONE-FOUR
Info: 1-4 ELECTROSTATICS SCALED BY 0.833333
Info: MODIFIED 1-4 VDW PARAMETERS WILL BE USED
Info: DCD FILENAME           mobley_2725802_equil.dcd
Info: DCD FREQUENCY          100000
Info: DCD FIRST STEP         100000
Info: DCD FILE WILL CONTAIN UNIT CELL DATA
Info: XST FILENAME           mobley_2725802_equil.xst
Info: XST FREQUENCY          100000
Info: NO VELOCITY DCD OUTPUT
Info: NO FORCE DCD OUTPUT
Info: OUTPUT FILENAME        mobley_2725802_equil
Info: BINARY OUTPUT FILES WILL BE USED
Info: RESTART FILENAME       mobley_2725802_equil.restart
Info: RESTART FREQUENCY      100000
Info: BINARY RESTART FILES WILL BE USED
Info: CUTOFF                 9
Info: PAIRLIST DISTANCE      11
Info: PAIRLIST SHRINK RATE   0.01
Info: PAIRLIST GROW RATE     0.01
Info: PAIRLIST TRIGGER       0.3
Info: PAIRLISTS PER CYCLE    2
Info: PAIRLISTS ENABLED
Info: MARGIN                 8
Info: HYDROGEN GROUP CUTOFF  2.5
Info: PATCH DIMENSION        21.5
Info: ENERGY OUTPUT STEPS    100000
Info: ENERGY EVALUATION STEPS    100000
Info: OUTPUT ENERGY PRECISION 4
Info: CROSSTERM ENERGY INCLUDED IN DIHEDRAL
Info: TIMING OUTPUT STEPS    1000000
Info: PRESSURE OUTPUT STEPS  100000
Info: LANGEVIN DYNAMICS ACTIVE
Info: LANGEVIN TEMPERATURE   30
Info: LANGEVIN USING BBK INTEGRATOR
Info: LANGEVIN DAMPING COEFFICIENT IS 1 INVERSE PS
Info: LANGEVIN DYNAMICS APPLIED TO HYDROGENS
Info: LANGEVIN PISTON PRESSURE CONTROL ACTIVE
Info:        TARGET PRESSURE IS 1.01325 BAR
Info:     OSCILLATION PERIOD IS 50 FS
Info:             DECAY TIME IS 25 FS
Info:     PISTON TEMPERATURE IS 300 K
Info:       PRESSURE CONTROL IS GROUP-BASED
Info:    INITIAL STRAIN RATE IS 0 0 0
Info:       CELL FLUCTUATION IS ISOTROPIC
Info: PARTICLE MESH EWALD (PME) ACTIVE
Info: PME TOLERANCE               1e-06
Info: PME EWALD COEFFICIENT       0.348832
Info: PME INTERPOLATION ORDER     4
Info: PME GRID DIMENSIONS         36 36 40
Info: PME MAXIMUM GRID SPACING    1
Info: FULL ELECTROSTATIC EVALUATION FREQUENCY      2
Info: USING VERLET I (r-RESPA) MTS SCHEME.
Info: C1 SPLITTING OF LONG RANGE ELECTROSTATICS
Info: PLACING ATOMS IN PATCHES BY HYDROGEN GROUPS
Info: RIGID BONDS TO HYDROGEN : ALL
Info:         ERROR TOLERANCE : 1e-08
Info:          MAX ITERATIONS : 100
Info: RIGID WATER USING SETTLE ALGORITHM
Info: RANDOM NUMBER SEED     1743217050
Info: USE HYDROGEN BONDS?    NO
Info: Using AMBER format force field!
Info: AMBER PARM FILE        mobley_2725802.prmtop
Info: COORDINATE PDB         mobley_2725802.pdb
Info: Exclusions will be read from PARM file!
Info: SCNB (VDW SCALING)     2
Info: USING ARITHMETIC MEAN TO COMBINE L-J SIGMA PARAMETERS
Info: BINARY COORDINATES     mobley_2725802_min.coor
Info: SUMMARY OF PARAMETERS:
Info: 9 BONDS
Info: 13 ANGLES
Info:   13 HARMONIC
Info:   0 COSINE-BASED
Info: 17 DIHEDRAL
Info: 0 IMPROPER
Info: 0 CROSSTERM
Info: 0 VDW
Info: 36 VDW_PAIRS
Info: 0 NBTHOLE_PAIRS
Info: STRUCTURE SUMMARY:
Info: 2947 ATOMS
Info: 2947 BONDS
Info: 36 ANGLES
Info: 67 DIHEDRALS
Info: 0 IMPROPERS
Info: 0 CROSSTERMS
Info: 3027 EXCLUSIONS
Info: 2939 RIGID BONDS
Info: 5902 DEGREES OF FREEDOM
Info: 984 HYDROGEN GROUPS
Info: 4 ATOMS IN LARGEST HYDROGEN GROUP
Info: 984 MIGRATION GROUPS
Info: 4 ATOMS IN LARGEST MIGRATION GROUP
Info: TOTAL MASS = 17696.8 amu
Info: TOTAL CHARGE = -0.000100024 e
Info: MASS DENSITY = 0.659154 g/cm^3
Info: ATOM DENSITY = 0.0661019 atoms/A^3
Info: ADDED 0 IMPLICIT EXCLUSIONS
Info: NONBONDED TABLE R-SQUARED SPACING: 0.0625
Info: NONBONDED TABLE SIZE: 705 POINTS
Info: REMOVING COM VELOCITY 0.0255603 0.0409234 -0.00795014
TCL: Running for 100000 steps
ETITLE: TS BOND ANGLE DIHED IMPRP ELECT VDW BOUNDARY MISC KINETIC TOTAL TEMP POTENTIAL TOTAL3 TEMPAVG PRESSURE GPRESSURE VOLUME PRESSAVG GPRESSAVG
ENERGY: 0 0.0662 5.3470 10.9610 0.0000 -13607.8934 2397.5456 0.0000 0.0000 1753.1395 -9440.8341 298.9563 -11193.9736 -9440.4846 298.9563 589.0857 621.0066 44582.6843 589.0857 621.0066
ENERGY: 100000 0.1667 6.3297 11.2940 0.0000 -14131.7691 2388.2313 0.0000 0.0000 175.0175 -11550.7299 29.8451 -11725.7474 -11550.1564 31.0297 -745.5097 -694.5621 28944.1308 4.1803 4.1811
TCL: Running 100000 steps at 60 kelvin.
TCL: Setting parameter langevinTemp to 60
TCL: Running for 100000 steps
ETITLE: TS BOND ANGLE DIHED IMPRP ELECT VDW BOUNDARY MISC KINETIC TOTAL TEMP POTENTIAL TOTAL3 TEMPAVG PRESSURE GPRESSURE VOLUME PRESSAVG GPRESSAVG
ENERGY: 100000 0.1667 6.3297 11.2940 0.0000 -14131.7691 2388.2313 0.0000 0.0000 174.9302 -11550.8172 29.8302 -11725.7474 -11550.3317 29.8302 -745.6507 -694.7241 28944.1308 -745.6507 -694.7241
ENERGY: 200000 0.3922 6.8386 11.3248 0.0000 -14086.7700 2411.6079 0.0000 0.0000 345.5488 -11311.0576 58.9251 -11656.6064 -11309.7917 59.9350 -310.4744 -283.5325 28959.0516 5.3737 5.4487
TCL: Running 100000 steps at 90 kelvin.
TCL: Setting parameter langevinTemp to 90
TCL: Running for 100000 steps
ETITLE: TS BOND ANGLE DIHED IMPRP ELECT VDW BOUNDARY MISC KINETIC TOTAL TEMP POTENTIAL TOTAL3 TEMPAVG PRESSURE GPRESSURE VOLUME PRESSAVG GPRESSAVG
ENERGY: 200000 0.3922 6.8386 11.3248 0.0000 -14086.7700 2411.6079 0.0000 0.0000 345.3784 -11311.2280 58.8961 -11656.6064 -11310.4235 58.8961 -320.2040 -283.4254 28959.0516 -320.2040 -283.4254
ENERGY: 300000 0.6937 8.6241 10.8102 0.0000 -13895.1078 2334.5318 0.0000 0.0000 530.1904 -11010.2577 90.4114 -11540.4481 -11008.7510 89.9223 -471.3068 -379.7629 28986.1651 3.9329 4.0112
TCL: Running 100000 steps at 120 kelvin.
TCL: Setting parameter langevinTemp to 120
TCL: Running for 100000 steps
ETITLE: TS BOND ANGLE DIHED IMPRP ELECT VDW BOUNDARY MISC KINETIC TOTAL TEMP POTENTIAL TOTAL3 TEMPAVG PRESSURE GPRESSURE VOLUME PRESSAVG GPRESSAVG
ENERGY: 300000 0.6937 8.6241 10.8102 0.0000 -13895.1078 2334.5318 0.0000 0.0000 529.9225 -11010.5256 90.3657 -11540.4481 -11009.4277 90.3657 -429.8539 -379.7392 28986.1651 -429.8539 -379.7392
ENERGY: 400000 1.7259 9.5053 12.4824 0.0000 -13692.3350 2267.3860 0.0000 0.0000 734.8255 -10666.4099 125.3070 -11401.2354 -10664.9038 120.0111 -269.7816 -259.2777 28674.9094 3.1848 3.1758
TCL: Running 100000 steps at 150 kelvin.
TCL: Setting parameter langevinTemp to 150
TCL: Running for 100000 steps
ETITLE: TS BOND ANGLE DIHED IMPRP ELECT VDW BOUNDARY MISC KINETIC TOTAL TEMP POTENTIAL TOTAL3 TEMPAVG PRESSURE GPRESSURE VOLUME PRESSAVG GPRESSAVG
ENERGY: 400000 1.7259 9.5053 12.4824 0.0000 -13692.3350 2267.3860 0.0000 0.0000 734.4806 -10666.7547 125.2482 -11401.2354 -10665.6163 125.2482 -300.7228 -259.1285 28674.9094 -300.7228 -259.1285
ENERGY: 500000 2.1991 8.0474 11.8599 0.0000 -13625.2597 2323.2327 0.0000 0.0000 881.0640 -10398.8567 150.2445 -11279.9207 -10395.9919 149.9111 555.7604 589.7741 28791.5666 4.0933 4.2044
TCL: Running 100000 steps at 180 kelvin.
TCL: Setting parameter langevinTemp to 180
TCL: Running for 100000 steps
ETITLE: TS BOND ANGLE DIHED IMPRP ELECT VDW BOUNDARY MISC KINETIC TOTAL TEMP POTENTIAL TOTAL3 TEMPAVG PRESSURE GPRESSURE VOLUME PRESSAVG GPRESSAVG
ENERGY: 500000 2.1991 8.0474 11.8599 0.0000 -13625.2597 2323.2327 0.0000 0.0000 880.6313 -10399.2894 150.1707 -11279.9207 -10397.5682 150.1707 539.7177 590.9192 28791.5666 539.7177 590.9192
ENERGY: 600000 1.2467 10.0489 13.2995 0.0000 -13145.8966 2143.0834 0.0000 0.0000 1098.4776 -9879.7405 187.3192 -10978.2181 -9878.2744 179.8116 261.1409 344.7980 28794.3298 3.8825 3.6627
TCL: Running 100000 steps at 210 kelvin.
TCL: Setting parameter langevinTemp to 210
TCL: Running for 100000 steps
ETITLE: TS BOND ANGLE DIHED IMPRP ELECT VDW BOUNDARY MISC KINETIC TOTAL TEMP POTENTIAL TOTAL3 TEMPAVG PRESSURE GPRESSURE VOLUME PRESSAVG GPRESSAVG
ENERGY: 600000 1.2467 10.0489 13.2995 0.0000 -13145.8966 2143.0834 0.0000 0.0000 1097.9353 -9880.2828 187.2268 -10978.2181 -9878.4918 187.2268 296.0422 343.4145 28794.3298 296.0422 343.4145
ENERGY: 700000 1.1386 11.6522 10.7272 0.0000 -12267.5158 1803.8298 0.0000 0.0000 1232.0170 -9208.1510 210.0912 -10440.1680 -9205.3712 209.7888 -601.9788 -496.5386 29006.6249 4.1279 4.2651
TCL: Running 100000 steps at 240 kelvin.
TCL: Setting parameter langevinTemp to 240
TCL: Running for 100000 steps
ETITLE: TS BOND ANGLE DIHED IMPRP ELECT VDW BOUNDARY MISC KINETIC TOTAL TEMP POTENTIAL TOTAL3 TEMPAVG PRESSURE GPRESSURE VOLUME PRESSAVG GPRESSAVG
ENERGY: 700000 1.1386 11.6522 10.7272 0.0000 -12267.5158 1803.8298 0.0000 0.0000 1231.3980 -9208.7700 209.9857 -10440.1680 -9206.5866 209.9857 -575.0831 -497.0787 29006.6249 -575.0831 -497.0787
ENERGY: 800000 1.6455 10.3172 12.8952 0.0000 -11810.5616 1682.0217 0.0000 0.0000 1404.7207 -8698.9613 239.5417 -10103.6820 -8694.8083 239.6186 -395.2273 -324.5675 29133.3148 2.2549 2.2342
TCL: Running 100000 steps at 270 kelvin.
TCL: Setting parameter langevinTemp to 270
TCL: Running for 100000 steps
ETITLE: TS BOND ANGLE DIHED IMPRP ELECT VDW BOUNDARY MISC KINETIC TOTAL TEMP POTENTIAL TOTAL3 TEMPAVG PRESSURE GPRESSURE VOLUME PRESSAVG GPRESSAVG
ENERGY: 800000 1.6455 10.3172 12.8952 0.0000 -11810.5616 1682.0217 0.0000 0.0000 1404.0317 -8699.6504 239.4242 -10103.6820 -8696.9699 239.4242 -414.0882 -322.9485 29133.3148 -414.0882 -322.9485
ENERGY: 900000 1.1312 14.1709 12.1660 0.0000 -11261.4580 1572.7468 0.0000 0.0000 1558.8521 -8102.3910 265.8252 -9661.2431 -8099.4084 269.6722 -83.1435 -12.0240 29613.7986 2.3059 2.3796
TCL: Running 1000000 steps at 300 kelvin.
TCL: Setting parameter langevinTemp to 300
TCL: Running for 1000000 steps
ETITLE: TS BOND ANGLE DIHED IMPRP ELECT VDW BOUNDARY MISC KINETIC TOTAL TEMP POTENTIAL TOTAL3 TEMPAVG PRESSURE GPRESSURE VOLUME PRESSAVG GPRESSAVG
ENERGY: 900000 1.1312 14.1709 12.1660 0.0000 -11261.4580 1572.7468 0.0000 0.0000 1558.0592 -8103.1839 265.6900 -9661.2431 -8100.6165 265.6900 -104.5090 -11.7058 29613.7986 -104.5090 -11.7058
ENERGY: 1100000 1.2221 13.9029 11.2123 0.0000 -10651.5377 1392.0586 0.0000 0.0000 1788.1631 -7444.9787 304.9287 -9233.1418 -7442.0947 300.2262 -177.2668 -146.6570 30216.4673 4.1109 4.1356
ENERGY: 1300000 2.6913 12.9161 14.5904 0.0000 -10490.0012 1262.6827 0.0000 0.0000 1800.1279 -7396.9927 306.9690 -9197.1207 -7394.2405 299.7041 -1290.0265 -1224.5639 30869.2488 2.5696 2.5375
ENERGY: 1500000 1.7026 12.9198 12.3548 0.0000 -10809.1943 1472.5319 0.0000 0.0000 1751.5124 -7558.1728 298.6788 -9309.6853 -7552.3145 299.6571 262.7033 338.3535 29825.0904 3.5601 3.4944
ENERGY: 1700000 0.7496 12.7311 12.0353 0.0000 -10634.5843 1383.4212 0.0000 0.0000 1768.6257 -7457.0214 301.5971 -9225.6471 -7457.6758 300.5290 -99.8140 -69.2057 30243.5724 3.1522 2.9885
ENERGY: 1900000 1.6758 13.1216 10.8817 0.0000 -10532.0799 1306.3048 0.0000 0.0000 1786.4001 -7413.6958 304.6281 -9200.0960 -7408.3368 300.1129 -769.3237 -684.6755 30293.9682 4.0077 3.9989
TCL: Exiting due to exit command.
