Info: SIMULATION PARAMETERS:
Info: TIMESTEP               2
Info: NUMBER OF STEPS        0
Info: STEPS PER CYCLE        10
Info: PERIODIC CELL BASIS 1  35.01 0 0
Info: PERIODIC CELL BASIS 2  0 35.779 0
Info: PERIODIC CELL BASIS 3  0 0 35.723
Info: PERIODIC CELL CENTER   0 0 0
Info: WRAPPING WATERS AROUND PERIODIC BOUNDARIES ON OUTPUT.
Info: WRAPPING ALL CLUSTERS AROUND PERIODIC BOUNDARIES ON OUTPUT.
Info: FIRST LDB TIMESTEP     50
Info: LAST LDB TIMESTEP     -1
Info: HOM BACKGROUND SCALING 1
Info: PME BACKGROUND SCALING 1
Info: MIN ATOMS PER PATCH    40
Info: EMPTY PATCH LOAD       40 ATOMS
Info: INITIAL TEMPERATURE    300
Info: CENTER OF MASS MOVING INITIALLY? NO
Info: DIELECTRIC             1
Info: EXCLUDE                SCALED ONE-FOUR
Info: 1-4 ELECTROSTATICS SCALED BY 0.833333
Info: MODIFIED 1-4 VDW PARAMETERS WILL BE USED
Info: DCD FILENAME           mobley_9741965_equil.dcd
Info: DCD FREQUENCY          100000
Info: DCD FIRST STEP         100000
Info: DCD FILE WILL CONTAIN UNIT CELL DATA
Info: XST FILENAME           mobley_9741965_equil.xst
Info: XST FREQUENCY          100000
Info: NO VELOCITY DCD OUTPUT
Info: NO FORCE DCD OUTPUT
Info: OUTPUT FILENAME        mobley_9741965_equil
Info: BINARY OUTPUT FILES WILL BE USED
Info: RESTART FILENAME       mobley_9741965_equil.restart
Info: RESTART FREQUENCY      100000
Info: BINARY RESTART FILES WILL BE USED
Info: CUTOFF                 9
Info: PAIRLIST DISTANCE      11
Info: PAIRLIST SHRINK RATE   0.01
Info: PAIRLIST GROW RATE     0.01
Info: PAIRLIST TRIGGER       0.3
Info: PAIRLISTS PER CYCLE    2
Info: PAIRLISTS ENABLED
Info: MARGIN                 8
Info: HYDROGEN GROUP CUTOFF  2.5
Info: PATCH DIMENSION        21.5
Info: ENERGY OUTPUT STEPS    100000
Info: ENERGY EVALUATION STEPS    100000
Info: OUTPUT ENERGY PRECISION 4
Info: CROSSTERM ENERGY INCLUDED IN DIHEDRAL
Info: TIMING OUTPUT STEPS    1000000
Info: PRESSURE OUTPUT STEPS  100000
Info: LANGEVIN DYNAMICS ACTIVE
Info: LANGEVIN TEMPERATURE   30
Info: LANGEVIN USING BBK INTEGRATOR
Info: LANGEVIN DAMPING COEFFICIENT IS 1 INVERSE PS
Info: LANGEVIN DYNAMICS APPLIED TO HYDROGENS
Info: LANGEVIN PISTON PRESSURE CONTROL ACTIVE
Info:        TARGET PRESSURE IS 1.01325 BAR
Info:     OSCILLATION PERIOD IS 50 FS
Info:             DECAY TIME IS 25 FS
Info:     PISTON TEMPERATURE IS 300 K
Info:       PRESSURE CONTROL IS GROUP-BASED
Info:    INITIAL STRAIN RATE IS 0 0 0
Info:       CELL FLUCTUATION IS ISOTROPIC
Info: PARTICLE MESH EWALD (PME) ACTIVE
Info: PME TOLERANCE               1e-06
Info: PME EWALD COEFFICIENT       0.348832
Info: PME INTERPOLATION ORDER     4
Info: PME GRID DIMENSIONS         36 36 36
Info: PME MAXIMUM GRID SPACING    1
Info: FULL ELECTROSTATIC EVALUATION FREQUENCY      2
Info: USING VERLET I (r-RESPA) MTS SCHEME.
Info: C1 SPLITTING OF LONG RANGE ELECTROSTATICS
Info: PLACING ATOMS IN PATCHES BY HYDROGEN GROUPS
Info: RIGID BONDS TO HYDROGEN : ALL
Info:         ERROR TOLERANCE : 1e-08
Info:          MAX ITERATIONS : 100
Info: RIGID WATER USING SETTLE ALGORITHM
Info: RANDOM NUMBER SEED     1743263034
Info: USE HYDROGEN BONDS?    NO
Info: Using AMBER format force field!
Info: AMBER PARM FILE        mobley_9741965.prmtop
Info: COORDINATE PDB         mobley_9741965.pdb
Info: Exclusions will be read from PARM file!
Info: SCNB (VDW SCALING)     2
Info: USING ARITHMETIC MEAN TO COMBINE L-J SIGMA PARAMETERS
Info: BINARY COORDINATES     mobley_9741965_min.coor
Info: SUMMARY OF PARAMETERS:
Info: 8 BONDS
Info: 10 ANGLES
Info:   10 HARMONIC
Info:   0 COSINE-BASED
Info: 9 DIHEDRAL
Info: 0 IMPROPER
Info: 0 CROSSTERM
Info: 0 VDW
Info: 36 VDW_PAIRS
Info: 0 NBTHOLE_PAIRS
Info: STRUCTURE SUMMARY:
Info: 2990 ATOMS
Info: 2989 BONDS
Info: 32 ANGLES
Info: 46 DIHEDRALS
Info: 0 IMPROPERS
Info: 0 CROSSTERMS
Info: 3058 EXCLUSIONS
Info: 2978 RIGID BONDS
Info: 5992 DEGREES OF FREEDOM
Info: 1002 HYDROGEN GROUPS
Info: 4 ATOMS IN LARGEST HYDROGEN GROUP
Info: 1002 MIGRATION GROUPS
Info: 4 ATOMS IN LARGEST MIGRATION GROUP
Info: TOTAL MASS = 18016 amu
Info: TOTAL CHARGE = -4.47035e-08 e
Info: MASS DENSITY = 0.668573 g/cm^3
Info: ATOM DENSITY = 0.0668195 atoms/A^3
Info: ADDED 0 IMPLICIT EXCLUSIONS
Info: NONBONDED TABLE R-SQUARED SPACING: 0.0625
Info: NONBONDED TABLE SIZE: 705 POINTS
Info: REMOVING COM VELOCITY -0.0181907 -0.0113933 0.0216062
TCL: Running for 100000 steps
ETITLE: TS BOND ANGLE DIHED IMPRP ELECT VDW BOUNDARY MISC KINETIC TOTAL TEMP POTENTIAL TOTAL3 TEMPAVG PRESSURE GPRESSURE VOLUME PRESSAVG GPRESSAVG
ENERGY: 0 0.2151 2.0063 3.1066 0.0000 -13903.3963 2481.3562 0.0000 0.0000 1750.9578 -9665.7542 294.0995 -11416.7121 -9665.4036 294.0995 576.8652 600.6362 44747.4439 576.8652 600.6362
ENERGY: 100000 0.2595 2.7573 3.7945 0.0000 -14508.7432 2563.0262 0.0000 0.0000 179.9753 -11758.9304 30.2295 -11938.9057 -11758.4152 30.9677 330.0315 369.8992 29150.6863 5.3804 5.4040
TCL: Running 100000 steps at 60 kelvin.
TCL: Setting parameter langevinTemp to 60
TCL: Running for 100000 steps
ETITLE: TS BOND ANGLE DIHED IMPRP ELECT VDW BOUNDARY MISC KINETIC TOTAL TEMP POTENTIAL TOTAL3 TEMPAVG PRESSURE GPRESSURE VOLUME PRESSAVG GPRESSAVG
ENERGY: 100000 0.2595 2.7573 3.7945 0.0000 -14508.7432 2563.0262 0.0000 0.0000 179.8833 -11759.0223 30.2141 -11938.9057 -11758.6278 30.2141 319.1962 369.9545 29150.6863 319.1962 369.9545
ENERGY: 200000 1.3773 2.7454 3.8147 0.0000 -14293.5563 2465.3593 0.0000 0.0000 354.1273 -11466.1324 59.4810 -11820.2597 -11465.6558 59.9335 -157.9385 -81.9096 29081.7803 3.8694 3.7901
TCL: Running 100000 steps at 90 kelvin.
TCL: Setting parameter langevinTemp to 90
TCL: Running for 100000 steps
ETITLE: TS BOND ANGLE DIHED IMPRP ELECT VDW BOUNDARY MISC KINETIC TOTAL TEMP POTENTIAL TOTAL3 TEMPAVG PRESSURE GPRESSURE VOLUME PRESSAVG GPRESSAVG
ENERGY: 200000 1.3773 2.7454 3.8147 0.0000 -14293.5563 2465.3593 0.0000 0.0000 353.9532 -11466.3065 59.4517 -11820.2597 -11465.3641 59.4517 -140.5882 -82.2841 29081.7803 -140.5882 -82.2841
ENERGY: 300000 1.1437 4.1696 4.8915 0.0000 -14166.6762 2403.4535 0.0000 0.0000 529.4923 -11223.5255 88.9361 -11753.0179 -11221.3418 89.9152 -280.4764 -271.6195 29315.8691 4.9826 5.0048
TCL: Running 100000 steps at 120 kelvin.
TCL: Setting parameter langevinTemp to 120
TCL: Running for 100000 steps
ETITLE: TS BOND ANGLE DIHED IMPRP ELECT VDW BOUNDARY MISC KINETIC TOTAL TEMP POTENTIAL TOTAL3 TEMPAVG PRESSURE GPRESSURE VOLUME PRESSAVG GPRESSAVG
ENERGY: 300000 1.1437 4.1696 4.8915 0.0000 -14166.6762 2403.4535 0.0000 0.0000 529.2289 -11223.7890 88.8919 -11753.0179 -11222.6216 88.8919 -319.7997 -270.5495 29315.8691 -319.7997 -270.5495
ENERGY: 400000 1.8476 5.5719 3.7378 0.0000 -14025.1491 2406.3054 0.0000 0.0000 693.0029 -10914.6833 116.4002 -11607.6862 -10912.8436 119.8293 359.5823 404.4077 29091.6000 5.5763 5.4672
TCL: Running 100000 steps at 150 kelvin.
TCL: Setting parameter langevinTemp to 150
TCL: Running for 100000 steps
ETITLE: TS BOND ANGLE DIHED IMPRP ELECT VDW BOUNDARY MISC KINETIC TOTAL TEMP POTENTIAL TOTAL3 TEMPAVG PRESSURE GPRESSURE VOLUME PRESSAVG GPRESSAVG
ENERGY: 400000 1.8476 5.5719 3.7378 0.0000 -14025.1491 2406.3054 0.0000 0.0000 692.6440 -10915.0422 116.3399 -11607.6862 -10913.8821 116.3399 353.4789 404.7757 29091.6000 353.4789 404.7757
ENERGY: 500000 2.2440 5.6748 4.4130 0.0000 -13779.7417 2347.5500 0.0000 0.0000 904.0792 -10515.7806 151.8536 -11419.8598 -10512.9996 149.8925 730.0270 795.2341 29008.5545 2.9146 2.8342
TCL: Running 100000 steps at 180 kelvin.
TCL: Setting parameter langevinTemp to 180
TCL: Running for 100000 steps
ETITLE: TS BOND ANGLE DIHED IMPRP ELECT VDW BOUNDARY MISC KINETIC TOTAL TEMP POTENTIAL TOTAL3 TEMPAVG PRESSURE GPRESSURE VOLUME PRESSAVG GPRESSAVG
ENERGY: 500000 2.2440 5.6748 4.4130 0.0000 -13779.7417 2347.5500 0.0000 0.0000 903.6374 -10516.2224 151.7794 -11419.8598 -10514.2439 151.7794 753.3974 795.3211 29008.5545 753.3974 795.3211
ENERGY: 600000 1.7934 7.4179 4.8702 0.0000 -13134.7771 1992.6114 0.0000 0.0000 1052.7478 -10075.3364 176.8247 -11128.0842 -10072.9829 179.8489 -1281.5967 -1153.7460 29359.7022 3.5733 3.5431
TCL: Running 100000 steps at 210 kelvin.
TCL: Setting parameter langevinTemp to 210
TCL: Running for 100000 steps
ETITLE: TS BOND ANGLE DIHED IMPRP ELECT VDW BOUNDARY MISC KINETIC TOTAL TEMP POTENTIAL TOTAL3 TEMPAVG PRESSURE GPRESSURE VOLUME PRESSAVG GPRESSAVG
ENERGY: 600000 1.7934 7.4179 4.8702 0.0000 -13134.7771 1992.6114 0.0000 0.0000 1052.2131 -10075.8711 176.7349 -11128.0842 -10073.6572 176.7349 -1221.3268 -1153.3244 29359.7022 -1221.3268 -1153.3244
ENERGY: 700000 2.1424 5.8446 5.4121 0.0000 -12552.8909 1890.4917 0.0000 0.0000 1254.1954 -9394.8046 210.6608 -10649.0000 -9391.6949 209.4467 -214.1136 -182.0641 29496.1796 4.2800 4.4428
TCL: Running 100000 steps at 240 kelvin.
TCL: Setting parameter langevinTemp to 240
TCL: Running for 100000 steps
ETITLE: TS BOND ANGLE DIHED IMPRP ELECT VDW BOUNDARY MISC KINETIC TOTAL TEMP POTENTIAL TOTAL3 TEMPAVG PRESSURE GPRESSURE VOLUME PRESSAVG GPRESSAVG
ENERGY: 700000 2.1424 5.8446 5.4121 0.0000 -12552.8909 1890.4917 0.0000 0.0000 1253.5854 -9395.4146 210.5584 -10649.0000 -9393.3781 210.5584 -256.7194 -182.2765 29496.1796 -256.7194 -182.2765
ENERGY: 800000 1.4647 9.7740 7.0575 0.0000 -11838.0217 1669.6820 0.0000 0.0000 1414.5626 -8735.4809 237.5969 -10150.0435 -8732.7798 239.9309 -516.2964 -379.8213 29746.5403 2.5602 2.4176
TCL: Running 100000 steps at 270 kelvin.
TCL: Setting parameter langevinTemp to 270
TCL: Running for 100000 steps
ETITLE: TS BOND ANGLE DIHED IMPRP ELECT VDW BOUNDARY MISC KINETIC TOTAL TEMP POTENTIAL TOTAL3 TEMPAVG PRESSURE GPRESSURE VOLUME PRESSAVG GPRESSAVG
ENERGY: 800000 1.4647 9.7740 7.0575 0.0000 -11838.0217 1669.6820 0.0000 0.0000 1413.8450 -8736.1985 237.4764 -10150.0435 -8733.7593 237.4764 -451.6606 -379.4174 29746.5403 -451.6606 -379.4174
ENERGY: 900000 3.6822 10.3893 5.4995 0.0000 -11356.2929 1556.9670 0.0000 0.0000 1664.6234 -8115.1315 279.5983 -9779.7549 -8110.2379 270.1762 -232.0105 -181.9060 30225.0960 3.2855 3.1208
TCL: Running 1000000 steps at 300 kelvin.
TCL: Setting parameter langevinTemp to 300
TCL: Running for 1000000 steps
ETITLE: TS BOND ANGLE DIHED IMPRP ELECT VDW BOUNDARY MISC KINETIC TOTAL TEMP POTENTIAL TOTAL3 TEMPAVG PRESSURE GPRESSURE VOLUME PRESSAVG GPRESSAVG
ENERGY: 900000 3.6822 10.3893 5.4995 0.0000 -11356.2929 1556.9670 0.0000 0.0000 1663.8005 -8115.9544 279.4601 -9779.7549 -8112.7247 279.4601 -257.7110 -181.0094 30225.0960 -257.7110 -181.0094
ENERGY: 1100000 2.5568 9.3309 5.8941 0.0000 -10637.7057 1330.0785 0.0000 0.0000 1820.6744 -7469.1711 305.8094 -9289.8455 -7463.8723 300.0077 -462.0191 -395.4821 30909.9753 3.0117 3.0418
ENERGY: 1300000 2.9082 8.6676 5.7437 0.0000 -10805.4427 1406.8243 0.0000 0.0000 1770.8577 -7610.4411 297.4420 -9381.2988 -7607.1345 300.0526 -310.2563 -281.5666 30861.2592 3.3687 3.4580
ENERGY: 1500000 3.8206 9.6791 5.5610 0.0000 -10764.6333 1376.4746 0.0000 0.0000 1750.6565 -7618.4415 294.0489 -9369.0980 -7615.1919 300.6524 -147.1555 -98.3857 30446.9031 2.9414 2.9212
ENERGY: 1700000 3.8230 13.8039 3.3179 0.0000 -10964.5144 1467.3337 0.0000 0.0000 1787.1272 -7689.1088 300.1747 -9476.2360 -7687.0644 299.9592 -118.2048 -93.0353 30869.3636 3.4405 3.3160
ENERGY: 1900000 0.8260 10.3645 5.2376 0.0000 -10774.9210 1377.6189 0.0000 0.0000 1791.3030 -7589.5709 300.8761 -9380.8739 -7584.9273 299.6187 -433.6813 -405.4318 30703.3314 3.2421 3.0911
TCL: Exiting due to exit command.
