Info: SIMULATION PARAMETERS:
Info: TIMESTEP               2
Info: NUMBER OF STEPS        0
Info: STEPS PER CYCLE        10
Info: PERIODIC CELL BASIS 1  35.01 0 0
Info: PERIODIC CELL BASIS 2  0 34.26 0
Info: PERIODIC CELL BASIS 3  0 0 36.199
Info: PERIODIC CELL CENTER   0 0 0
Info: WRAPPING WATERS AROUND PERIODIC BOUNDARIES ON OUTPUT.
Info: WRAPPING ALL CLUSTERS AROUND PERIODIC BOUNDARIES ON OUTPUT.
Info: FIRST LDB TIMESTEP     50
Info: LAST LDB TIMESTEP     -1
Info: HOM BACKGROUND SCALING 1
Info: PME BACKGROUND SCALING 1
Info: MIN ATOMS PER PATCH    40
Info: EMPTY PATCH LOAD       40 ATOMS
Info: INITIAL TEMPERATURE    300
Info: CENTER OF MASS MOVING INITIALLY? NO
Info: DIELECTRIC             1
Info: EXCLUDE                SCALED ONE-FOUR
Info: 1-4 ELECTROSTATICS SCALED BY 0.833333
Info: MODIFIED 1-4 VDW PARAMETERS WILL BE USED
Info: DCD FILENAME           mobley_4715906_equil.dcd
Info: DCD FREQUENCY          100000
Info: DCD FIRST STEP         100000
Info: DCD FILE WILL CONTAIN UNIT CELL DATA
Info: XST FILENAME           mobley_4715906_equil.xst
Info: XST FREQUENCY          100000
Info: NO VELOCITY DCD OUTPUT
Info: NO FORCE DCD OUTPUT
Info: OUTPUT FILENAME        mobley_4715906_equil
Info: BINARY OUTPUT FILES WILL BE USED
Info: RESTART FILENAME       mobley_4715906_equil.restart
Info: RESTART FREQUENCY      100000
Info: BINARY RESTART FILES WILL BE USED
Info: CUTOFF                 9
Info: PAIRLIST DISTANCE      11
Info: PAIRLIST SHRINK RATE   0.01
Info: PAIRLIST GROW RATE     0.01
Info: PAIRLIST TRIGGER       0.3
Info: PAIRLISTS PER CYCLE    2
Info: PAIRLISTS ENABLED
Info: MARGIN                 8
Info: HYDROGEN GROUP CUTOFF  2.5
Info: PATCH DIMENSION        21.5
Info: ENERGY OUTPUT STEPS    100000
Info: ENERGY EVALUATION STEPS    100000
Info: OUTPUT ENERGY PRECISION 4
Info: CROSSTERM ENERGY INCLUDED IN DIHEDRAL
Info: TIMING OUTPUT STEPS    1000000
Info: PRESSURE OUTPUT STEPS  100000
Info: LANGEVIN DYNAMICS ACTIVE
Info: LANGEVIN TEMPERATURE   30
Info: LANGEVIN USING BBK INTEGRATOR
Info: LANGEVIN DAMPING COEFFICIENT IS 1 INVERSE PS
Info: LANGEVIN DYNAMICS APPLIED TO HYDROGENS
Info: LANGEVIN PISTON PRESSURE CONTROL ACTIVE
Info:        TARGET PRESSURE IS 1.01325 BAR
Info:     OSCILLATION PERIOD IS 50 FS
Info:             DECAY TIME IS 25 FS
Info:     PISTON TEMPERATURE IS 300 K
Info:       PRESSURE CONTROL IS GROUP-BASED
Info:    INITIAL STRAIN RATE IS 0 0 0
Info:       CELL FLUCTUATION IS ISOTROPIC
Info: PARTICLE MESH EWALD (PME) ACTIVE
Info: PME TOLERANCE               1e-06
Info: PME EWALD COEFFICIENT       0.348832
Info: PME INTERPOLATION ORDER     4
Info: PME GRID DIMENSIONS         36 36 40
Info: PME MAXIMUM GRID SPACING    1
Info: FULL ELECTROSTATIC EVALUATION FREQUENCY      2
Info: USING VERLET I (r-RESPA) MTS SCHEME.
Info: C1 SPLITTING OF LONG RANGE ELECTROSTATICS
Info: PLACING ATOMS IN PATCHES BY HYDROGEN GROUPS
Info: RIGID BONDS TO HYDROGEN : ALL
Info:         ERROR TOLERANCE : 1e-08
Info:          MAX ITERATIONS : 100
Info: RIGID WATER USING SETTLE ALGORITHM
Info: RANDOM NUMBER SEED     1743221312
Info: USE HYDROGEN BONDS?    NO
Info: Using AMBER format force field!
Info: AMBER PARM FILE        mobley_4715906.prmtop
Info: COORDINATE PDB         mobley_4715906.pdb
Info: Exclusions will be read from PARM file!
Info: SCNB (VDW SCALING)     2
Info: USING ARITHMETIC MEAN TO COMBINE L-J SIGMA PARAMETERS
Info: BINARY COORDINATES     mobley_4715906_min.coor
Info: SUMMARY OF PARAMETERS:
Info: 4 BONDS
Info: 3 ANGLES
Info:   3 HARMONIC
Info:   0 COSINE-BASED
Info: 5 DIHEDRAL
Info: 0 IMPROPER
Info: 0 CROSSTERM
Info: 0 VDW
Info: 10 VDW_PAIRS
Info: 0 NBTHOLE_PAIRS
Info: STRUCTURE SUMMARY:
Info: 2961 ATOMS
Info: 2961 BONDS
Info: 48 ANGLES
Info: 94 DIHEDRALS
Info: 0 IMPROPERS
Info: 0 CROSSTERMS
Info: 3078 EXCLUSIONS
Info: 2953 RIGID BONDS
Info: 5930 DEGREES OF FREEDOM
Info: 987 HYDROGEN GROUPS
Info: 4 ATOMS IN LARGEST HYDROGEN GROUP
Info: 987 MIGRATION GROUPS
Info: 4 ATOMS IN LARGEST MIGRATION GROUP
Info: TOTAL MASS = 17749.9 amu
Info: TOTAL CHARGE = -0.000199981 e
Info: MASS DENSITY = 0.678857 g/cm^3
Info: ATOM DENSITY = 0.0681965 atoms/A^3
Info: ADDED 0 IMPLICIT EXCLUSIONS
Info: NONBONDED TABLE R-SQUARED SPACING: 0.0625
Info: NONBONDED TABLE SIZE: 705 POINTS
Info: REMOVING COM VELOCITY -0.076847 0.122682 -0.110802
TCL: Running for 100000 steps
ETITLE: TS BOND ANGLE DIHED IMPRP ELECT VDW BOUNDARY MISC KINETIC TOTAL TEMP POTENTIAL TOTAL3 TEMPAVG PRESSURE GPRESSURE VOLUME PRESSAVG GPRESSAVG
ENERGY: 0 0.4374 1.1824 5.5438 0.0000 -13676.4690 2408.5256 0.0000 0.0000 1757.4715 -9503.3083 298.2799 -11260.7798 -9502.9820 298.2799 457.0202 493.5660 43418.6227 457.0202 493.5660
ENERGY: 100000 0.4154 2.4836 5.6834 0.0000 -14266.0320 2510.8619 0.0000 0.0000 176.1936 -11570.3942 29.9038 -11746.5878 -11570.1510 30.9634 392.7469 462.4477 28124.5515 4.7373 4.6821
TCL: Running 100000 steps at 60 kelvin.
TCL: Setting parameter langevinTemp to 60
TCL: Running for 100000 steps
ETITLE: TS BOND ANGLE DIHED IMPRP ELECT VDW BOUNDARY MISC KINETIC TOTAL TEMP POTENTIAL TOTAL3 TEMPAVG PRESSURE GPRESSURE VOLUME PRESSAVG GPRESSAVG
ENERGY: 100000 0.4154 2.4836 5.6834 0.0000 -14266.0320 2510.8619 0.0000 0.0000 176.1073 -11570.4805 29.8891 -11746.5878 -11570.1300 29.8891 406.7071 462.3442 28124.5515 406.7071 462.3442
ENERGY: 200000 1.7850 3.4391 5.5171 0.0000 -13985.3592 2257.7651 0.0000 0.0000 357.4425 -11359.4104 60.6655 -11716.8530 -11358.4722 59.9133 -1594.3293 -1536.3068 28389.0781 2.5417 2.5584
TCL: Running 100000 steps at 90 kelvin.
TCL: Setting parameter langevinTemp to 90
TCL: Running for 100000 steps
ETITLE: TS BOND ANGLE DIHED IMPRP ELECT VDW BOUNDARY MISC KINETIC TOTAL TEMP POTENTIAL TOTAL3 TEMPAVG PRESSURE GPRESSURE VOLUME PRESSAVG GPRESSAVG
ENERGY: 200000 1.7850 3.4391 5.5171 0.0000 -13985.3592 2257.7651 0.0000 0.0000 357.2697 -11359.5832 60.6362 -11716.8530 -11358.6983 60.6362 -1583.4047 -1536.6069 28389.0781 -1583.4047 -1536.6069
ENERGY: 300000 0.3209 4.2921 5.7197 0.0000 -14066.2201 2464.9033 0.0000 0.0000 512.1100 -11078.8742 86.9159 -11590.9842 -11077.9461 90.0060 827.2287 874.3147 28146.1240 3.5028 3.5453
TCL: Running 100000 steps at 120 kelvin.
TCL: Setting parameter langevinTemp to 120
TCL: Running for 100000 steps
ETITLE: TS BOND ANGLE DIHED IMPRP ELECT VDW BOUNDARY MISC KINETIC TOTAL TEMP POTENTIAL TOTAL3 TEMPAVG PRESSURE GPRESSURE VOLUME PRESSAVG GPRESSAVG
ENERGY: 300000 0.3209 4.2921 5.7197 0.0000 -14066.2201 2464.9033 0.0000 0.0000 511.8417 -11079.1425 86.8703 -11590.9842 -11078.2587 86.8703 813.5306 873.9385 28146.1240 813.5306 873.9385
ENERGY: 400000 1.4401 5.5958 6.1726 0.0000 -13818.5392 2378.3420 0.0000 0.0000 712.6488 -10714.3399 120.9515 -11426.9887 -10712.2554 120.0669 407.9443 440.0890 28670.3909 5.0964 5.0984
TCL: Running 100000 steps at 150 kelvin.
TCL: Setting parameter langevinTemp to 150
TCL: Running for 100000 steps
ETITLE: TS BOND ANGLE DIHED IMPRP ELECT VDW BOUNDARY MISC KINETIC TOTAL TEMP POTENTIAL TOTAL3 TEMPAVG PRESSURE GPRESSURE VOLUME PRESSAVG GPRESSAVG
ENERGY: 400000 1.4401 5.5958 6.1726 0.0000 -13818.5392 2378.3420 0.0000 0.0000 712.2778 -10714.7109 120.8885 -11426.9887 -10713.4518 120.8885 399.9866 440.5839 28670.3909 399.9866 440.5839
ENERGY: 500000 1.4886 4.9072 5.7033 0.0000 -13583.5242 2303.1411 0.0000 0.0000 889.4688 -10378.8152 150.9616 -11268.2840 -10377.3450 149.9645 230.2892 305.6001 29128.6602 4.7192 4.6146
TCL: Running 100000 steps at 180 kelvin.
TCL: Setting parameter langevinTemp to 180
TCL: Running for 100000 steps
ETITLE: TS BOND ANGLE DIHED IMPRP ELECT VDW BOUNDARY MISC KINETIC TOTAL TEMP POTENTIAL TOTAL3 TEMPAVG PRESSURE GPRESSURE VOLUME PRESSAVG GPRESSAVG
ENERGY: 500000 1.4886 4.9072 5.7033 0.0000 -13583.5242 2303.1411 0.0000 0.0000 889.0254 -10379.2586 150.8863 -11268.2840 -10377.6093 150.8863 246.8207 304.8286 29128.6602 246.8207 304.8286
ENERGY: 600000 1.6259 8.7329 6.4068 0.0000 -13136.5083 2137.6544 0.0000 0.0000 1082.5505 -9899.5378 183.7316 -10982.0883 -9896.8270 179.8992 96.9992 129.0361 29087.4986 5.4466 5.4078
TCL: Running 100000 steps at 210 kelvin.
TCL: Setting parameter langevinTemp to 210
TCL: Running for 100000 steps
ETITLE: TS BOND ANGLE DIHED IMPRP ELECT VDW BOUNDARY MISC KINETIC TOTAL TEMP POTENTIAL TOTAL3 TEMPAVG PRESSURE GPRESSURE VOLUME PRESSAVG GPRESSAVG
ENERGY: 600000 1.6259 8.7329 6.4068 0.0000 -13136.5083 2137.6544 0.0000 0.0000 1082.0091 -9900.0793 183.6397 -10982.0883 -9898.1330 183.6397 76.0891 128.7608 29087.4986 76.0891 128.7608
ENERGY: 700000 1.9486 7.8680 6.7817 0.0000 -12429.2097 1897.8867 0.0000 0.0000 1264.7178 -9250.0069 214.6492 -10514.7247 -9246.9419 209.7971 26.8767 123.2281 28699.1712 5.0133 5.0329
TCL: Running 100000 steps at 240 kelvin.
TCL: Setting parameter langevinTemp to 240
TCL: Running for 100000 steps
ETITLE: TS BOND ANGLE DIHED IMPRP ELECT VDW BOUNDARY MISC KINETIC TOTAL TEMP POTENTIAL TOTAL3 TEMPAVG PRESSURE GPRESSURE VOLUME PRESSAVG GPRESSAVG
ENERGY: 700000 1.9486 7.8680 6.7817 0.0000 -12429.2097 1897.8867 0.0000 0.0000 1264.0847 -9250.6400 214.5418 -10514.7247 -9248.0626 214.5418 46.9108 123.2472 28699.1712 46.9108 123.2472
ENERGY: 800000 1.0204 8.8827 6.0908 0.0000 -11687.2471 1637.3426 0.0000 0.0000 1426.7204 -8607.1903 242.1445 -10033.9107 -8604.8874 239.9013 -373.4357 -315.6710 28908.7163 4.8798 4.8970
TCL: Running 100000 steps at 270 kelvin.
TCL: Setting parameter langevinTemp to 270
TCL: Running for 100000 steps
ETITLE: TS BOND ANGLE DIHED IMPRP ELECT VDW BOUNDARY MISC KINETIC TOTAL TEMP POTENTIAL TOTAL3 TEMPAVG PRESSURE GPRESSURE VOLUME PRESSAVG GPRESSAVG
ENERGY: 800000 1.0204 8.8827 6.0908 0.0000 -11687.2471 1637.3426 0.0000 0.0000 1426.0109 -8607.8998 242.0241 -10033.9107 -8605.5541 242.0241 -408.6791 -315.0099 28908.7163 -408.6791 -315.0099
ENERGY: 900000 1.8140 13.3235 6.8157 0.0000 -11469.0603 1786.6526 0.0000 0.0000 1566.0289 -8094.4256 265.7881 -9660.4545 -8091.6132 269.3598 1613.2724 1743.6748 29522.0492 3.4939 3.5448
TCL: Running 1000000 steps at 300 kelvin.
TCL: Setting parameter langevinTemp to 300
TCL: Running for 1000000 steps
ETITLE: TS BOND ANGLE DIHED IMPRP ELECT VDW BOUNDARY MISC KINETIC TOTAL TEMP POTENTIAL TOTAL3 TEMPAVG PRESSURE GPRESSURE VOLUME PRESSAVG GPRESSAVG
ENERGY: 900000 1.8140 13.3235 6.8157 0.0000 -11469.0603 1786.6526 0.0000 0.0000 1565.2655 -8095.1890 265.6585 -9660.4545 -8092.9616 265.6585 1655.9559 1743.5155 29522.0492 1655.9559 1743.5155
ENERGY: 1100000 1.4788 9.2381 5.8287 0.0000 -10634.3334 1387.8607 0.0000 0.0000 1778.2499 -7451.6771 301.8064 -9229.9270 -7446.6693 300.4345 -502.1567 -427.8699 30975.7036 3.3239 3.4352
ENERGY: 1300000 1.9283 13.2631 8.1725 0.0000 -10582.3362 1374.3234 0.0000 0.0000 1806.4623 -7378.1867 306.5947 -9184.6491 -7373.7288 299.7795 -488.9589 -410.1538 30719.7418 3.0677 2.8295
ENERGY: 1500000 2.5177 8.5800 6.5804 0.0000 -10550.6270 1352.6886 0.0000 0.0000 1830.0476 -7350.2128 310.5976 -9180.2604 -7345.2207 300.0744 -869.1561 -751.6087 31177.6722 2.4586 2.4973
ENERGY: 1700000 0.3233 10.0853 6.1249 0.0000 -10688.4019 1385.7804 0.0000 0.0000 1786.2934 -7499.7946 303.1716 -9286.0880 -7495.1410 300.6653 -530.2532 -455.7956 30649.4324 2.3877 2.3312
ENERGY: 1900000 1.3355 16.8589 6.4266 0.0000 -10694.5647 1496.2782 0.0000 0.0000 1763.2492 -7410.4163 299.2605 -9173.6655 -7407.7272 300.1645 507.4213 560.2776 30940.3482 1.0107 1.1250
TCL: Exiting due to exit command.
