Info: SIMULATION PARAMETERS:
Info: TIMESTEP               2
Info: NUMBER OF STEPS        0
Info: STEPS PER CYCLE        10
Info: PERIODIC CELL BASIS 1  32.265 0 0
Info: PERIODIC CELL BASIS 2  0 34.26 0
Info: PERIODIC CELL BASIS 3  0 0 39.119
Info: PERIODIC CELL CENTER   0 0 0
Info: WRAPPING WATERS AROUND PERIODIC BOUNDARIES ON OUTPUT.
Info: WRAPPING ALL CLUSTERS AROUND PERIODIC BOUNDARIES ON OUTPUT.
Info: FIRST LDB TIMESTEP     50
Info: LAST LDB TIMESTEP     -1
Info: HOM BACKGROUND SCALING 1
Info: PME BACKGROUND SCALING 1
Info: MIN ATOMS PER PATCH    40
Info: EMPTY PATCH LOAD       40 ATOMS
Info: INITIAL TEMPERATURE    300
Info: CENTER OF MASS MOVING INITIALLY? NO
Info: DIELECTRIC             1
Info: EXCLUDE                SCALED ONE-FOUR
Info: 1-4 ELECTROSTATICS SCALED BY 0.833333
Info: MODIFIED 1-4 VDW PARAMETERS WILL BE USED
Info: DCD FILENAME           mobley_5538249_equil.dcd
Info: DCD FREQUENCY          100000
Info: DCD FIRST STEP         100000
Info: DCD FILE WILL CONTAIN UNIT CELL DATA
Info: XST FILENAME           mobley_5538249_equil.xst
Info: XST FREQUENCY          100000
Info: NO VELOCITY DCD OUTPUT
Info: NO FORCE DCD OUTPUT
Info: OUTPUT FILENAME        mobley_5538249_equil
Info: BINARY OUTPUT FILES WILL BE USED
Info: RESTART FILENAME       mobley_5538249_equil.restart
Info: RESTART FREQUENCY      100000
Info: BINARY RESTART FILES WILL BE USED
Info: CUTOFF                 9
Info: PAIRLIST DISTANCE      11
Info: PAIRLIST SHRINK RATE   0.01
Info: PAIRLIST GROW RATE     0.01
Info: PAIRLIST TRIGGER       0.3
Info: PAIRLISTS PER CYCLE    2
Info: PAIRLISTS ENABLED
Info: MARGIN                 8
Info: HYDROGEN GROUP CUTOFF  2.5
Info: PATCH DIMENSION        21.5
Info: ENERGY OUTPUT STEPS    100000
Info: ENERGY EVALUATION STEPS    100000
Info: OUTPUT ENERGY PRECISION 4
Info: CROSSTERM ENERGY INCLUDED IN DIHEDRAL
Info: TIMING OUTPUT STEPS    1000000
Info: PRESSURE OUTPUT STEPS  100000
Info: LANGEVIN DYNAMICS ACTIVE
Info: LANGEVIN TEMPERATURE   30
Info: LANGEVIN USING BBK INTEGRATOR
Info: LANGEVIN DAMPING COEFFICIENT IS 1 INVERSE PS
Info: LANGEVIN DYNAMICS APPLIED TO HYDROGENS
Info: LANGEVIN PISTON PRESSURE CONTROL ACTIVE
Info:        TARGET PRESSURE IS 1.01325 BAR
Info:     OSCILLATION PERIOD IS 50 FS
Info:             DECAY TIME IS 25 FS
Info:     PISTON TEMPERATURE IS 300 K
Info:       PRESSURE CONTROL IS GROUP-BASED
Info:    INITIAL STRAIN RATE IS 0 0 0
Info:       CELL FLUCTUATION IS ISOTROPIC
Info: PARTICLE MESH EWALD (PME) ACTIVE
Info: PME TOLERANCE               1e-06
Info: PME EWALD COEFFICIENT       0.348832
Info: PME INTERPOLATION ORDER     4
Info: PME GRID DIMENSIONS         36 36 40
Info: PME MAXIMUM GRID SPACING    1
Info: FULL ELECTROSTATIC EVALUATION FREQUENCY      2
Info: USING VERLET I (r-RESPA) MTS SCHEME.
Info: C1 SPLITTING OF LONG RANGE ELECTROSTATICS
Info: PLACING ATOMS IN PATCHES BY HYDROGEN GROUPS
Info: RIGID BONDS TO HYDROGEN : ALL
Info:         ERROR TOLERANCE : 1e-08
Info:          MAX ITERATIONS : 100
Info: RIGID WATER USING SETTLE ALGORITHM
Info: RANDOM NUMBER SEED     1743234504
Info: USE HYDROGEN BONDS?    NO
Info: Using AMBER format force field!
Info: AMBER PARM FILE        mobley_5538249.prmtop
Info: COORDINATE PDB         mobley_5538249.pdb
Info: Exclusions will be read from PARM file!
Info: SCNB (VDW SCALING)     2
Info: USING ARITHMETIC MEAN TO COMBINE L-J SIGMA PARAMETERS
Info: BINARY COORDINATES     mobley_5538249_min.coor
Info: SUMMARY OF PARAMETERS:
Info: 7 BONDS
Info: 8 ANGLES
Info:   8 HARMONIC
Info:   0 COSINE-BASED
Info: 3 DIHEDRAL
Info: 0 IMPROPER
Info: 0 CROSSTERM
Info: 0 VDW
Info: 15 VDW_PAIRS
Info: 0 NBTHOLE_PAIRS
Info: STRUCTURE SUMMARY:
Info: 2914 ATOMS
Info: 2915 BONDS
Info: 36 ANGLES
Info: 64 DIHEDRALS
Info: 0 IMPROPERS
Info: 0 CROSSTERMS
Info: 2997 EXCLUSIONS
Info: 2899 RIGID BONDS
Info: 5843 DEGREES OF FREEDOM
Info: 979 HYDROGEN GROUPS
Info: 3 ATOMS IN LARGEST HYDROGEN GROUP
Info: 979 MIGRATION GROUPS
Info: 3 ATOMS IN LARGEST MIGRATION GROUP
Info: TOTAL MASS = 17625 amu
Info: TOTAL CHARGE = 1.11759e-08 e
Info: MASS DENSITY = 0.676831 g/cm^3
Info: ATOM DENSITY = 0.067388 atoms/A^3
Info: ADDED 0 IMPLICIT EXCLUSIONS
Info: NONBONDED TABLE R-SQUARED SPACING: 0.0625
Info: NONBONDED TABLE SIZE: 705 POINTS
Info: REMOVING COM VELOCITY -0.179088 0.187969 0.0762798
TCL: Running for 100000 steps
ETITLE: TS BOND ANGLE DIHED IMPRP ELECT VDW BOUNDARY MISC KINETIC TOTAL TEMP POTENTIAL TOTAL3 TEMPAVG PRESSURE GPRESSURE VOLUME PRESSAVG GPRESSAVG
ENERGY: 0 0.4568 0.3851 5.8862 0.0000 -13370.5086 2326.3333 0.0000 0.0000 1820.1304 -9217.3168 313.5140 -11037.4472 -9216.9783 313.5140 432.9439 477.6865 43242.0996 432.9439 477.6865
ENERGY: 100000 1.7005 1.7432 7.1985 0.0000 -13787.8200 2248.0404 0.0000 0.0000 174.5380 -11354.5994 30.0638 -11529.1375 -11353.9717 30.9873 -1447.0121 -1408.0236 28763.1819 4.2169 4.2860
TCL: Running 100000 steps at 60 kelvin.
TCL: Setting parameter langevinTemp to 60
TCL: Running for 100000 steps
ETITLE: TS BOND ANGLE DIHED IMPRP ELECT VDW BOUNDARY MISC KINETIC TOTAL TEMP POTENTIAL TOTAL3 TEMPAVG PRESSURE GPRESSURE VOLUME PRESSAVG GPRESSAVG
ENERGY: 100000 1.7005 1.7432 7.1985 0.0000 -13787.8200 2248.0404 0.0000 0.0000 174.4495 -11354.6880 30.0486 -11529.1375 -11354.2792 30.0486 -1466.0099 -1408.0203 28763.1819 -1466.0099 -1408.0203
ENERGY: 200000 1.8976 2.9913 5.4911 0.0000 -13858.1697 2356.9931 0.0000 0.0000 342.9122 -11147.8844 59.0660 -11490.7965 -11147.1092 59.9187 -369.2778 -276.6561 28624.3201 4.1182 4.1834
TCL: Running 100000 steps at 90 kelvin.
TCL: Setting parameter langevinTemp to 90
TCL: Running for 100000 steps
ETITLE: TS BOND ANGLE DIHED IMPRP ELECT VDW BOUNDARY MISC KINETIC TOTAL TEMP POTENTIAL TOTAL3 TEMPAVG PRESSURE GPRESSURE VOLUME PRESSAVG GPRESSAVG
ENERGY: 200000 1.8976 2.9913 5.4911 0.0000 -13858.1697 2356.9931 0.0000 0.0000 342.7474 -11148.0491 59.0376 -11490.7965 -11147.2915 59.0376 -338.6784 -276.5662 28624.3201 -338.6784 -276.5662
ENERGY: 300000 1.9941 2.3517 5.5930 0.0000 -13766.9405 2385.6792 0.0000 0.0000 524.6244 -10846.6980 90.3656 -11371.3224 -10846.1827 89.9512 432.7040 529.1379 28498.5724 3.8911 3.8577
TCL: Running 100000 steps at 120 kelvin.
TCL: Setting parameter langevinTemp to 120
TCL: Running for 100000 steps
ETITLE: TS BOND ANGLE DIHED IMPRP ELECT VDW BOUNDARY MISC KINETIC TOTAL TEMP POTENTIAL TOTAL3 TEMPAVG PRESSURE GPRESSURE VOLUME PRESSAVG GPRESSAVG
ENERGY: 300000 1.9941 2.3517 5.5930 0.0000 -13766.9405 2385.6792 0.0000 0.0000 524.3635 -10846.9589 90.3206 -11371.3224 -10845.8885 90.3206 467.2666 528.7502 28498.5724 467.2666 528.7502
ENERGY: 400000 1.9916 3.9019 7.9284 0.0000 -13467.3303 2215.1753 0.0000 0.0000 691.8337 -10546.4992 119.1671 -11238.3330 -10545.2540 119.8884 -405.4391 -364.0896 28378.8360 4.0505 4.2319
TCL: Running 100000 steps at 150 kelvin.
TCL: Setting parameter langevinTemp to 150
TCL: Running for 100000 steps
ETITLE: TS BOND ANGLE DIHED IMPRP ELECT VDW BOUNDARY MISC KINETIC TOTAL TEMP POTENTIAL TOTAL3 TEMPAVG PRESSURE GPRESSURE VOLUME PRESSAVG GPRESSAVG
ENERGY: 400000 1.9916 3.9019 7.9284 0.0000 -13467.3303 2215.1753 0.0000 0.0000 691.4987 -10546.8342 119.1094 -11238.3330 -10545.2402 119.1094 -405.1059 -364.0268 28378.8360 -405.1059 -364.0268
ENERGY: 500000 2.6248 4.5276 7.8643 0.0000 -13226.1105 2114.0247 0.0000 0.0000 873.4334 -10223.6356 150.4473 -11097.0691 -10220.7518 150.2703 -996.0612 -933.1821 28683.0110 2.7354 2.6294
TCL: Running 100000 steps at 180 kelvin.
TCL: Setting parameter langevinTemp to 180
TCL: Running for 100000 steps
ETITLE: TS BOND ANGLE DIHED IMPRP ELECT VDW BOUNDARY MISC KINETIC TOTAL TEMP POTENTIAL TOTAL3 TEMPAVG PRESSURE GPRESSURE VOLUME PRESSAVG GPRESSAVG
ENERGY: 500000 2.6248 4.5276 7.8643 0.0000 -13226.1105 2114.0247 0.0000 0.0000 873.0021 -10224.0670 150.3730 -11097.0691 -10222.1612 150.3730 -977.5153 -932.5783 28683.0110 -977.5153 -932.5783
ENERGY: 600000 3.5841 2.5405 11.8179 0.0000 -12930.0925 2069.1368 0.0000 0.0000 1017.3857 -9825.6275 175.2428 -10843.0132 -9824.1554 179.9241 -592.2789 -530.3974 28799.4970 3.9288 3.8185
TCL: Running 100000 steps at 210 kelvin.
TCL: Setting parameter langevinTemp to 210
TCL: Running for 100000 steps
ETITLE: TS BOND ANGLE DIHED IMPRP ELECT VDW BOUNDARY MISC KINETIC TOTAL TEMP POTENTIAL TOTAL3 TEMPAVG PRESSURE GPRESSURE VOLUME PRESSAVG GPRESSAVG
ENERGY: 600000 3.5841 2.5405 11.8179 0.0000 -12930.0925 2069.1368 0.0000 0.0000 1016.8743 -9826.1389 175.1547 -10843.0132 -9823.7408 175.1547 -600.5492 -532.3804 28799.4970 -600.5492 -532.3804
ENERGY: 700000 4.2716 4.1990 8.6617 0.0000 -12253.4505 1909.9718 0.0000 0.0000 1206.2475 -9120.0989 207.7739 -10326.3464 -9118.8005 210.0242 386.7610 474.8936 28508.6777 3.6969 3.6906
TCL: Running 100000 steps at 240 kelvin.
TCL: Setting parameter langevinTemp to 240
TCL: Running for 100000 steps
ETITLE: TS BOND ANGLE DIHED IMPRP ELECT VDW BOUNDARY MISC KINETIC TOTAL TEMP POTENTIAL TOTAL3 TEMPAVG PRESSURE GPRESSURE VOLUME PRESSAVG GPRESSAVG
ENERGY: 700000 4.2716 4.1990 8.6617 0.0000 -12253.4505 1909.9718 0.0000 0.0000 1205.6296 -9120.7168 207.6674 -10326.3464 -9118.1662 207.6674 388.0955 471.1533 28508.6777 388.0955 471.1533
ENERGY: 800000 4.2812 5.2696 14.1269 0.0000 -11763.2160 1828.7391 0.0000 0.0000 1392.0369 -8518.7624 239.7757 -9910.7992 -8514.6107 239.7536 1463.1506 1499.9463 28415.9643 3.5668 3.5268
TCL: Running 100000 steps at 270 kelvin.
TCL: Setting parameter langevinTemp to 270
TCL: Running for 100000 steps
ETITLE: TS BOND ANGLE DIHED IMPRP ELECT VDW BOUNDARY MISC KINETIC TOTAL TEMP POTENTIAL TOTAL3 TEMPAVG PRESSURE GPRESSURE VOLUME PRESSAVG GPRESSAVG
ENERGY: 800000 4.2812 5.2696 14.1269 0.0000 -11763.2160 1828.7391 0.0000 0.0000 1391.3381 -8519.4612 239.6554 -9910.7992 -8517.7896 239.6554 1426.2459 1501.8860 28415.9643 1426.2459 1501.8860
ENERGY: 900000 4.5972 7.0194 9.7881 0.0000 -11111.9229 1523.2844 0.0000 0.0000 1555.7416 -8011.4922 267.9736 -9567.2338 -8008.3528 270.2528 -407.5064 -324.1713 29436.5519 3.7586 3.9116
TCL: Running 1000000 steps at 300 kelvin.
TCL: Setting parameter langevinTemp to 300
TCL: Running for 1000000 steps
ETITLE: TS BOND ANGLE DIHED IMPRP ELECT VDW BOUNDARY MISC KINETIC TOTAL TEMP POTENTIAL TOTAL3 TEMPAVG PRESSURE GPRESSURE VOLUME PRESSAVG GPRESSAVG
ENERGY: 900000 4.5972 7.0194 9.7881 0.0000 -11111.9229 1523.2844 0.0000 0.0000 1555.0099 -8012.2239 267.8475 -9567.2338 -8009.6695 267.8475 -414.3285 -325.2900 29436.5519 -414.3285 -325.2900
ENERGY: 1100000 5.3902 7.8049 12.0687 0.0000 -10563.7870 1412.6960 0.0000 0.0000 1773.9975 -7351.8298 305.5677 -9125.8273 -7350.3390 300.6443 -33.2629 4.7944 30331.8875 2.6612 2.6160
ENERGY: 1300000 2.7521 4.0809 10.3297 0.0000 -10534.8195 1472.3147 0.0000 0.0000 1730.4840 -7314.8580 298.0726 -9045.3421 -7310.4072 299.8164 1273.8085 1295.0071 29306.2819 3.3936 3.3870
ENERGY: 1500000 6.5265 6.4361 14.8284 0.0000 -10645.9345 1445.7692 0.0000 0.0000 1760.1576 -7412.2166 303.1838 -9172.3742 -7409.4482 300.1240 -115.1376 39.1800 29919.0121 3.6107 3.4974
ENERGY: 1700000 8.3245 9.4780 13.0071 0.0000 -10489.4425 1413.7261 0.0000 0.0000 1665.5893 -7379.3176 286.8946 -9044.9069 -7375.7142 300.7592 -121.5349 -33.1617 30206.4608 3.2401 3.3549
ENERGY: 1900000 5.1853 9.2652 11.8619 0.0000 -10648.6384 1457.7092 0.0000 0.0000 1741.6710 -7422.9458 299.9996 -9164.6168 -7419.6252 299.9605 47.3277 187.6749 30186.7696 3.7033 3.8590
TCL: Exiting due to exit command.
