Info: SIMULATION PARAMETERS:
Info: TIMESTEP               2
Info: NUMBER OF STEPS        0
Info: STEPS PER CYCLE        10
Info: PERIODIC CELL BASIS 1  34.986 0 0
Info: PERIODIC CELL BASIS 2  0 34.26 0
Info: PERIODIC CELL BASIS 3  0 0 37.195
Info: PERIODIC CELL CENTER   0 0 0
Info: WRAPPING WATERS AROUND PERIODIC BOUNDARIES ON OUTPUT.
Info: WRAPPING ALL CLUSTERS AROUND PERIODIC BOUNDARIES ON OUTPUT.
Info: FIRST LDB TIMESTEP     50
Info: LAST LDB TIMESTEP     -1
Info: HOM BACKGROUND SCALING 1
Info: PME BACKGROUND SCALING 1
Info: MIN ATOMS PER PATCH    40
Info: EMPTY PATCH LOAD       40 ATOMS
Info: INITIAL TEMPERATURE    300
Info: CENTER OF MASS MOVING INITIALLY? NO
Info: DIELECTRIC             1
Info: EXCLUDE                SCALED ONE-FOUR
Info: 1-4 ELECTROSTATICS SCALED BY 0.833333
Info: MODIFIED 1-4 VDW PARAMETERS WILL BE USED
Info: DCD FILENAME           mobley_5600967_equil.dcd
Info: DCD FREQUENCY          100000
Info: DCD FIRST STEP         100000
Info: DCD FILE WILL CONTAIN UNIT CELL DATA
Info: XST FILENAME           mobley_5600967_equil.xst
Info: XST FREQUENCY          100000
Info: NO VELOCITY DCD OUTPUT
Info: NO FORCE DCD OUTPUT
Info: OUTPUT FILENAME        mobley_5600967_equil
Info: BINARY OUTPUT FILES WILL BE USED
Info: RESTART FILENAME       mobley_5600967_equil.restart
Info: RESTART FREQUENCY      100000
Info: BINARY RESTART FILES WILL BE USED
Info: CUTOFF                 9
Info: PAIRLIST DISTANCE      11
Info: PAIRLIST SHRINK RATE   0.01
Info: PAIRLIST GROW RATE     0.01
Info: PAIRLIST TRIGGER       0.3
Info: PAIRLISTS PER CYCLE    2
Info: PAIRLISTS ENABLED
Info: MARGIN                 8
Info: HYDROGEN GROUP CUTOFF  2.5
Info: PATCH DIMENSION        21.5
Info: ENERGY OUTPUT STEPS    100000
Info: ENERGY EVALUATION STEPS    100000
Info: OUTPUT ENERGY PRECISION 4
Info: CROSSTERM ENERGY INCLUDED IN DIHEDRAL
Info: TIMING OUTPUT STEPS    1000000
Info: PRESSURE OUTPUT STEPS  100000
Info: LANGEVIN DYNAMICS ACTIVE
Info: LANGEVIN TEMPERATURE   30
Info: LANGEVIN USING BBK INTEGRATOR
Info: LANGEVIN DAMPING COEFFICIENT IS 1 INVERSE PS
Info: LANGEVIN DYNAMICS APPLIED TO HYDROGENS
Info: LANGEVIN PISTON PRESSURE CONTROL ACTIVE
Info:        TARGET PRESSURE IS 1.01325 BAR
Info:     OSCILLATION PERIOD IS 50 FS
Info:             DECAY TIME IS 25 FS
Info:     PISTON TEMPERATURE IS 300 K
Info:       PRESSURE CONTROL IS GROUP-BASED
Info:    INITIAL STRAIN RATE IS 0 0 0
Info:       CELL FLUCTUATION IS ISOTROPIC
Info: PARTICLE MESH EWALD (PME) ACTIVE
Info: PME TOLERANCE               1e-06
Info: PME EWALD COEFFICIENT       0.348832
Info: PME INTERPOLATION ORDER     4
Info: PME GRID DIMENSIONS         36 36 40
Info: PME MAXIMUM GRID SPACING    1
Info: FULL ELECTROSTATIC EVALUATION FREQUENCY      2
Info: USING VERLET I (r-RESPA) MTS SCHEME.
Info: C1 SPLITTING OF LONG RANGE ELECTROSTATICS
Info: PLACING ATOMS IN PATCHES BY HYDROGEN GROUPS
Info: RIGID BONDS TO HYDROGEN : ALL
Info:         ERROR TOLERANCE : 1e-08
Info:          MAX ITERATIONS : 100
Info: RIGID WATER USING SETTLE ALGORITHM
Info: RANDOM NUMBER SEED     1743246867
Info: USE HYDROGEN BONDS?    NO
Info: Using AMBER format force field!
Info: AMBER PARM FILE        mobley_5600967.prmtop
Info: COORDINATE PDB         mobley_5600967.pdb
Info: Exclusions will be read from PARM file!
Info: SCNB (VDW SCALING)     2
Info: USING ARITHMETIC MEAN TO COMBINE L-J SIGMA PARAMETERS
Info: BINARY COORDINATES     mobley_5600967_min.coor
Info: SUMMARY OF PARAMETERS:
Info: 11 BONDS
Info: 13 ANGLES
Info:   13 HARMONIC
Info:   0 COSINE-BASED
Info: 8 DIHEDRAL
Info: 0 IMPROPER
Info: 0 CROSSTERM
Info: 0 VDW
Info: 45 VDW_PAIRS
Info: 0 NBTHOLE_PAIRS
Info: STRUCTURE SUMMARY:
Info: 2954 ATOMS
Info: 2954 BONDS
Info: 43 ANGLES
Info: 57 DIHEDRALS
Info: 0 IMPROPERS
Info: 0 CROSSTERMS
Info: 3043 EXCLUSIONS
Info: 2941 RIGID BONDS
Info: 5921 DEGREES OF FREEDOM
Info: 989 HYDROGEN GROUPS
Info: 4 ATOMS IN LARGEST HYDROGEN GROUP
Info: 989 MIGRATION GROUPS
Info: 4 ATOMS IN LARGEST MIGRATION GROUP
Info: TOTAL MASS = 17762.8 amu
Info: TOTAL CHARGE = -0.000299979 e
Info: MASS DENSITY = 0.661615 g/cm^3
Info: ATOM DENSITY = 0.0662589 atoms/A^3
Info: ADDED 0 IMPLICIT EXCLUSIONS
Info: NONBONDED TABLE R-SQUARED SPACING: 0.0625
Info: NONBONDED TABLE SIZE: 705 POINTS
Info: REMOVING COM VELOCITY 0.0103755 0.0129223 0.0345106
TCL: Running for 100000 steps
ETITLE: TS BOND ANGLE DIHED IMPRP ELECT VDW BOUNDARY MISC KINETIC TOTAL TEMP POTENTIAL TOTAL3 TEMPAVG PRESSURE GPRESSURE VOLUME PRESSAVG GPRESSAVG
ENERGY: 0 0.5836 2.0633 5.0231 0.0000 -13613.7036 2421.9704 0.0000 0.0000 1766.7392 -9417.3239 300.3086 -11184.0631 -9416.9597 300.3086 620.1163 654.4633 44582.6843 620.1163 654.4633
ENERGY: 100000 1.8338 2.9761 6.0361 0.0000 -14180.8143 2453.1809 0.0000 0.0000 177.5373 -11539.2502 30.1776 -11716.7875 -11538.8306 31.0126 -289.4569 -250.7922 29194.4266 3.2320 3.2770
TCL: Running 100000 steps at 60 kelvin.
TCL: Setting parameter langevinTemp to 60
TCL: Running for 100000 steps
ETITLE: TS BOND ANGLE DIHED IMPRP ELECT VDW BOUNDARY MISC KINETIC TOTAL TEMP POTENTIAL TOTAL3 TEMPAVG PRESSURE GPRESSURE VOLUME PRESSAVG GPRESSAVG
ENERGY: 100000 1.8338 2.9761 6.0361 0.0000 -14180.8143 2453.1809 0.0000 0.0000 177.4536 -11539.3339 30.1634 -11716.7875 -11538.9869 30.1634 -306.6954 -250.7197 29194.4266 -306.6954 -250.7197
ENERGY: 200000 0.9693 3.0221 8.0072 0.0000 -14077.9191 2381.0498 0.0000 0.0000 350.9807 -11333.8900 59.6593 -11684.8706 -11333.0488 59.8508 -539.2486 -486.7378 28913.9954 3.7592 3.7379
TCL: Running 100000 steps at 90 kelvin.
TCL: Setting parameter langevinTemp to 90
TCL: Running for 100000 steps
ETITLE: TS BOND ANGLE DIHED IMPRP ELECT VDW BOUNDARY MISC KINETIC TOTAL TEMP POTENTIAL TOTAL3 TEMPAVG PRESSURE GPRESSURE VOLUME PRESSAVG GPRESSAVG
ENERGY: 200000 0.9693 3.0221 8.0072 0.0000 -14077.9191 2381.0498 0.0000 0.0000 350.8116 -11334.0590 59.6306 -11684.8706 -11333.2947 59.6306 -546.1436 -486.6474 28913.9954 -546.1436 -486.6474
ENERGY: 300000 1.7510 3.9332 9.0847 0.0000 -13903.4706 2336.6888 0.0000 0.0000 534.2228 -11017.7902 90.8067 -11552.0130 -11016.5988 89.9517 -388.2765 -342.5293 29008.5700 3.9218 3.9820
TCL: Running 100000 steps at 120 kelvin.
TCL: Setting parameter langevinTemp to 120
TCL: Running for 100000 steps
ETITLE: TS BOND ANGLE DIHED IMPRP ELECT VDW BOUNDARY MISC KINETIC TOTAL TEMP POTENTIAL TOTAL3 TEMPAVG PRESSURE GPRESSURE VOLUME PRESSAVG GPRESSAVG
ENERGY: 300000 1.7510 3.9332 9.0847 0.0000 -13903.4706 2336.6888 0.0000 0.0000 533.9514 -11018.0616 90.7605 -11552.0130 -11016.9368 90.7605 -406.6692 -343.2835 29008.5700 -406.6692 -343.2835
ENERGY: 400000 3.0185 3.6777 9.6816 0.0000 -13689.4036 2288.6917 0.0000 0.0000 757.2624 -10627.0717 128.7187 -11384.3341 -10624.5619 120.2606 -295.0585 -221.9499 29142.4805 2.2726 2.3611
TCL: Running 100000 steps at 150 kelvin.
TCL: Setting parameter langevinTemp to 150
TCL: Running for 100000 steps
ETITLE: TS BOND ANGLE DIHED IMPRP ELECT VDW BOUNDARY MISC KINETIC TOTAL TEMP POTENTIAL TOTAL3 TEMPAVG PRESSURE GPRESSURE VOLUME PRESSAVG GPRESSAVG
ENERGY: 400000 3.0185 3.6777 9.6816 0.0000 -13689.4036 2288.6917 0.0000 0.0000 756.9173 -10627.4168 128.6601 -11384.3341 -10625.6844 128.6601 -283.9034 -221.3044 29142.4805 -283.9034 -221.3044
ENERGY: 500000 2.4439 5.1083 7.1291 0.0000 -13614.1897 2333.3680 0.0000 0.0000 881.3963 -10384.7441 149.8189 -11266.1403 -10383.0731 149.7585 782.9359 871.6411 28765.6188 3.2573 3.2455
TCL: Running 100000 steps at 180 kelvin.
TCL: Setting parameter langevinTemp to 180
TCL: Running for 100000 steps
ETITLE: TS BOND ANGLE DIHED IMPRP ELECT VDW BOUNDARY MISC KINETIC TOTAL TEMP POTENTIAL TOTAL3 TEMPAVG PRESSURE GPRESSURE VOLUME PRESSAVG GPRESSAVG
ENERGY: 500000 2.4439 5.1083 7.1291 0.0000 -13614.1897 2333.3680 0.0000 0.0000 880.9811 -10385.1592 149.7483 -11266.1403 -10383.5363 149.7483 828.0477 870.9022 28765.6188 828.0477 870.9022
ENERGY: 600000 1.9196 7.0444 8.5454 0.0000 -12969.9011 2039.8825 0.0000 0.0000 1046.0909 -9866.4182 177.8135 -10912.5091 -9863.8000 179.9532 -292.0476 -174.2189 28862.0526 4.1783 4.4528
TCL: Running 100000 steps at 210 kelvin.
TCL: Setting parameter langevinTemp to 210
TCL: Running for 100000 steps
ETITLE: TS BOND ANGLE DIHED IMPRP ELECT VDW BOUNDARY MISC KINETIC TOTAL TEMP POTENTIAL TOTAL3 TEMPAVG PRESSURE GPRESSURE VOLUME PRESSAVG GPRESSAVG
ENERGY: 600000 1.9196 7.0444 8.5454 0.0000 -12969.9011 2039.8825 0.0000 0.0000 1045.5728 -9866.9363 177.7254 -10912.5091 -9864.8251 177.7254 -243.5789 -173.8110 28862.0526 -243.5789 -173.8110
ENERGY: 700000 4.7596 7.7501 8.7340 0.0000 -12356.6873 1873.8075 0.0000 0.0000 1271.4651 -9190.1710 216.1224 -10461.6361 -9186.4562 210.0921 -286.7310 -182.5995 28860.0403 3.2213 3.2828
TCL: Running 100000 steps at 240 kelvin.
TCL: Setting parameter langevinTemp to 240
TCL: Running for 100000 steps
ETITLE: TS BOND ANGLE DIHED IMPRP ELECT VDW BOUNDARY MISC KINETIC TOTAL TEMP POTENTIAL TOTAL3 TEMPAVG PRESSURE GPRESSURE VOLUME PRESSAVG GPRESSAVG
ENERGY: 700000 4.7596 7.7501 8.7340 0.0000 -12356.6873 1873.8075 0.0000 0.0000 1270.8767 -9190.7593 216.0224 -10461.6361 -9188.8884 216.0224 -253.4955 -180.2833 28860.0403 -253.4955 -180.2833
ENERGY: 800000 3.6471 12.4142 11.3036 0.0000 -11750.5995 1684.3207 0.0000 0.0000 1405.5355 -8633.3785 238.9116 -10038.9140 -8629.1468 239.9125 -263.7067 -277.4999 29554.1142 3.6646 3.5043
TCL: Running 100000 steps at 270 kelvin.
TCL: Setting parameter langevinTemp to 270
TCL: Running for 100000 steps
ETITLE: TS BOND ANGLE DIHED IMPRP ELECT VDW BOUNDARY MISC KINETIC TOTAL TEMP POTENTIAL TOTAL3 TEMPAVG PRESSURE GPRESSURE VOLUME PRESSAVG GPRESSAVG
ENERGY: 800000 3.6471 12.4142 11.3036 0.0000 -11750.5995 1684.3207 0.0000 0.0000 1404.8477 -8634.0663 238.7946 -10038.9140 -8631.4916 238.7946 -361.7360 -275.1955 29554.1142 -361.7360 -275.1955
ENERGY: 900000 4.5105 11.2702 6.4389 0.0000 -11005.5555 1450.8663 0.0000 0.0000 1619.1388 -7913.3308 275.2196 -9532.4696 -7910.0636 269.5656 -445.9999 -395.3888 29881.8308 4.3311 4.2131
TCL: Running 1000000 steps at 300 kelvin.
TCL: Setting parameter langevinTemp to 300
TCL: Running for 1000000 steps
ETITLE: TS BOND ANGLE DIHED IMPRP ELECT VDW BOUNDARY MISC KINETIC TOTAL TEMP POTENTIAL TOTAL3 TEMPAVG PRESSURE GPRESSURE VOLUME PRESSAVG GPRESSAVG
ENERGY: 900000 4.5105 11.2702 6.4389 0.0000 -11005.5555 1450.8663 0.0000 0.0000 1618.3146 -7914.1550 275.0795 -9532.4696 -7911.7439 275.0795 -466.4721 -395.7297 29881.8308 -466.4721 -395.7297
ENERGY: 1100000 4.9415 11.2130 11.5226 0.0000 -10768.3362 1504.9850 0.0000 0.0000 1788.0370 -7447.6370 303.9288 -9235.6740 -7446.5804 300.0949 278.9160 373.6222 30764.6155 3.2384 3.2598
ENERGY: 1300000 1.9945 8.3761 14.4167 0.0000 -10782.1634 1479.0822 0.0000 0.0000 1703.9179 -7574.3761 289.6303 -9278.2939 -7572.3123 299.0291 -73.2847 31.3856 30866.5593 2.6367 2.7357
ENERGY: 1500000 2.3101 8.1842 7.2956 0.0000 -10719.2809 1468.5476 0.0000 0.0000 1813.5388 -7419.4048 308.2635 -9232.9435 -7416.9558 300.0437 355.0286 449.5236 30485.5920 2.0823 2.2734
ENERGY: 1700000 4.2909 4.7724 14.3066 0.0000 -10728.7004 1439.2826 0.0000 0.0000 1768.7036 -7497.3444 300.6425 -9266.0479 -7493.4236 299.7020 163.5136 256.6508 29895.2457 2.2895 2.4544
ENERGY: 1900000 4.6770 12.9970 9.3168 0.0000 -10669.9297 1409.5085 0.0000 0.0000 1734.1261 -7499.3043 294.7651 -9233.4305 -7496.8542 300.4712 -213.5405 -169.4624 30541.2801 3.9299 4.0079
TCL: Exiting due to exit command.
