Info: SIMULATION PARAMETERS:
Info: TIMESTEP               2
Info: NUMBER OF STEPS        0
Info: STEPS PER CYCLE        10
Info: PERIODIC CELL BASIS 1  35.89 0 0
Info: PERIODIC CELL BASIS 2  0 33.399 0
Info: PERIODIC CELL BASIS 3  0 0 37.195
Info: PERIODIC CELL CENTER   0 0 0
Info: WRAPPING WATERS AROUND PERIODIC BOUNDARIES ON OUTPUT.
Info: WRAPPING ALL CLUSTERS AROUND PERIODIC BOUNDARIES ON OUTPUT.
Info: FIRST LDB TIMESTEP     50
Info: LAST LDB TIMESTEP     -1
Info: HOM BACKGROUND SCALING 1
Info: PME BACKGROUND SCALING 1
Info: MIN ATOMS PER PATCH    40
Info: EMPTY PATCH LOAD       40 ATOMS
Info: INITIAL TEMPERATURE    300
Info: CENTER OF MASS MOVING INITIALLY? NO
Info: DIELECTRIC             1
Info: EXCLUDE                SCALED ONE-FOUR
Info: 1-4 ELECTROSTATICS SCALED BY 0.833333
Info: MODIFIED 1-4 VDW PARAMETERS WILL BE USED
Info: DCD FILENAME           mobley_1396156_equil.dcd
Info: DCD FREQUENCY          100000
Info: DCD FIRST STEP         100000
Info: DCD FILE WILL CONTAIN UNIT CELL DATA
Info: XST FILENAME           mobley_1396156_equil.xst
Info: XST FREQUENCY          100000
Info: NO VELOCITY DCD OUTPUT
Info: NO FORCE DCD OUTPUT
Info: OUTPUT FILENAME        mobley_1396156_equil
Info: BINARY OUTPUT FILES WILL BE USED
Info: RESTART FILENAME       mobley_1396156_equil.restart
Info: RESTART FREQUENCY      100000
Info: BINARY RESTART FILES WILL BE USED
Info: CUTOFF                 9
Info: PAIRLIST DISTANCE      11
Info: PAIRLIST SHRINK RATE   0.01
Info: PAIRLIST GROW RATE     0.01
Info: PAIRLIST TRIGGER       0.3
Info: PAIRLISTS PER CYCLE    2
Info: PAIRLISTS ENABLED
Info: MARGIN                 8
Info: HYDROGEN GROUP CUTOFF  2.5
Info: PATCH DIMENSION        21.5
Info: ENERGY OUTPUT STEPS    100000
Info: ENERGY EVALUATION STEPS    100000
Info: OUTPUT ENERGY PRECISION 4
Info: CROSSTERM ENERGY INCLUDED IN DIHEDRAL
Info: TIMING OUTPUT STEPS    1000000
Info: PRESSURE OUTPUT STEPS  100000
Info: LANGEVIN DYNAMICS ACTIVE
Info: LANGEVIN TEMPERATURE   30
Info: LANGEVIN USING BBK INTEGRATOR
Info: LANGEVIN DAMPING COEFFICIENT IS 1 INVERSE PS
Info: LANGEVIN DYNAMICS APPLIED TO HYDROGENS
Info: LANGEVIN PISTON PRESSURE CONTROL ACTIVE
Info:        TARGET PRESSURE IS 1.01325 BAR
Info:     OSCILLATION PERIOD IS 50 FS
Info:             DECAY TIME IS 25 FS
Info:     PISTON TEMPERATURE IS 300 K
Info:       PRESSURE CONTROL IS GROUP-BASED
Info:    INITIAL STRAIN RATE IS 0 0 0
Info:       CELL FLUCTUATION IS ISOTROPIC
Info: PARTICLE MESH EWALD (PME) ACTIVE
Info: PME TOLERANCE               1e-06
Info: PME EWALD COEFFICIENT       0.348832
Info: PME INTERPOLATION ORDER     4
Info: PME GRID DIMENSIONS         36 36 40
Info: PME MAXIMUM GRID SPACING    1
Info: FULL ELECTROSTATIC EVALUATION FREQUENCY      2
Info: USING VERLET I (r-RESPA) MTS SCHEME.
Info: C1 SPLITTING OF LONG RANGE ELECTROSTATICS
Info: PLACING ATOMS IN PATCHES BY HYDROGEN GROUPS
Info: RIGID BONDS TO HYDROGEN : ALL
Info:         ERROR TOLERANCE : 1e-08
Info:          MAX ITERATIONS : 100
Info: RIGID WATER USING SETTLE ALGORITHM
Info: RANDOM NUMBER SEED     1743227803
Info: USE HYDROGEN BONDS?    NO
Info: Using AMBER format force field!
Info: AMBER PARM FILE        mobley_1396156.prmtop
Info: COORDINATE PDB         mobley_1396156.pdb
Info: Exclusions will be read from PARM file!
Info: SCNB (VDW SCALING)     2
Info: USING ARITHMETIC MEAN TO COMBINE L-J SIGMA PARAMETERS
Info: BINARY COORDINATES     mobley_1396156_min.coor
Info: SUMMARY OF PARAMETERS:
Info: 6 BONDS
Info: 5 ANGLES
Info:   5 HARMONIC
Info:   0 COSINE-BASED
Info: 3 DIHEDRAL
Info: 0 IMPROPER
Info: 0 CROSSTERM
Info: 0 VDW
Info: 21 VDW_PAIRS
Info: 0 NBTHOLE_PAIRS
Info: STRUCTURE SUMMARY:
Info: 2960 ATOMS
Info: 2960 BONDS
Info: 21 ANGLES
Info: 34 DIHEDRALS
Info: 0 IMPROPERS
Info: 0 CROSSTERMS
Info: 3006 EXCLUSIONS
Info: 2946 RIGID BONDS
Info: 5934 DEGREES OF FREEDOM
Info: 996 HYDROGEN GROUPS
Info: 3 ATOMS IN LARGEST HYDROGEN GROUP
Info: 996 MIGRATION GROUPS
Info: 3 ATOMS IN LARGEST MIGRATION GROUP
Info: TOTAL MASS = 17987 amu
Info: TOTAL CHARGE = 0.000200011 e
Info: MASS DENSITY = 0.669927 g/cm^3
Info: ATOM DENSITY = 0.0663896 atoms/A^3
Info: ADDED 0 IMPLICIT EXCLUSIONS
Info: NONBONDED TABLE R-SQUARED SPACING: 0.0625
Info: NONBONDED TABLE SIZE: 705 POINTS
Info: REMOVING COM VELOCITY 0.0442025 0.143528 0.275502
TCL: Running for 100000 steps
ETITLE: TS BOND ANGLE DIHED IMPRP ELECT VDW BOUNDARY MISC KINETIC TOTAL TEMP POTENTIAL TOTAL3 TEMPAVG PRESSURE GPRESSURE VOLUME PRESSAVG GPRESSAVG
ENERGY: 0 0.4403 0.1317 4.5346 0.0000 -13651.0399 2434.8277 0.0000 0.0000 1759.2180 -9451.8876 298.3751 -11211.1057 -9451.5350 298.3751 676.0776 711.4953 44585.2786 676.0776 711.4953
ENERGY: 100000 1.0823 0.3706 4.8313 0.0000 -14267.8821 2484.7055 0.0000 0.0000 173.5455 -11603.3469 29.4345 -11776.8924 -11602.9628 30.9236 308.5970 386.3666 28598.8267 5.0873 5.0424
TCL: Running 100000 steps at 60 kelvin.
TCL: Setting parameter langevinTemp to 60
TCL: Running for 100000 steps
ETITLE: TS BOND ANGLE DIHED IMPRP ELECT VDW BOUNDARY MISC KINETIC TOTAL TEMP POTENTIAL TOTAL3 TEMPAVG PRESSURE GPRESSURE VOLUME PRESSAVG GPRESSAVG
ENERGY: 100000 1.0823 0.3706 4.8313 0.0000 -14267.8821 2484.7055 0.0000 0.0000 173.4588 -11603.4335 29.4198 -11776.8924 -11603.0372 29.4198 330.5221 386.3941 28598.8267 330.5221 386.3941
ENERGY: 200000 1.5639 0.6899 5.5955 0.0000 -14104.6915 2355.4032 0.0000 0.0000 355.4309 -11386.0080 60.2834 -11741.4389 -11385.0010 60.0094 -721.9711 -653.0803 28584.5605 1.9218 1.9674
TCL: Running 100000 steps at 90 kelvin.
TCL: Setting parameter langevinTemp to 90
TCL: Running for 100000 steps
ETITLE: TS BOND ANGLE DIHED IMPRP ELECT VDW BOUNDARY MISC KINETIC TOTAL TEMP POTENTIAL TOTAL3 TEMPAVG PRESSURE GPRESSURE VOLUME PRESSAVG GPRESSAVG
ENERGY: 200000 1.5639 0.6899 5.5955 0.0000 -14104.6915 2355.4032 0.0000 0.0000 355.2591 -11386.1798 60.2543 -11741.4389 -11385.3966 60.2543 -694.0465 -652.6179 28584.5605 -694.0465 -652.6179
ENERGY: 300000 1.4301 0.9057 5.0642 0.0000 -14074.5445 2426.8672 0.0000 0.0000 516.2268 -11124.0506 87.5555 -11640.2774 -11122.9648 90.2188 225.9217 264.0589 28572.2490 4.3217 4.3249
TCL: Running 100000 steps at 120 kelvin.
TCL: Setting parameter langevinTemp to 120
TCL: Running for 100000 steps
ETITLE: TS BOND ANGLE DIHED IMPRP ELECT VDW BOUNDARY MISC KINETIC TOTAL TEMP POTENTIAL TOTAL3 TEMPAVG PRESSURE GPRESSURE VOLUME PRESSAVG GPRESSAVG
ENERGY: 300000 1.4301 0.9057 5.0642 0.0000 -14074.5445 2426.8672 0.0000 0.0000 515.9575 -11124.3199 87.5098 -11640.2774 -11123.2113 87.5098 216.3762 263.5305 28572.2490 216.3762 263.5305
ENERGY: 400000 1.3826 0.4443 6.1730 0.0000 -13846.7746 2356.1213 0.0000 0.0000 708.4604 -10774.1929 120.1596 -11482.6534 -10771.6625 120.1909 333.3596 392.6207 28626.8814 4.1854 4.2445
TCL: Running 100000 steps at 150 kelvin.
TCL: Setting parameter langevinTemp to 150
TCL: Running for 100000 steps
ETITLE: TS BOND ANGLE DIHED IMPRP ELECT VDW BOUNDARY MISC KINETIC TOTAL TEMP POTENTIAL TOTAL3 TEMPAVG PRESSURE GPRESSURE VOLUME PRESSAVG GPRESSAVG
ENERGY: 400000 1.3826 0.4443 6.1730 0.0000 -13846.7746 2356.1213 0.0000 0.0000 708.1099 -10774.5435 120.1001 -11482.6534 -10773.2286 120.1001 334.1357 393.4538 28626.8814 334.1357 393.4538
ENERGY: 500000 2.4332 2.6331 5.3776 0.0000 -13723.6219 2352.6899 0.0000 0.0000 898.8873 -10461.6007 152.4573 -11360.4880 -10459.3205 150.0785 702.3019 797.2102 28698.8876 3.4097 3.3944
TCL: Running 100000 steps at 180 kelvin.
TCL: Setting parameter langevinTemp to 180
TCL: Running for 100000 steps
ETITLE: TS BOND ANGLE DIHED IMPRP ELECT VDW BOUNDARY MISC KINETIC TOTAL TEMP POTENTIAL TOTAL3 TEMPAVG PRESSURE GPRESSURE VOLUME PRESSAVG GPRESSAVG
ENERGY: 500000 2.4332 2.6331 5.3776 0.0000 -13723.6219 2352.6899 0.0000 0.0000 898.4416 -10462.0464 152.3817 -11360.4880 -10460.3145 152.3817 745.2916 797.4473 28698.8876 745.2916 797.4473
ENERGY: 600000 6.2837 1.6553 6.5329 0.0000 -13081.2267 2067.4401 0.0000 0.0000 1071.7409 -9927.5740 181.7744 -10999.3148 -9924.1570 179.5801 -689.5533 -679.8975 29319.9131 4.7257 4.7245
TCL: Running 100000 steps at 210 kelvin.
TCL: Setting parameter langevinTemp to 210
TCL: Running for 100000 steps
ETITLE: TS BOND ANGLE DIHED IMPRP ELECT VDW BOUNDARY MISC KINETIC TOTAL TEMP POTENTIAL TOTAL3 TEMPAVG PRESSURE GPRESSURE VOLUME PRESSAVG GPRESSAVG
ENERGY: 600000 6.2837 1.6553 6.5329 0.0000 -13081.2267 2067.4401 0.0000 0.0000 1071.1986 -9928.1162 181.6824 -10999.3148 -9926.1576 181.6824 -742.9038 -680.3466 29319.9131 -742.9038 -680.3466
ENERGY: 700000 3.4865 2.9109 5.6080 0.0000 -12459.5470 1875.4229 0.0000 0.0000 1211.8511 -9360.2677 205.5380 -10572.1187 -9358.0047 209.5469 -63.0219 59.4735 28645.8348 5.8834 5.8277
TCL: Running 100000 steps at 240 kelvin.
TCL: Setting parameter langevinTemp to 240
TCL: Running for 100000 steps
ETITLE: TS BOND ANGLE DIHED IMPRP ELECT VDW BOUNDARY MISC KINETIC TOTAL TEMP POTENTIAL TOTAL3 TEMPAVG PRESSURE GPRESSURE VOLUME PRESSAVG GPRESSAVG
ENERGY: 700000 3.4865 2.9109 5.6080 0.0000 -12459.5470 1875.4229 0.0000 0.0000 1211.2396 -9360.8791 205.4343 -10572.1187 -9358.3645 205.4343 -17.3359 59.1345 28645.8348 -17.3359 59.1345
ENERGY: 800000 2.5708 2.0113 7.2246 0.0000 -11787.9091 1651.2508 0.0000 0.0000 1499.2983 -8625.5533 254.2909 -10124.8517 -8622.2298 239.9939 -640.7637 -520.0570 29423.1573 4.3352 4.4976
TCL: Running 100000 steps at 270 kelvin.
TCL: Setting parameter langevinTemp to 270
TCL: Running for 100000 steps
ETITLE: TS BOND ANGLE DIHED IMPRP ELECT VDW BOUNDARY MISC KINETIC TOTAL TEMP POTENTIAL TOTAL3 TEMPAVG PRESSURE GPRESSURE VOLUME PRESSAVG GPRESSAVG
ENERGY: 800000 2.5708 2.0113 7.2246 0.0000 -11787.9091 1651.2508 0.0000 0.0000 1498.5874 -8626.2643 254.1704 -10124.8517 -8624.2872 254.1704 -605.9121 -520.3064 29423.1573 -605.9121 -520.3064
ENERGY: 900000 3.1492 4.1021 7.7362 0.0000 -11265.7106 1696.1395 0.0000 0.0000 1623.2369 -7931.3467 275.3118 -9554.5836 -7929.6173 270.3221 1496.6666 1575.1089 29918.8778 2.4656 2.5731
TCL: Running 1000000 steps at 300 kelvin.
TCL: Setting parameter langevinTemp to 300
TCL: Running for 1000000 steps
ETITLE: TS BOND ANGLE DIHED IMPRP ELECT VDW BOUNDARY MISC KINETIC TOTAL TEMP POTENTIAL TOTAL3 TEMPAVG PRESSURE GPRESSURE VOLUME PRESSAVG GPRESSAVG
ENERGY: 900000 3.1492 4.1021 7.7362 0.0000 -11265.7106 1696.1395 0.0000 0.0000 1622.4378 -7932.1458 275.1762 -9554.5836 -7930.2875 275.1762 1494.1476 1575.4436 29918.8778 1494.1476 1575.4436
ENERGY: 1100000 5.5741 3.8633 7.3048 0.0000 -10694.3915 1395.2877 0.0000 0.0000 1765.1317 -7517.2299 299.3781 -9282.3616 -7512.3810 300.6125 -5.4322 14.0763 30355.5625 2.2580 2.3568
ENERGY: 1300000 3.9496 3.0767 5.5994 0.0000 -10639.5117 1382.2048 0.0000 0.0000 1764.7719 -7479.9093 299.3170 -9244.6812 -7475.1765 300.3654 -549.7771 -445.6625 30867.8587 3.1626 3.1593
ENERGY: 1500000 5.7295 4.4861 5.9421 0.0000 -10695.3444 1456.8958 0.0000 0.0000 1761.8038 -7460.4871 298.8136 -9222.2909 -7455.9316 299.9595 347.7566 425.8981 30477.4206 4.5842 4.5262
ENERGY: 1700000 4.9150 2.5462 7.9697 0.0000 -10580.5316 1376.7394 0.0000 0.0000 1690.9366 -7497.4248 286.7941 -9188.3614 -7495.6921 300.1844 -59.5489 19.5180 30329.3605 3.3824 3.4836
ENERGY: 1900000 3.7340 2.7640 8.4644 0.0000 -10607.4181 1354.6145 0.0000 0.0000 1785.3733 -7452.4678 302.8112 -9237.8411 -7451.1473 301.0315 -950.7896 -876.2515 31248.1358 2.9802 3.0804
TCL: Exiting due to exit command.
