Info: SIMULATION PARAMETERS:
Info: TIMESTEP               2
Info: NUMBER OF STEPS        0
Info: STEPS PER CYCLE        10
Info: PERIODIC CELL BASIS 1  34.986 0 0
Info: PERIODIC CELL BASIS 2  0 35.411 0
Info: PERIODIC CELL BASIS 3  0 0 35.644
Info: PERIODIC CELL CENTER   0 0 0
Info: WRAPPING WATERS AROUND PERIODIC BOUNDARIES ON OUTPUT.
Info: WRAPPING ALL CLUSTERS AROUND PERIODIC BOUNDARIES ON OUTPUT.
Info: FIRST LDB TIMESTEP     50
Info: LAST LDB TIMESTEP     -1
Info: HOM BACKGROUND SCALING 1
Info: PME BACKGROUND SCALING 1
Info: MIN ATOMS PER PATCH    40
Info: EMPTY PATCH LOAD       40 ATOMS
Info: INITIAL TEMPERATURE    300
Info: CENTER OF MASS MOVING INITIALLY? NO
Info: DIELECTRIC             1
Info: EXCLUDE                SCALED ONE-FOUR
Info: 1-4 ELECTROSTATICS SCALED BY 0.833333
Info: MODIFIED 1-4 VDW PARAMETERS WILL BE USED
Info: DCD FILENAME           mobley_1328465_equil.dcd
Info: DCD FREQUENCY          100000
Info: DCD FIRST STEP         100000
Info: DCD FILE WILL CONTAIN UNIT CELL DATA
Info: XST FILENAME           mobley_1328465_equil.xst
Info: XST FREQUENCY          100000
Info: NO VELOCITY DCD OUTPUT
Info: NO FORCE DCD OUTPUT
Info: OUTPUT FILENAME        mobley_1328465_equil
Info: BINARY OUTPUT FILES WILL BE USED
Info: RESTART FILENAME       mobley_1328465_equil.restart
Info: RESTART FREQUENCY      100000
Info: BINARY RESTART FILES WILL BE USED
Info: CUTOFF                 9
Info: PAIRLIST DISTANCE      11
Info: PAIRLIST SHRINK RATE   0.01
Info: PAIRLIST GROW RATE     0.01
Info: PAIRLIST TRIGGER       0.3
Info: PAIRLISTS PER CYCLE    2
Info: PAIRLISTS ENABLED
Info: MARGIN                 8
Info: HYDROGEN GROUP CUTOFF  2.5
Info: PATCH DIMENSION        21.5
Info: ENERGY OUTPUT STEPS    100000
Info: ENERGY EVALUATION STEPS    100000
Info: OUTPUT ENERGY PRECISION 4
Info: CROSSTERM ENERGY INCLUDED IN DIHEDRAL
Info: TIMING OUTPUT STEPS    1000000
Info: PRESSURE OUTPUT STEPS  100000
Info: LANGEVIN DYNAMICS ACTIVE
Info: LANGEVIN TEMPERATURE   30
Info: LANGEVIN USING BBK INTEGRATOR
Info: LANGEVIN DAMPING COEFFICIENT IS 1 INVERSE PS
Info: LANGEVIN DYNAMICS APPLIED TO HYDROGENS
Info: LANGEVIN PISTON PRESSURE CONTROL ACTIVE
Info:        TARGET PRESSURE IS 1.01325 BAR
Info:     OSCILLATION PERIOD IS 50 FS
Info:             DECAY TIME IS 25 FS
Info:     PISTON TEMPERATURE IS 300 K
Info:       PRESSURE CONTROL IS GROUP-BASED
Info:    INITIAL STRAIN RATE IS 0 0 0
Info:       CELL FLUCTUATION IS ISOTROPIC
Info: PARTICLE MESH EWALD (PME) ACTIVE
Info: PME TOLERANCE               1e-06
Info: PME EWALD COEFFICIENT       0.348832
Info: PME INTERPOLATION ORDER     4
Info: PME GRID DIMENSIONS         36 36 36
Info: PME MAXIMUM GRID SPACING    1
Info: FULL ELECTROSTATIC EVALUATION FREQUENCY      2
Info: USING VERLET I (r-RESPA) MTS SCHEME.
Info: C1 SPLITTING OF LONG RANGE ELECTROSTATICS
Info: PLACING ATOMS IN PATCHES BY HYDROGEN GROUPS
Info: RIGID BONDS TO HYDROGEN : ALL
Info:         ERROR TOLERANCE : 1e-08
Info:          MAX ITERATIONS : 100
Info: RIGID WATER USING SETTLE ALGORITHM
Info: RANDOM NUMBER SEED     1743223406
Info: USE HYDROGEN BONDS?    NO
Info: Using AMBER format force field!
Info: AMBER PARM FILE        mobley_1328465.prmtop
Info: COORDINATE PDB         mobley_1328465.pdb
Info: Exclusions will be read from PARM file!
Info: SCNB (VDW SCALING)     2
Info: USING ARITHMETIC MEAN TO COMBINE L-J SIGMA PARAMETERS
Info: BINARY COORDINATES     mobley_1328465_min.coor
Info: SUMMARY OF PARAMETERS:
Info: 6 BONDS
Info: 7 ANGLES
Info:   7 HARMONIC
Info:   0 COSINE-BASED
Info: 4 DIHEDRAL
Info: 0 IMPROPER
Info: 0 CROSSTERM
Info: 0 VDW
Info: 21 VDW_PAIRS
Info: 0 NBTHOLE_PAIRS
Info: STRUCTURE SUMMARY:
Info: 2951 ATOMS
Info: 2950 BONDS
Info: 12 ANGLES
Info: 15 DIHEDRALS
Info: 0 IMPROPERS
Info: 0 CROSSTERMS
Info: 2971 EXCLUSIONS
Info: 2946 RIGID BONDS
Info: 5907 DEGREES OF FREEDOM
Info: 986 HYDROGEN GROUPS
Info: 3 ATOMS IN LARGEST HYDROGEN GROUP
Info: 986 MIGRATION GROUPS
Info: 3 ATOMS IN LARGEST MIGRATION GROUP
Info: TOTAL MASS = 17807.1 amu
Info: TOTAL CHARGE = -1.86265e-08 e
Info: MASS DENSITY = 0.669628 g/cm^3
Info: ATOM DENSITY = 0.0668267 atoms/A^3
Info: ADDED 0 IMPLICIT EXCLUSIONS
Info: NONBONDED TABLE R-SQUARED SPACING: 0.0625
Info: NONBONDED TABLE SIZE: 705 POINTS
Info: REMOVING COM VELOCITY -0.0488414 0.105218 0.153755
TCL: Running for 100000 steps
ETITLE: TS BOND ANGLE DIHED IMPRP ELECT VDW BOUNDARY MISC KINETIC TOTAL TEMP POTENTIAL TOTAL3 TEMPAVG PRESSURE GPRESSURE VOLUME PRESSAVG GPRESSAVG
ENERGY: 0 0.0175 0.2088 1.2510 0.0000 -13702.0078 2437.5050 0.0000 0.0000 1734.4163 -9528.6091 295.5131 -11263.0255 -9528.2799 295.5131 727.4395 763.7233 44158.9683 727.4395 763.7233
ENERGY: 100000 0.0476 0.2765 1.2508 0.0000 -14210.5191 2460.3497 0.0000 0.0000 176.1589 -11572.4356 30.0143 -11748.5945 -11572.0947 30.8238 67.5718 97.7645 28859.1635 4.2440 4.2348
TCL: Running 100000 steps at 60 kelvin.
TCL: Setting parameter langevinTemp to 60
TCL: Running for 100000 steps
ETITLE: TS BOND ANGLE DIHED IMPRP ELECT VDW BOUNDARY MISC KINETIC TOTAL TEMP POTENTIAL TOTAL3 TEMPAVG PRESSURE GPRESSURE VOLUME PRESSAVG GPRESSAVG
ENERGY: 100000 0.0476 0.2765 1.2508 0.0000 -14210.5191 2460.3497 0.0000 0.0000 176.0728 -11572.5217 29.9996 -11748.5945 -11572.2360 29.9996 60.2959 97.4899 28859.1635 60.2959 97.4899
ENERGY: 200000 0.7077 0.6595 1.3126 0.0000 -14122.8919 2436.6644 0.0000 0.0000 359.0948 -11324.4529 61.1832 -11683.5477 -11323.7977 59.9664 250.8840 278.1559 28879.5041 3.7606 3.8187
TCL: Running 100000 steps at 90 kelvin.
TCL: Setting parameter langevinTemp to 90
TCL: Running for 100000 steps
ETITLE: TS BOND ANGLE DIHED IMPRP ELECT VDW BOUNDARY MISC KINETIC TOTAL TEMP POTENTIAL TOTAL3 TEMPAVG PRESSURE GPRESSURE VOLUME PRESSAVG GPRESSAVG
ENERGY: 200000 0.7077 0.6595 1.3126 0.0000 -14122.8919 2436.6644 0.0000 0.0000 358.9217 -11324.6260 61.1538 -11683.5477 -11323.8682 61.1538 242.1287 278.0654 28879.5041 242.1287 278.0654
ENERGY: 300000 0.2173 1.2825 1.6344 0.0000 -13929.4205 2358.9920 0.0000 0.0000 523.9543 -11043.3400 89.2723 -11567.2943 -11042.1640 90.1083 -187.2830 -122.3740 29006.4931 5.0197 5.0116
TCL: Running 100000 steps at 120 kelvin.
TCL: Setting parameter langevinTemp to 120
TCL: Running for 100000 steps
ETITLE: TS BOND ANGLE DIHED IMPRP ELECT VDW BOUNDARY MISC KINETIC TOTAL TEMP POTENTIAL TOTAL3 TEMPAVG PRESSURE GPRESSURE VOLUME PRESSAVG GPRESSAVG
ENERGY: 300000 0.2173 1.2825 1.6344 0.0000 -13929.4205 2358.9920 0.0000 0.0000 523.6807 -11043.6137 89.2257 -11567.2943 -11042.6045 89.2257 -166.8527 -122.2116 29006.4931 -166.8527 -122.2116
ENERGY: 400000 0.4400 2.1872 1.5285 0.0000 -13894.0736 2397.8459 0.0000 0.0000 708.0992 -10783.9728 120.6473 -11492.0720 -10782.6663 119.7472 296.7418 371.6338 28874.1699 4.0426 4.0259
TCL: Running 100000 steps at 150 kelvin.
TCL: Setting parameter langevinTemp to 150
TCL: Running for 100000 steps
ETITLE: TS BOND ANGLE DIHED IMPRP ELECT VDW BOUNDARY MISC KINETIC TOTAL TEMP POTENTIAL TOTAL3 TEMPAVG PRESSURE GPRESSURE VOLUME PRESSAVG GPRESSAVG
ENERGY: 400000 0.4400 2.1872 1.5285 0.0000 -13894.0736 2397.8459 0.0000 0.0000 707.7517 -10784.3204 120.5881 -11492.0720 -10783.0637 120.5881 311.5930 371.5076 28874.1699 311.5930 371.5076
ENERGY: 500000 1.0037 1.8165 2.5137 0.0000 -13586.7891 2320.3870 0.0000 0.0000 889.6376 -10371.4305 151.5781 -11261.0682 -10369.1136 150.5175 589.3885 662.5047 29133.7964 4.1474 4.0971
TCL: Running 100000 steps at 180 kelvin.
TCL: Setting parameter langevinTemp to 180
TCL: Running for 100000 steps
ETITLE: TS BOND ANGLE DIHED IMPRP ELECT VDW BOUNDARY MISC KINETIC TOTAL TEMP POTENTIAL TOTAL3 TEMPAVG PRESSURE GPRESSURE VOLUME PRESSAVG GPRESSAVG
ENERGY: 500000 1.0037 1.8165 2.5137 0.0000 -13586.7891 2320.3870 0.0000 0.0000 889.1936 -10371.8746 151.5025 -11261.0682 -10370.0835 151.5025 602.3673 663.0857 29133.7964 602.3673 663.0857
ENERGY: 600000 0.5239 3.1852 2.3566 0.0000 -13174.2894 2155.9320 0.0000 0.0000 1065.9520 -9946.3397 181.6189 -11012.2917 -9943.9154 179.8984 311.1013 381.7305 28733.2605 2.9614 2.9749
TCL: Running 100000 steps at 210 kelvin.
TCL: Setting parameter langevinTemp to 210
TCL: Running for 100000 steps
ETITLE: TS BOND ANGLE DIHED IMPRP ELECT VDW BOUNDARY MISC KINETIC TOTAL TEMP POTENTIAL TOTAL3 TEMPAVG PRESSURE GPRESSURE VOLUME PRESSAVG GPRESSAVG
ENERGY: 600000 0.5239 3.1852 2.3566 0.0000 -13174.2894 2155.9320 0.0000 0.0000 1065.4140 -9946.8777 181.5272 -11012.2917 -9945.3866 181.5272 323.9076 380.6752 28733.2605 323.9076 380.6752
ENERGY: 700000 0.8040 2.0481 1.3143 0.0000 -12454.4859 1885.5605 0.0000 0.0000 1204.7691 -9359.9899 205.2708 -10564.7590 -9356.7368 210.1618 -365.0596 -290.3193 29138.4443 4.4167 4.4815
TCL: Running 100000 steps at 240 kelvin.
TCL: Setting parameter langevinTemp to 240
TCL: Running for 100000 steps
ETITLE: TS BOND ANGLE DIHED IMPRP ELECT VDW BOUNDARY MISC KINETIC TOTAL TEMP POTENTIAL TOTAL3 TEMPAVG PRESSURE GPRESSURE VOLUME PRESSAVG GPRESSAVG
ENERGY: 700000 0.8040 2.0481 1.3143 0.0000 -12454.4859 1885.5605 0.0000 0.0000 1204.1930 -9360.5660 205.1727 -10564.7590 -9358.2041 205.1727 -369.8172 -288.8383 29138.4443 -369.8172 -288.8383
ENERGY: 800000 0.7467 2.0741 2.4403 0.0000 -11911.8839 1809.3187 0.0000 0.0000 1412.5639 -8684.7403 240.6753 -10097.3042 -8681.5077 239.7793 875.9906 989.3272 28828.9410 4.1110 4.0944
TCL: Running 100000 steps at 270 kelvin.
TCL: Setting parameter langevinTemp to 270
TCL: Running for 100000 steps
ETITLE: TS BOND ANGLE DIHED IMPRP ELECT VDW BOUNDARY MISC KINETIC TOTAL TEMP POTENTIAL TOTAL3 TEMPAVG PRESSURE GPRESSURE VOLUME PRESSAVG GPRESSAVG
ENERGY: 800000 0.7467 2.0741 2.4403 0.0000 -11911.8839 1809.3187 0.0000 0.0000 1411.8850 -8685.4192 240.5596 -10097.3042 -8683.1641 240.5596 880.0775 989.8119 28828.9410 880.0775 989.8119
ENERGY: 900000 0.7460 1.9297 2.2396 0.0000 -11179.0856 1516.5548 0.0000 0.0000 1606.6473 -8050.9682 273.7436 -9657.6155 -8048.6521 270.2558 -536.5721 -495.9944 30224.3361 4.1989 4.1671
TCL: Running 1000000 steps at 300 kelvin.
TCL: Setting parameter langevinTemp to 300
TCL: Running for 1000000 steps
ETITLE: TS BOND ANGLE DIHED IMPRP ELECT VDW BOUNDARY MISC KINETIC TOTAL TEMP POTENTIAL TOTAL3 TEMPAVG PRESSURE GPRESSURE VOLUME PRESSAVG GPRESSAVG
ENERGY: 900000 0.7460 1.9297 2.2396 0.0000 -11179.0856 1516.5548 0.0000 0.0000 1605.8348 -8051.7807 273.6052 -9657.6155 -8048.4009 273.6052 -599.2175 -497.0600 30224.3361 -599.2175 -497.0600
ENERGY: 1100000 0.8240 3.0709 1.1880 0.0000 -10702.4407 1427.2526 0.0000 0.0000 1773.7888 -7496.3163 302.2215 -9270.1051 -7492.1118 300.4592 -16.9206 29.5407 30336.8372 2.0866 1.7645
ENERGY: 1300000 2.0323 2.0419 1.7297 0.0000 -10541.0515 1335.9888 0.0000 0.0000 1783.2040 -7416.0549 303.8256 -9199.2589 -7414.0660 299.9345 -663.3643 -614.0054 30758.3619 4.2800 4.2590
ENERGY: 1500000 0.6744 1.8887 1.2991 0.0000 -10639.9180 1364.3209 0.0000 0.0000 1810.5522 -7461.1828 308.4853 -9271.7350 -7456.1123 300.2987 -591.7600 -529.3173 30515.6486 3.0803 3.1032
ENERGY: 1700000 5.5491 3.3835 1.3360 0.0000 -10659.5169 1385.7420 0.0000 0.0000 1716.2871 -7547.2193 292.4242 -9263.5064 -7545.4769 300.5037 -320.5525 -268.8034 30374.4284 2.1268 2.1392
ENERGY: 1900000 1.0518 4.0706 1.2187 0.0000 -10658.6210 1385.0209 0.0000 0.0000 1799.4414 -7467.8176 306.5922 -9267.2590 -7466.3602 300.0931 -394.8292 -386.6449 30403.9544 2.6575 2.6174
TCL: Exiting due to exit command.
