Info: SIMULATION PARAMETERS:
Info: TIMESTEP               2
Info: NUMBER OF STEPS        0
Info: STEPS PER CYCLE        10
Info: PERIODIC CELL BASIS 1  36.005 0 0
Info: PERIODIC CELL BASIS 2  0 34.26 0
Info: PERIODIC CELL BASIS 3  0 0 36.488
Info: PERIODIC CELL CENTER   0 0 0
Info: WRAPPING WATERS AROUND PERIODIC BOUNDARIES ON OUTPUT.
Info: WRAPPING ALL CLUSTERS AROUND PERIODIC BOUNDARIES ON OUTPUT.
Info: FIRST LDB TIMESTEP     50
Info: LAST LDB TIMESTEP     -1
Info: HOM BACKGROUND SCALING 1
Info: PME BACKGROUND SCALING 1
Info: MIN ATOMS PER PATCH    40
Info: EMPTY PATCH LOAD       40 ATOMS
Info: INITIAL TEMPERATURE    300
Info: CENTER OF MASS MOVING INITIALLY? NO
Info: DIELECTRIC             1
Info: EXCLUDE                SCALED ONE-FOUR
Info: 1-4 ELECTROSTATICS SCALED BY 0.833333
Info: MODIFIED 1-4 VDW PARAMETERS WILL BE USED
Info: DCD FILENAME           mobley_1571523_equil.dcd
Info: DCD FREQUENCY          100000
Info: DCD FIRST STEP         100000
Info: DCD FILE WILL CONTAIN UNIT CELL DATA
Info: XST FILENAME           mobley_1571523_equil.xst
Info: XST FREQUENCY          100000
Info: NO VELOCITY DCD OUTPUT
Info: NO FORCE DCD OUTPUT
Info: OUTPUT FILENAME        mobley_1571523_equil
Info: BINARY OUTPUT FILES WILL BE USED
Info: RESTART FILENAME       mobley_1571523_equil.restart
Info: RESTART FREQUENCY      100000
Info: BINARY RESTART FILES WILL BE USED
Info: CUTOFF                 9
Info: PAIRLIST DISTANCE      11
Info: PAIRLIST SHRINK RATE   0.01
Info: PAIRLIST GROW RATE     0.01
Info: PAIRLIST TRIGGER       0.3
Info: PAIRLISTS PER CYCLE    2
Info: PAIRLISTS ENABLED
Info: MARGIN                 8
Info: HYDROGEN GROUP CUTOFF  2.5
Info: PATCH DIMENSION        21.5
Info: ENERGY OUTPUT STEPS    100000
Info: ENERGY EVALUATION STEPS    100000
Info: OUTPUT ENERGY PRECISION 4
Info: CROSSTERM ENERGY INCLUDED IN DIHEDRAL
Info: TIMING OUTPUT STEPS    1000000
Info: PRESSURE OUTPUT STEPS  100000
Info: LANGEVIN DYNAMICS ACTIVE
Info: LANGEVIN TEMPERATURE   30
Info: LANGEVIN USING BBK INTEGRATOR
Info: LANGEVIN DAMPING COEFFICIENT IS 1 INVERSE PS
Info: LANGEVIN DYNAMICS APPLIED TO HYDROGENS
Info: LANGEVIN PISTON PRESSURE CONTROL ACTIVE
Info:        TARGET PRESSURE IS 1.01325 BAR
Info:     OSCILLATION PERIOD IS 50 FS
Info:             DECAY TIME IS 25 FS
Info:     PISTON TEMPERATURE IS 300 K
Info:       PRESSURE CONTROL IS GROUP-BASED
Info:    INITIAL STRAIN RATE IS 0 0 0
Info:       CELL FLUCTUATION IS ISOTROPIC
Info: PARTICLE MESH EWALD (PME) ACTIVE
Info: PME TOLERANCE               1e-06
Info: PME EWALD COEFFICIENT       0.348832
Info: PME INTERPOLATION ORDER     4
Info: PME GRID DIMENSIONS         40 36 40
Info: PME MAXIMUM GRID SPACING    1
Info: FULL ELECTROSTATIC EVALUATION FREQUENCY      2
Info: USING VERLET I (r-RESPA) MTS SCHEME.
Info: C1 SPLITTING OF LONG RANGE ELECTROSTATICS
Info: PLACING ATOMS IN PATCHES BY HYDROGEN GROUPS
Info: RIGID BONDS TO HYDROGEN : ALL
Info:         ERROR TOLERANCE : 1e-08
Info:          MAX ITERATIONS : 100
Info: RIGID WATER USING SETTLE ALGORITHM
Info: RANDOM NUMBER SEED     1743216128
Info: USE HYDROGEN BONDS?    NO
Info: Using AMBER format force field!
Info: AMBER PARM FILE        mobley_1571523.prmtop
Info: COORDINATE PDB         mobley_1571523.pdb
Info: Exclusions will be read from PARM file!
Info: SCNB (VDW SCALING)     2
Info: USING ARITHMETIC MEAN TO COMBINE L-J SIGMA PARAMETERS
Info: BINARY COORDINATES     mobley_1571523_min.coor
Info: SUMMARY OF PARAMETERS:
Info: 8 BONDS
Info: 7 ANGLES
Info:   7 HARMONIC
Info:   0 COSINE-BASED
Info: 4 DIHEDRAL
Info: 0 IMPROPER
Info: 0 CROSSTERM
Info: 0 VDW
Info: 28 VDW_PAIRS
Info: 0 NBTHOLE_PAIRS
Info: STRUCTURE SUMMARY:
Info: 2992 ATOMS
Info: 2992 BONDS
Info: 31 ANGLES
Info: 44 DIHEDRALS
Info: 0 IMPROPERS
Info: 0 CROSSTERMS
Info: 3058 EXCLUSIONS
Info: 2983 RIGID BONDS
Info: 5993 DEGREES OF FREEDOM
Info: 1000 HYDROGEN GROUPS
Info: 4 ATOMS IN LARGEST HYDROGEN GROUP
Info: 1000 MIGRATION GROUPS
Info: 4 ATOMS IN LARGEST MIGRATION GROUP
Info: TOTAL MASS = 17976 amu
Info: TOTAL CHARGE = -0.000100031 e
Info: MASS DENSITY = 0.663212 g/cm^3
Info: ATOM DENSITY = 0.0664755 atoms/A^3
Info: ADDED 0 IMPLICIT EXCLUSIONS
Info: NONBONDED TABLE R-SQUARED SPACING: 0.0625
Info: NONBONDED TABLE SIZE: 705 POINTS
Info: REMOVING COM VELOCITY -0.11583 0.0154638 0.209789
TCL: Running for 100000 steps
ETITLE: TS BOND ANGLE DIHED IMPRP ELECT VDW BOUNDARY MISC KINETIC TOTAL TEMP POTENTIAL TOTAL3 TEMPAVG PRESSURE GPRESSURE VOLUME PRESSAVG GPRESSAVG
ENERGY: 0 0.3996 0.4791 0.1449 0.0000 -13793.0694 2431.5499 0.0000 0.0000 1834.1592 -9526.3367 308.0230 -11360.4959 -9525.9680 308.0230 531.6049 570.4030 45009.0901 531.6049 570.4030
ENERGY: 100000 0.6910 1.2167 0.8847 0.0000 -14270.9637 2358.0301 0.0000 0.0000 174.0233 -11736.1179 29.2249 -11910.1412 -11735.6181 30.9586 -1261.1131 -1187.7516 29120.3404 5.5276 5.6253
TCL: Running 100000 steps at 60 kelvin.
TCL: Setting parameter langevinTemp to 60
TCL: Running for 100000 steps
ETITLE: TS BOND ANGLE DIHED IMPRP ELECT VDW BOUNDARY MISC KINETIC TOTAL TEMP POTENTIAL TOTAL3 TEMPAVG PRESSURE GPRESSURE VOLUME PRESSAVG GPRESSAVG
ENERGY: 100000 0.6910 1.2167 0.8847 0.0000 -14270.9637 2358.0301 0.0000 0.0000 173.9323 -11736.2088 29.2097 -11910.1412 -11735.7857 29.2097 -1255.3302 -1187.6776 29120.3404 -1255.3302 -1187.6776
ENERGY: 200000 0.9321 1.5094 1.0734 0.0000 -14191.4267 2376.0139 0.0000 0.0000 351.7759 -11460.1220 59.0762 -11811.8979 -11459.5508 59.9506 -634.1040 -581.8505 28950.4484 4.1040 4.1557
TCL: Running 100000 steps at 90 kelvin.
TCL: Setting parameter langevinTemp to 90
TCL: Running for 100000 steps
ETITLE: TS BOND ANGLE DIHED IMPRP ELECT VDW BOUNDARY MISC KINETIC TOTAL TEMP POTENTIAL TOTAL3 TEMPAVG PRESSURE GPRESSURE VOLUME PRESSAVG GPRESSAVG
ENERGY: 200000 0.9321 1.5094 1.0734 0.0000 -14191.4267 2376.0139 0.0000 0.0000 351.5985 -11460.2994 59.0464 -11811.8979 -11459.6102 59.0464 -637.4676 -581.7652 28950.4484 -637.4676 -581.7652
ENERGY: 300000 0.6280 2.6410 1.4263 0.0000 -14308.8012 2554.1137 0.0000 0.0000 528.1445 -11221.8478 88.6949 -11749.9922 -11219.9081 90.1523 1244.4986 1291.4142 28785.8595 5.3171 5.2625
TCL: Running 100000 steps at 120 kelvin.
TCL: Setting parameter langevinTemp to 120
TCL: Running for 100000 steps
ETITLE: TS BOND ANGLE DIHED IMPRP ELECT VDW BOUNDARY MISC KINETIC TOTAL TEMP POTENTIAL TOTAL3 TEMPAVG PRESSURE GPRESSURE VOLUME PRESSAVG GPRESSAVG
ENERGY: 300000 0.6280 2.6410 1.4263 0.0000 -14308.8012 2554.1137 0.0000 0.0000 527.8721 -11222.1201 88.6492 -11749.9922 -11221.0282 88.6492 1227.6813 1292.3224 28785.8595 1227.6813 1292.3224
ENERGY: 400000 0.8655 2.4207 1.8081 0.0000 -14000.7726 2415.5583 0.0000 0.0000 707.5531 -10872.5669 118.8243 -11580.1199 -10870.4539 120.1140 554.3305 602.7663 29199.0284 5.0676 5.0030
TCL: Running 100000 steps at 150 kelvin.
TCL: Setting parameter langevinTemp to 150
TCL: Running for 100000 steps
ETITLE: TS BOND ANGLE DIHED IMPRP ELECT VDW BOUNDARY MISC KINETIC TOTAL TEMP POTENTIAL TOTAL3 TEMPAVG PRESSURE GPRESSURE VOLUME PRESSAVG GPRESSAVG
ENERGY: 400000 0.8655 2.4207 1.8081 0.0000 -14000.7726 2415.5583 0.0000 0.0000 707.2005 -10872.9194 118.7651 -11580.1199 -10871.5166 118.7651 548.4826 602.9206 29199.0284 548.4826 602.9206
ENERGY: 500000 2.3479 3.4970 1.2746 0.0000 -13724.3820 2258.7777 0.0000 0.0000 879.0368 -10579.4481 147.6227 -11458.4849 -10577.3671 149.9963 -515.3352 -440.2511 29330.8851 4.1770 4.1970
TCL: Running 100000 steps at 180 kelvin.
TCL: Setting parameter langevinTemp to 180
TCL: Running for 100000 steps
ETITLE: TS BOND ANGLE DIHED IMPRP ELECT VDW BOUNDARY MISC KINETIC TOTAL TEMP POTENTIAL TOTAL3 TEMPAVG PRESSURE GPRESSURE VOLUME PRESSAVG GPRESSAVG
ENERGY: 500000 2.3479 3.4970 1.2746 0.0000 -13724.3820 2258.7777 0.0000 0.0000 878.5774 -10579.9075 147.5456 -11458.4849 -10578.0222 147.5456 -498.1522 -440.1661 29330.8851 -498.1522 -440.1661
ENERGY: 600000 1.2355 5.9804 3.3763 0.0000 -13316.0963 2211.5316 0.0000 0.0000 1052.9155 -10041.0569 176.8234 -11093.9724 -10039.9909 179.8652 824.6712 888.6636 28892.4044 4.1620 4.1993
TCL: Running 100000 steps at 210 kelvin.
TCL: Setting parameter langevinTemp to 210
TCL: Running for 100000 steps
ETITLE: TS BOND ANGLE DIHED IMPRP ELECT VDW BOUNDARY MISC KINETIC TOTAL TEMP POTENTIAL TOTAL3 TEMPAVG PRESSURE GPRESSURE VOLUME PRESSAVG GPRESSAVG
ENERGY: 600000 1.2355 5.9804 3.3763 0.0000 -13316.0963 2211.5316 0.0000 0.0000 1052.3780 -10041.5944 176.7331 -11093.9724 -10039.4202 176.7331 821.5309 887.7544 28892.4044 821.5309 887.7544
ENERGY: 700000 3.4265 4.6834 1.7956 0.0000 -12608.9957 1940.2391 0.0000 0.0000 1223.8852 -9434.9660 205.5355 -10658.8512 -9431.8832 210.2582 95.7656 238.1431 28964.8850 4.0707 4.2509
TCL: Running 100000 steps at 240 kelvin.
TCL: Setting parameter langevinTemp to 240
TCL: Running for 100000 steps
ETITLE: TS BOND ANGLE DIHED IMPRP ELECT VDW BOUNDARY MISC KINETIC TOTAL TEMP POTENTIAL TOTAL3 TEMPAVG PRESSURE GPRESSURE VOLUME PRESSAVG GPRESSAVG
ENERGY: 700000 3.4265 4.6834 1.7956 0.0000 -12608.9957 1940.2391 0.0000 0.0000 1223.2688 -9435.5824 205.4320 -10658.8512 -9433.6420 205.4320 151.8404 238.0529 28964.8850 151.8404 238.0529
ENERGY: 800000 2.1714 5.7007 3.4145 0.0000 -11889.0293 1730.1881 0.0000 0.0000 1457.7864 -8689.7681 244.8161 -10147.5546 -8684.6086 240.2063 -55.3393 55.0132 29712.9454 2.7429 2.8142
TCL: Running 100000 steps at 270 kelvin.
TCL: Setting parameter langevinTemp to 270
TCL: Running for 100000 steps
ETITLE: TS BOND ANGLE DIHED IMPRP ELECT VDW BOUNDARY MISC KINETIC TOTAL TEMP POTENTIAL TOTAL3 TEMPAVG PRESSURE GPRESSURE VOLUME PRESSAVG GPRESSAVG
ENERGY: 800000 2.1714 5.7007 3.4145 0.0000 -11889.0293 1730.1881 0.0000 0.0000 1457.0437 -8690.5109 244.6914 -10147.5546 -8688.1098 244.6914 -35.9761 57.0618 29712.9454 -35.9761 57.0618
ENERGY: 900000 2.9255 6.3282 3.7621 0.0000 -11449.2777 1606.9653 0.0000 0.0000 1644.5116 -8184.7850 276.1742 -9829.2965 -8184.0241 269.6892 -18.4719 151.4208 29845.4063 1.3782 1.4301
TCL: Running 1000000 steps at 300 kelvin.
TCL: Setting parameter langevinTemp to 300
TCL: Running for 1000000 steps
ETITLE: TS BOND ANGLE DIHED IMPRP ELECT VDW BOUNDARY MISC KINETIC TOTAL TEMP POTENTIAL TOTAL3 TEMPAVG PRESSURE GPRESSURE VOLUME PRESSAVG GPRESSAVG
ENERGY: 900000 2.9255 6.3282 3.7621 0.0000 -11449.2777 1606.9653 0.0000 0.0000 1643.7043 -8185.5922 276.0386 -9829.2965 -8183.7424 276.0386 46.0991 150.2644 29845.4063 46.0991 150.2644
ENERGY: 1100000 2.2486 5.6827 4.6457 0.0000 -10943.0848 1453.8545 0.0000 0.0000 1731.5763 -7745.0770 290.7955 -9476.6534 -7741.7576 300.6245 -156.0079 -79.4548 30437.6021 2.6284 2.6511
ENERGY: 1300000 4.7268 5.4432 4.0476 0.0000 -10672.0816 1291.4526 0.0000 0.0000 1750.8716 -7615.5397 294.0359 -9366.4114 -7614.6389 300.0728 -1412.2469 -1304.9770 30925.6880 3.2272 3.1824
ENERGY: 1500000 8.2629 6.5376 2.6377 0.0000 -10805.3757 1436.6627 0.0000 0.0000 1797.2124 -7554.0624 301.8183 -9351.2748 -7550.5969 299.9304 -269.1501 -189.6179 30771.9231 2.8521 2.9767
ENERGY: 1700000 1.3772 5.5449 2.9565 0.0000 -10893.2425 1475.8155 0.0000 0.0000 1766.7024 -7640.8461 296.6945 -9407.5485 -7638.5558 299.9064 169.6949 205.5936 30747.3335 4.2065 4.0474
ENERGY: 1900000 1.8311 7.6266 3.1959 0.0000 -11104.8305 1606.5144 0.0000 0.0000 1758.7644 -7726.8981 295.3614 -9485.6625 -7724.4396 300.6379 719.1034 824.3895 30577.4852 3.1810 3.1893
TCL: Exiting due to exit command.
