Info: SIMULATION PARAMETERS:
Info: TIMESTEP               2
Info: NUMBER OF STEPS        0
Info: STEPS PER CYCLE        10
Info: PERIODIC CELL BASIS 1  35.436 0 0
Info: PERIODIC CELL BASIS 2  0 34.26 0
Info: PERIODIC CELL BASIS 3  0 0 36.199
Info: PERIODIC CELL CENTER   0 0 0
Info: WRAPPING WATERS AROUND PERIODIC BOUNDARIES ON OUTPUT.
Info: WRAPPING ALL CLUSTERS AROUND PERIODIC BOUNDARIES ON OUTPUT.
Info: FIRST LDB TIMESTEP     50
Info: LAST LDB TIMESTEP     -1
Info: HOM BACKGROUND SCALING 1
Info: PME BACKGROUND SCALING 1
Info: MIN ATOMS PER PATCH    40
Info: EMPTY PATCH LOAD       40 ATOMS
Info: INITIAL TEMPERATURE    300
Info: CENTER OF MASS MOVING INITIALLY? NO
Info: DIELECTRIC             1
Info: EXCLUDE                SCALED ONE-FOUR
Info: 1-4 ELECTROSTATICS SCALED BY 0.833333
Info: MODIFIED 1-4 VDW PARAMETERS WILL BE USED
Info: DCD FILENAME           mobley_8754702_equil.dcd
Info: DCD FREQUENCY          100000
Info: DCD FIRST STEP         100000
Info: DCD FILE WILL CONTAIN UNIT CELL DATA
Info: XST FILENAME           mobley_8754702_equil.xst
Info: XST FREQUENCY          100000
Info: NO VELOCITY DCD OUTPUT
Info: NO FORCE DCD OUTPUT
Info: OUTPUT FILENAME        mobley_8754702_equil
Info: BINARY OUTPUT FILES WILL BE USED
Info: RESTART FILENAME       mobley_8754702_equil.restart
Info: RESTART FREQUENCY      100000
Info: BINARY RESTART FILES WILL BE USED
Info: CUTOFF                 9
Info: PAIRLIST DISTANCE      11
Info: PAIRLIST SHRINK RATE   0.01
Info: PAIRLIST GROW RATE     0.01
Info: PAIRLIST TRIGGER       0.3
Info: PAIRLISTS PER CYCLE    2
Info: PAIRLISTS ENABLED
Info: MARGIN                 8
Info: HYDROGEN GROUP CUTOFF  2.5
Info: PATCH DIMENSION        21.5
Info: ENERGY OUTPUT STEPS    100000
Info: ENERGY EVALUATION STEPS    100000
Info: OUTPUT ENERGY PRECISION 4
Info: CROSSTERM ENERGY INCLUDED IN DIHEDRAL
Info: TIMING OUTPUT STEPS    1000000
Info: PRESSURE OUTPUT STEPS  100000
Info: LANGEVIN DYNAMICS ACTIVE
Info: LANGEVIN TEMPERATURE   30
Info: LANGEVIN USING BBK INTEGRATOR
Info: LANGEVIN DAMPING COEFFICIENT IS 1 INVERSE PS
Info: LANGEVIN DYNAMICS APPLIED TO HYDROGENS
Info: LANGEVIN PISTON PRESSURE CONTROL ACTIVE
Info:        TARGET PRESSURE IS 1.01325 BAR
Info:     OSCILLATION PERIOD IS 50 FS
Info:             DECAY TIME IS 25 FS
Info:     PISTON TEMPERATURE IS 300 K
Info:       PRESSURE CONTROL IS GROUP-BASED
Info:    INITIAL STRAIN RATE IS 0 0 0
Info:       CELL FLUCTUATION IS ISOTROPIC
Info: PARTICLE MESH EWALD (PME) ACTIVE
Info: PME TOLERANCE               1e-06
Info: PME EWALD COEFFICIENT       0.348832
Info: PME INTERPOLATION ORDER     4
Info: PME GRID DIMENSIONS         36 36 40
Info: PME MAXIMUM GRID SPACING    1
Info: FULL ELECTROSTATIC EVALUATION FREQUENCY      2
Info: USING VERLET I (r-RESPA) MTS SCHEME.
Info: C1 SPLITTING OF LONG RANGE ELECTROSTATICS
Info: PLACING ATOMS IN PATCHES BY HYDROGEN GROUPS
Info: RIGID BONDS TO HYDROGEN : ALL
Info:         ERROR TOLERANCE : 1e-08
Info:          MAX ITERATIONS : 100
Info: RIGID WATER USING SETTLE ALGORITHM
Info: RANDOM NUMBER SEED     1743247825
Info: USE HYDROGEN BONDS?    NO
Info: Using AMBER format force field!
Info: AMBER PARM FILE        mobley_8754702.prmtop
Info: COORDINATE PDB         mobley_8754702.pdb
Info: Exclusions will be read from PARM file!
Info: SCNB (VDW SCALING)     2
Info: USING ARITHMETIC MEAN TO COMBINE L-J SIGMA PARAMETERS
Info: BINARY COORDINATES     mobley_8754702_min.coor
Info: SUMMARY OF PARAMETERS:
Info: 9 BONDS
Info: 11 ANGLES
Info:   11 HARMONIC
Info:   0 COSINE-BASED
Info: 11 DIHEDRAL
Info: 0 IMPROPER
Info: 0 CROSSTERM
Info: 0 VDW
Info: 45 VDW_PAIRS
Info: 0 NBTHOLE_PAIRS
Info: STRUCTURE SUMMARY:
Info: 2981 ATOMS
Info: 2980 BONDS
Info: 22 ANGLES
Info: 28 DIHEDRALS
Info: 0 IMPROPERS
Info: 0 CROSSTERMS
Info: 3025 EXCLUSIONS
Info: 2975 RIGID BONDS
Info: 5968 DEGREES OF FREEDOM
Info: 995 HYDROGEN GROUPS
Info: 4 ATOMS IN LARGEST HYDROGEN GROUP
Info: 995 MIGRATION GROUPS
Info: 4 ATOMS IN LARGEST MIGRATION GROUP
Info: TOTAL MASS = 17905.9 amu
Info: TOTAL CHARGE = -0.000100043 e
Info: MASS DENSITY = 0.676593 g/cm^3
Info: ATOM DENSITY = 0.0678318 atoms/A^3
Info: ADDED 0 IMPLICIT EXCLUSIONS
Info: NONBONDED TABLE R-SQUARED SPACING: 0.0625
Info: NONBONDED TABLE SIZE: 705 POINTS
Info: REMOVING COM VELOCITY -0.011314 0.160438 -0.0249417
TCL: Running for 100000 steps
ETITLE: TS BOND ANGLE DIHED IMPRP ELECT VDW BOUNDARY MISC KINETIC TOTAL TEMP POTENTIAL TOTAL3 TEMPAVG PRESSURE GPRESSURE VOLUME PRESSAVG GPRESSAVG
ENERGY: 0 0.0670 0.2230 2.5348 0.0000 -13780.4701 2416.5550 0.0000 0.0000 1798.6832 -9562.4070 303.3306 -11361.0902 -9562.0363 303.3306 336.6191 376.3082 43946.9384 336.6191 376.3082
ENERGY: 100000 0.2477 0.4702 2.4113 0.0000 -14296.8019 2435.1646 0.0000 0.0000 180.9152 -11677.5930 30.5096 -11858.5082 -11677.0515 30.8735 -512.6998 -464.7797 29400.5893 4.4550 4.4201
TCL: Running 100000 steps at 60 kelvin.
TCL: Setting parameter langevinTemp to 60
TCL: Running for 100000 steps
ETITLE: TS BOND ANGLE DIHED IMPRP ELECT VDW BOUNDARY MISC KINETIC TOTAL TEMP POTENTIAL TOTAL3 TEMPAVG PRESSURE GPRESSURE VOLUME PRESSAVG GPRESSAVG
ENERGY: 100000 0.2477 0.4702 2.4113 0.0000 -14296.8019 2435.1646 0.0000 0.0000 180.8281 -11677.6801 30.4949 -11858.5082 -11677.2963 30.4949 -504.5346 -464.5486 29400.5893 -504.5346 -464.5486
ENERGY: 200000 0.3637 1.9476 2.9078 0.0000 -14334.7472 2544.8844 0.0000 0.0000 356.9994 -11427.6442 60.2045 -11784.6437 -11427.1464 59.9855 917.2843 961.7156 28735.6657 4.3358 4.3247
TCL: Running 100000 steps at 90 kelvin.
TCL: Setting parameter langevinTemp to 90
TCL: Running for 100000 steps
ETITLE: TS BOND ANGLE DIHED IMPRP ELECT VDW BOUNDARY MISC KINETIC TOTAL TEMP POTENTIAL TOTAL3 TEMPAVG PRESSURE GPRESSURE VOLUME PRESSAVG GPRESSAVG
ENERGY: 200000 0.3637 1.9476 2.9078 0.0000 -14334.7472 2544.8844 0.0000 0.0000 356.8247 -11427.8190 60.1750 -11784.6437 -11427.0946 60.1750 905.5470 961.2805 28735.6657 905.5470 961.2805
ENERGY: 300000 0.5848 2.5522 3.0000 0.0000 -14132.8095 2425.5495 0.0000 0.0000 531.4512 -11169.6717 89.6241 -11701.1229 -11167.4587 90.0036 247.5092 271.4704 28831.0553 3.4177 3.4583
TCL: Running 100000 steps at 120 kelvin.
TCL: Setting parameter langevinTemp to 120
TCL: Running for 100000 steps
ETITLE: TS BOND ANGLE DIHED IMPRP ELECT VDW BOUNDARY MISC KINETIC TOTAL TEMP POTENTIAL TOTAL3 TEMPAVG PRESSURE GPRESSURE VOLUME PRESSAVG GPRESSAVG
ENERGY: 300000 0.5848 2.5522 3.0000 0.0000 -14132.8095 2425.5495 0.0000 0.0000 531.1827 -11169.9402 89.5788 -11701.1229 -11168.9474 89.5788 219.3395 272.4404 28831.0553 219.3395 272.4404
ENERGY: 400000 0.4591 1.8237 3.4848 0.0000 -13928.8244 2362.9020 0.0000 0.0000 710.0202 -10850.1347 119.7381 -11560.1549 -10848.5093 119.9342 311.3041 357.3970 28764.0676 4.7080 4.7414
TCL: Running 100000 steps at 150 kelvin.
TCL: Setting parameter langevinTemp to 150
TCL: Running for 100000 steps
ETITLE: TS BOND ANGLE DIHED IMPRP ELECT VDW BOUNDARY MISC KINETIC TOTAL TEMP POTENTIAL TOTAL3 TEMPAVG PRESSURE GPRESSURE VOLUME PRESSAVG GPRESSAVG
ENERGY: 400000 0.4591 1.8237 3.4848 0.0000 -13928.8244 2362.9020 0.0000 0.0000 709.6759 -10850.4790 119.6800 -11560.1549 -10848.9195 119.6800 293.6296 356.4621 28764.0676 293.6296 356.4621
ENERGY: 500000 0.6158 3.0426 2.4733 0.0000 -13719.0857 2299.7456 0.0000 0.0000 885.9256 -10527.2828 149.4028 -11413.2084 -10524.2940 149.9816 311.5776 338.6027 28867.8926 5.7398 5.8758
TCL: Running 100000 steps at 180 kelvin.
TCL: Setting parameter langevinTemp to 180
TCL: Running for 100000 steps
ETITLE: TS BOND ANGLE DIHED IMPRP ELECT VDW BOUNDARY MISC KINETIC TOTAL TEMP POTENTIAL TOTAL3 TEMPAVG PRESSURE GPRESSURE VOLUME PRESSAVG GPRESSAVG
ENERGY: 500000 0.6158 3.0426 2.4733 0.0000 -13719.0857 2299.7456 0.0000 0.0000 885.4761 -10527.7323 149.3270 -11413.2084 -10526.2926 149.3270 293.8666 339.4201 28867.8926 293.8666 339.4201
ENERGY: 600000 0.3468 3.4225 3.0150 0.0000 -13098.3593 2012.1422 0.0000 0.0000 1085.5868 -9993.8459 183.0738 -11079.4327 -9990.9220 179.8007 -1307.5670 -1211.6939 29748.6778 4.4815 4.5236
TCL: Running 100000 steps at 210 kelvin.
TCL: Setting parameter langevinTemp to 210
TCL: Running for 100000 steps
ETITLE: TS BOND ANGLE DIHED IMPRP ELECT VDW BOUNDARY MISC KINETIC TOTAL TEMP POTENTIAL TOTAL3 TEMPAVG PRESSURE GPRESSURE VOLUME PRESSAVG GPRESSAVG
ENERGY: 600000 0.3468 3.4225 3.0150 0.0000 -13098.3593 2012.1422 0.0000 0.0000 1085.0577 -9994.3751 182.9845 -11079.4327 -9992.1156 182.9845 -1286.1565 -1212.0926 29748.6778 -1286.1565 -1212.0926
ENERGY: 700000 0.4360 3.3402 2.6186 0.0000 -12549.2296 1842.4624 0.0000 0.0000 1252.3000 -9448.0724 211.1883 -10700.3724 -9445.0076 209.9014 -914.6622 -851.8180 29260.0308 4.7168 4.8580
TCL: Running 100000 steps at 240 kelvin.
TCL: Setting parameter langevinTemp to 240
TCL: Running for 100000 steps
ETITLE: TS BOND ANGLE DIHED IMPRP ELECT VDW BOUNDARY MISC KINETIC TOTAL TEMP POTENTIAL TOTAL3 TEMPAVG PRESSURE GPRESSURE VOLUME PRESSAVG GPRESSAVG
ENERGY: 700000 0.4360 3.3402 2.6186 0.0000 -12549.2296 1842.4624 0.0000 0.0000 1251.7023 -9448.6700 211.0876 -10700.3724 -9446.4197 211.0876 -930.0890 -853.2261 29260.0308 -930.0890 -853.2261
ENERGY: 800000 2.2941 4.0938 3.3735 0.0000 -11913.4268 1705.7359 0.0000 0.0000 1433.1666 -8764.7629 241.6898 -10197.9295 -8762.9188 240.3253 -264.2431 -172.0834 29262.5696 4.6045 4.7086
TCL: Running 100000 steps at 270 kelvin.
TCL: Setting parameter langevinTemp to 270
TCL: Running for 100000 steps
ETITLE: TS BOND ANGLE DIHED IMPRP ELECT VDW BOUNDARY MISC KINETIC TOTAL TEMP POTENTIAL TOTAL3 TEMPAVG PRESSURE GPRESSURE VOLUME PRESSAVG GPRESSAVG
ENERGY: 800000 2.2941 4.0938 3.3735 0.0000 -11913.4268 1705.7359 0.0000 0.0000 1432.4724 -8765.4571 241.5727 -10197.9295 -8762.9987 241.5727 -242.0340 -173.9950 29262.5696 -242.0340 -173.9950
ENERGY: 900000 2.4558 4.7148 2.7473 0.0000 -11450.6237 1642.5271 0.0000 0.0000 1621.3446 -8176.8340 273.4242 -9798.1787 -8176.0712 269.3324 297.7603 409.5834 29716.5000 3.4758 3.4693
TCL: Running 1000000 steps at 300 kelvin.
TCL: Setting parameter langevinTemp to 300
TCL: Running for 1000000 steps
ETITLE: TS BOND ANGLE DIHED IMPRP ELECT VDW BOUNDARY MISC KINETIC TOTAL TEMP POTENTIAL TOTAL3 TEMPAVG PRESSURE GPRESSURE VOLUME PRESSAVG GPRESSAVG
ENERGY: 900000 2.4558 4.7148 2.7473 0.0000 -11450.6237 1642.5271 0.0000 0.0000 1620.5414 -8177.6372 273.2887 -9798.1787 -8175.3600 273.2887 331.8346 408.8021 29716.5000 331.8346 408.8021
ENERGY: 1100000 1.4313 6.8955 1.8221 0.0000 -10931.7270 1520.3266 0.0000 0.0000 1788.3568 -7612.8947 301.5892 -9401.2515 -7605.9808 299.8125 207.1842 277.4982 31041.4950 4.9483 5.0471
ENERGY: 1300000 1.1049 4.5117 3.2561 0.0000 -10679.3969 1379.4186 0.0000 0.0000 1752.4645 -7538.6412 295.5363 -9291.1056 -7534.6861 300.1630 -574.9861 -612.1658 31325.5107 2.8131 2.8571
ENERGY: 1500000 1.8512 4.0176 3.2216 0.0000 -10833.4287 1485.5209 0.0000 0.0000 1784.5755 -7554.2419 300.9515 -9338.8174 -7552.9264 300.4917 377.9205 470.8131 30344.0095 3.6465 3.6825
ENERGY: 1700000 1.1309 9.1666 3.4907 0.0000 -10881.2177 1529.6254 0.0000 0.0000 1836.2287 -7501.5754 309.6623 -9337.8040 -7500.3138 300.6353 458.9910 572.7879 30877.0016 2.3962 2.3216
ENERGY: 1900000 0.5024 3.5659 1.9237 0.0000 -10638.0853 1427.1363 0.0000 0.0000 1747.9430 -7457.0140 294.7738 -9204.9571 -7450.2839 299.9946 104.8203 146.2495 30794.1112 3.5618 3.5842
TCL: Exiting due to exit command.
