Info: SIMULATION PARAMETERS:
Info: TIMESTEP               2
Info: NUMBER OF STEPS        0
Info: STEPS PER CYCLE        10
Info: PERIODIC CELL BASIS 1  32.955 0 0
Info: PERIODIC CELL BASIS 2  0 34.26 0
Info: PERIODIC CELL BASIS 3  0 0 38.379
Info: PERIODIC CELL CENTER   0 0 0
Info: WRAPPING WATERS AROUND PERIODIC BOUNDARIES ON OUTPUT.
Info: WRAPPING ALL CLUSTERS AROUND PERIODIC BOUNDARIES ON OUTPUT.
Info: FIRST LDB TIMESTEP     50
Info: LAST LDB TIMESTEP     -1
Info: HOM BACKGROUND SCALING 1
Info: PME BACKGROUND SCALING 1
Info: MIN ATOMS PER PATCH    40
Info: EMPTY PATCH LOAD       40 ATOMS
Info: INITIAL TEMPERATURE    300
Info: CENTER OF MASS MOVING INITIALLY? NO
Info: DIELECTRIC             1
Info: EXCLUDE                SCALED ONE-FOUR
Info: 1-4 ELECTROSTATICS SCALED BY 0.833333
Info: MODIFIED 1-4 VDW PARAMETERS WILL BE USED
Info: DCD FILENAME           mobley_2792521_equil.dcd
Info: DCD FREQUENCY          100000
Info: DCD FIRST STEP         100000
Info: DCD FILE WILL CONTAIN UNIT CELL DATA
Info: XST FILENAME           mobley_2792521_equil.xst
Info: XST FREQUENCY          100000
Info: NO VELOCITY DCD OUTPUT
Info: NO FORCE DCD OUTPUT
Info: OUTPUT FILENAME        mobley_2792521_equil
Info: BINARY OUTPUT FILES WILL BE USED
Info: RESTART FILENAME       mobley_2792521_equil.restart
Info: RESTART FREQUENCY      100000
Info: BINARY RESTART FILES WILL BE USED
Info: CUTOFF                 9
Info: PAIRLIST DISTANCE      11
Info: PAIRLIST SHRINK RATE   0.01
Info: PAIRLIST GROW RATE     0.01
Info: PAIRLIST TRIGGER       0.3
Info: PAIRLISTS PER CYCLE    2
Info: PAIRLISTS ENABLED
Info: MARGIN                 8
Info: HYDROGEN GROUP CUTOFF  2.5
Info: PATCH DIMENSION        21.5
Info: ENERGY OUTPUT STEPS    100000
Info: ENERGY EVALUATION STEPS    100000
Info: OUTPUT ENERGY PRECISION 4
Info: CROSSTERM ENERGY INCLUDED IN DIHEDRAL
Info: TIMING OUTPUT STEPS    1000000
Info: PRESSURE OUTPUT STEPS  100000
Info: LANGEVIN DYNAMICS ACTIVE
Info: LANGEVIN TEMPERATURE   30
Info: LANGEVIN USING BBK INTEGRATOR
Info: LANGEVIN DAMPING COEFFICIENT IS 1 INVERSE PS
Info: LANGEVIN DYNAMICS APPLIED TO HYDROGENS
Info: LANGEVIN PISTON PRESSURE CONTROL ACTIVE
Info:        TARGET PRESSURE IS 1.01325 BAR
Info:     OSCILLATION PERIOD IS 50 FS
Info:             DECAY TIME IS 25 FS
Info:     PISTON TEMPERATURE IS 300 K
Info:       PRESSURE CONTROL IS GROUP-BASED
Info:    INITIAL STRAIN RATE IS 0 0 0
Info:       CELL FLUCTUATION IS ISOTROPIC
Info: PARTICLE MESH EWALD (PME) ACTIVE
Info: PME TOLERANCE               1e-06
Info: PME EWALD COEFFICIENT       0.348832
Info: PME INTERPOLATION ORDER     4
Info: PME GRID DIMENSIONS         36 36 40
Info: PME MAXIMUM GRID SPACING    1
Info: FULL ELECTROSTATIC EVALUATION FREQUENCY      2
Info: USING VERLET I (r-RESPA) MTS SCHEME.
Info: C1 SPLITTING OF LONG RANGE ELECTROSTATICS
Info: PLACING ATOMS IN PATCHES BY HYDROGEN GROUPS
Info: RIGID BONDS TO HYDROGEN : ALL
Info:         ERROR TOLERANCE : 1e-08
Info:          MAX ITERATIONS : 100
Info: RIGID WATER USING SETTLE ALGORITHM
Info: RANDOM NUMBER SEED     1743248571
Info: USE HYDROGEN BONDS?    NO
Info: Using AMBER format force field!
Info: AMBER PARM FILE        mobley_2792521.prmtop
Info: COORDINATE PDB         mobley_2792521.pdb
Info: Exclusions will be read from PARM file!
Info: SCNB (VDW SCALING)     2
Info: USING ARITHMETIC MEAN TO COMBINE L-J SIGMA PARAMETERS
Info: BINARY COORDINATES     mobley_2792521_min.coor
Info: SUMMARY OF PARAMETERS:
Info: 11 BONDS
Info: 14 ANGLES
Info:   14 HARMONIC
Info:   0 COSINE-BASED
Info: 8 DIHEDRAL
Info: 0 IMPROPER
Info: 0 CROSSTERM
Info: 0 VDW
Info: 36 VDW_PAIRS
Info: 0 NBTHOLE_PAIRS
Info: STRUCTURE SUMMARY:
Info: 2945 ATOMS
Info: 2944 BONDS
Info: 27 ANGLES
Info: 35 DIHEDRALS
Info: 0 IMPROPERS
Info: 0 CROSSTERMS
Info: 3003 EXCLUSIONS
Info: 2938 RIGID BONDS
Info: 5897 DEGREES OF FREEDOM
Info: 983 HYDROGEN GROUPS
Info: 4 ATOMS IN LARGEST HYDROGEN GROUP
Info: 983 MIGRATION GROUPS
Info: 4 ATOMS IN LARGEST MIGRATION GROUP
Info: TOTAL MASS = 17681.8 amu
Info: TOTAL CHARGE = 0.000200035 e
Info: MASS DENSITY = 0.677614 g/cm^3
Info: ATOM DENSITY = 0.0679646 atoms/A^3
Info: ADDED 0 IMPLICIT EXCLUSIONS
Info: NONBONDED TABLE R-SQUARED SPACING: 0.0625
Info: NONBONDED TABLE SIZE: 705 POINTS
Info: REMOVING COM VELOCITY -0.203271 0.102782 -0.0857905
TCL: Running for 100000 steps
ETITLE: TS BOND ANGLE DIHED IMPRP ELECT VDW BOUNDARY MISC KINETIC TOTAL TEMP POTENTIAL TOTAL3 TEMPAVG PRESSURE GPRESSURE VOLUME PRESSAVG GPRESSAVG
ENERGY: 0 0.0355 0.3989 0.0914 0.0000 -13566.8482 2367.3635 0.0000 0.0000 1716.9286 -9482.0303 293.0296 -11198.9589 -9481.7160 293.0296 349.9775 385.8988 43331.3609 349.9775 385.8988
ENERGY: 100000 0.7184 1.4043 0.4962 0.0000 -14121.0478 2375.4527 0.0000 0.0000 176.6243 -11566.3519 30.1446 -11742.9762 -11565.9401 30.9863 -825.5607 -762.5959 28437.6901 4.1671 4.1472
TCL: Running 100000 steps at 60 kelvin.
TCL: Setting parameter langevinTemp to 60
TCL: Running for 100000 steps
ETITLE: TS BOND ANGLE DIHED IMPRP ELECT VDW BOUNDARY MISC KINETIC TOTAL TEMP POTENTIAL TOTAL3 TEMPAVG PRESSURE GPRESSURE VOLUME PRESSAVG GPRESSAVG
ENERGY: 100000 0.7184 1.4043 0.4962 0.0000 -14121.0478 2375.4527 0.0000 0.0000 176.5355 -11566.4407 30.1295 -11742.9762 -11566.0635 30.1295 -827.4171 -762.6834 28437.6901 -827.4171 -762.6834
ENERGY: 200000 0.6576 1.6917 0.3338 0.0000 -13793.1332 2133.7216 0.0000 0.0000 352.1577 -11304.5709 60.1030 -11656.7286 -11303.5468 60.1953 -2417.6056 -2329.3635 28581.2782 4.6395 4.6997
TCL: Running 100000 steps at 90 kelvin.
TCL: Setting parameter langevinTemp to 90
TCL: Running for 100000 steps
ETITLE: TS BOND ANGLE DIHED IMPRP ELECT VDW BOUNDARY MISC KINETIC TOTAL TEMP POTENTIAL TOTAL3 TEMPAVG PRESSURE GPRESSURE VOLUME PRESSAVG GPRESSAVG
ENERGY: 200000 0.6576 1.6917 0.3338 0.0000 -13793.1332 2133.7216 0.0000 0.0000 351.9811 -11304.7475 60.0729 -11656.7286 -11303.8260 60.0729 -2405.6419 -2329.4609 28581.2782 -2405.6419 -2329.4609
ENERGY: 300000 0.7772 2.6044 1.0092 0.0000 -13823.6042 2259.4591 0.0000 0.0000 518.5890 -11041.1653 88.5080 -11559.7543 -11039.7253 90.0576 -878.5492 -794.1510 28359.8166 4.1971 4.1254
TCL: Running 100000 steps at 120 kelvin.
TCL: Setting parameter langevinTemp to 120
TCL: Running for 100000 steps
ETITLE: TS BOND ANGLE DIHED IMPRP ELECT VDW BOUNDARY MISC KINETIC TOTAL TEMP POTENTIAL TOTAL3 TEMPAVG PRESSURE GPRESSURE VOLUME PRESSAVG GPRESSAVG
ENERGY: 300000 0.7772 2.6044 1.0092 0.0000 -13823.6042 2259.4591 0.0000 0.0000 518.3315 -11041.4228 88.4641 -11559.7543 -11040.1680 88.4641 -861.2378 -793.9938 28359.8166 -861.2378 -793.9938
ENERGY: 400000 0.8210 4.0032 1.2216 0.0000 -13702.8358 2292.9528 0.0000 0.0000 717.8741 -10685.9631 122.5202 -11403.8372 -10683.9767 120.0909 -206.3613 -178.5961 28672.8281 3.8315 3.8773
TCL: Running 100000 steps at 150 kelvin.
TCL: Setting parameter langevinTemp to 150
TCL: Running for 100000 steps
ETITLE: TS BOND ANGLE DIHED IMPRP ELECT VDW BOUNDARY MISC KINETIC TOTAL TEMP POTENTIAL TOTAL3 TEMPAVG PRESSURE GPRESSURE VOLUME PRESSAVG GPRESSAVG
ENERGY: 400000 0.8210 4.0032 1.2216 0.0000 -13702.8358 2292.9528 0.0000 0.0000 717.5156 -10686.3216 122.4590 -11403.8372 -10684.7437 122.4590 -218.5176 -179.2882 28672.8281 -218.5176 -179.2882
ENERGY: 500000 0.5453 2.7301 0.3284 0.0000 -13461.2155 2211.6516 0.0000 0.0000 876.5466 -10369.4135 149.6009 -11245.9601 -10367.0928 150.0440 -320.3825 -274.0935 28852.2924 3.7426 3.7800
TCL: Running 100000 steps at 180 kelvin.
TCL: Setting parameter langevinTemp to 180
TCL: Running for 100000 steps
ETITLE: TS BOND ANGLE DIHED IMPRP ELECT VDW BOUNDARY MISC KINETIC TOTAL TEMP POTENTIAL TOTAL3 TEMPAVG PRESSURE GPRESSURE VOLUME PRESSAVG GPRESSAVG
ENERGY: 500000 0.5453 2.7301 0.3284 0.0000 -13461.2155 2211.6516 0.0000 0.0000 876.0759 -10369.8842 149.5206 -11245.9601 -10368.2644 149.5206 -322.5286 -274.5180 28852.2924 -322.5286 -274.5180
ENERGY: 600000 1.1813 3.0766 1.0125 0.0000 -12948.0336 1995.4515 0.0000 0.0000 1044.5953 -9902.7165 178.2819 -10947.3118 -9901.2806 179.7276 -978.8515 -913.8485 28848.1242 3.0124 3.0259
TCL: Running 100000 steps at 210 kelvin.
TCL: Setting parameter langevinTemp to 210
TCL: Running for 100000 steps
ETITLE: TS BOND ANGLE DIHED IMPRP ELECT VDW BOUNDARY MISC KINETIC TOTAL TEMP POTENTIAL TOTAL3 TEMPAVG PRESSURE GPRESSURE VOLUME PRESSAVG GPRESSAVG
ENERGY: 600000 1.1813 3.0766 1.0125 0.0000 -12948.0336 1995.4515 0.0000 0.0000 1044.0577 -9903.2541 178.1902 -10947.3118 -9900.4609 178.1902 -980.5813 -915.8133 28848.1242 -980.5813 -915.8133
ENERGY: 700000 0.7173 2.6595 0.5411 0.0000 -12326.3389 1874.0624 0.0000 0.0000 1213.4293 -9234.9293 207.0970 -10448.3586 -9229.9619 210.0495 -51.8093 73.2842 28781.9506 3.3517 3.3200
TCL: Running 100000 steps at 240 kelvin.
TCL: Setting parameter langevinTemp to 240
TCL: Running for 100000 steps
ETITLE: TS BOND ANGLE DIHED IMPRP ELECT VDW BOUNDARY MISC KINETIC TOTAL TEMP POTENTIAL TOTAL3 TEMPAVG PRESSURE GPRESSURE VOLUME PRESSAVG GPRESSAVG
ENERGY: 700000 0.7173 2.6595 0.5411 0.0000 -12326.3389 1874.0624 0.0000 0.0000 1212.8051 -9235.5534 206.9904 -10448.3586 -9232.7728 206.9904 -16.2171 74.4041 28781.9506 -16.2171 74.4041
ENERGY: 800000 1.7929 5.6338 0.5908 0.0000 -11598.1813 1635.6701 0.0000 0.0000 1412.7246 -8541.7690 241.1109 -9954.4936 -8539.3452 240.0336 -260.9177 -160.1959 29336.5467 3.4042 3.4534
TCL: Running 100000 steps at 270 kelvin.
TCL: Setting parameter langevinTemp to 270
TCL: Running for 100000 steps
ETITLE: TS BOND ANGLE DIHED IMPRP ELECT VDW BOUNDARY MISC KINETIC TOTAL TEMP POTENTIAL TOTAL3 TEMPAVG PRESSURE GPRESSURE VOLUME PRESSAVG GPRESSAVG
ENERGY: 800000 1.7929 5.6338 0.5908 0.0000 -11598.1813 1635.6701 0.0000 0.0000 1412.0340 -8542.4596 240.9930 -9954.4936 -8539.9933 240.9930 -252.3185 -160.2099 29336.5467 -252.3185 -160.2099
ENERGY: 900000 3.3432 9.5725 2.2589 0.0000 -11313.9335 1638.2230 0.0000 0.0000 1583.5420 -8076.9939 270.2644 -9660.5359 -8073.1086 269.5748 684.6795 763.3027 29133.1949 3.0823 3.2090
TCL: Running 1000000 steps at 300 kelvin.
TCL: Setting parameter langevinTemp to 300
TCL: Running for 1000000 steps
ETITLE: TS BOND ANGLE DIHED IMPRP ELECT VDW BOUNDARY MISC KINETIC TOTAL TEMP POTENTIAL TOTAL3 TEMPAVG PRESSURE GPRESSURE VOLUME PRESSAVG GPRESSAVG
ENERGY: 900000 3.3432 9.5725 2.2589 0.0000 -11313.9335 1638.2230 0.0000 0.0000 1582.7378 -8077.7981 270.1272 -9660.5359 -8075.5154 270.1272 685.4966 763.0065 29133.1949 685.4966 763.0065
ENERGY: 1100000 2.6708 6.7949 1.1202 0.0000 -10566.7694 1421.4848 0.0000 0.0000 1825.3269 -7309.3719 311.5300 -9134.6988 -7307.7893 300.3531 92.4069 98.5623 30472.4042 2.9510 3.0653
ENERGY: 1300000 1.0486 6.9378 4.2516 0.0000 -10577.1580 1328.1547 0.0000 0.0000 1791.7147 -7445.0507 305.7934 -9236.7653 -7440.9797 299.8420 -702.9197 -626.0754 30089.4030 4.1773 4.1996
ENERGY: 1500000 2.0967 9.1415 1.5560 0.0000 -10609.5537 1356.2351 0.0000 0.0000 1747.6962 -7492.8283 298.2807 -9240.5244 -7487.3092 300.4028 -808.3119 -741.9218 30790.0656 3.7221 3.6300
ENERGY: 1700000 0.7145 6.0540 1.1423 0.0000 -10612.6883 1410.2781 0.0000 0.0000 1807.6903 -7386.8091 308.5200 -9194.4994 -7384.9941 300.1723 -20.0858 88.6531 30144.1063 3.1446 3.2605
ENERGY: 1900000 1.4911 6.0466 2.6476 0.0000 -10702.0217 1441.7518 0.0000 0.0000 1772.0786 -7478.0060 302.4421 -9250.0846 -7475.2116 300.0259 19.2142 180.1847 30223.4628 2.1931 2.3276
TCL: Exiting due to exit command.
