Info: SIMULATION PARAMETERS:
Info: TIMESTEP               2
Info: NUMBER OF STEPS        0
Info: STEPS PER CYCLE        10
Info: PERIODIC CELL BASIS 1  36.281 0 0
Info: PERIODIC CELL BASIS 2  0 34.26 0
Info: PERIODIC CELL BASIS 3  0 0 35.644
Info: PERIODIC CELL CENTER   0 0 0
Info: WRAPPING WATERS AROUND PERIODIC BOUNDARIES ON OUTPUT.
Info: WRAPPING ALL CLUSTERS AROUND PERIODIC BOUNDARIES ON OUTPUT.
Info: FIRST LDB TIMESTEP     50
Info: LAST LDB TIMESTEP     -1
Info: HOM BACKGROUND SCALING 1
Info: PME BACKGROUND SCALING 1
Info: MIN ATOMS PER PATCH    40
Info: EMPTY PATCH LOAD       40 ATOMS
Info: INITIAL TEMPERATURE    300
Info: CENTER OF MASS MOVING INITIALLY? NO
Info: DIELECTRIC             1
Info: EXCLUDE                SCALED ONE-FOUR
Info: 1-4 ELECTROSTATICS SCALED BY 0.833333
Info: MODIFIED 1-4 VDW PARAMETERS WILL BE USED
Info: DCD FILENAME           mobley_186894_equil.dcd
Info: DCD FREQUENCY          100000
Info: DCD FIRST STEP         100000
Info: DCD FILE WILL CONTAIN UNIT CELL DATA
Info: XST FILENAME           mobley_186894_equil.xst
Info: XST FREQUENCY          100000
Info: NO VELOCITY DCD OUTPUT
Info: NO FORCE DCD OUTPUT
Info: OUTPUT FILENAME        mobley_186894_equil
Info: BINARY OUTPUT FILES WILL BE USED
Info: RESTART FILENAME       mobley_186894_equil.restart
Info: RESTART FREQUENCY      100000
Info: BINARY RESTART FILES WILL BE USED
Info: CUTOFF                 9
Info: PAIRLIST DISTANCE      11
Info: PAIRLIST SHRINK RATE   0.01
Info: PAIRLIST GROW RATE     0.01
Info: PAIRLIST TRIGGER       0.3
Info: PAIRLISTS PER CYCLE    2
Info: PAIRLISTS ENABLED
Info: MARGIN                 8
Info: HYDROGEN GROUP CUTOFF  2.5
Info: PATCH DIMENSION        21.5
Info: ENERGY OUTPUT STEPS    100000
Info: ENERGY EVALUATION STEPS    100000
Info: OUTPUT ENERGY PRECISION 4
Info: CROSSTERM ENERGY INCLUDED IN DIHEDRAL
Info: TIMING OUTPUT STEPS    1000000
Info: PRESSURE OUTPUT STEPS  100000
Info: LANGEVIN DYNAMICS ACTIVE
Info: LANGEVIN TEMPERATURE   30
Info: LANGEVIN USING BBK INTEGRATOR
Info: LANGEVIN DAMPING COEFFICIENT IS 1 INVERSE PS
Info: LANGEVIN DYNAMICS APPLIED TO HYDROGENS
Info: LANGEVIN PISTON PRESSURE CONTROL ACTIVE
Info:        TARGET PRESSURE IS 1.01325 BAR
Info:     OSCILLATION PERIOD IS 50 FS
Info:             DECAY TIME IS 25 FS
Info:     PISTON TEMPERATURE IS 300 K
Info:       PRESSURE CONTROL IS GROUP-BASED
Info:    INITIAL STRAIN RATE IS 0 0 0
Info:       CELL FLUCTUATION IS ISOTROPIC
Info: PARTICLE MESH EWALD (PME) ACTIVE
Info: PME TOLERANCE               1e-06
Info: PME EWALD COEFFICIENT       0.348832
Info: PME INTERPOLATION ORDER     4
Info: PME GRID DIMENSIONS         40 36 36
Info: PME MAXIMUM GRID SPACING    1
Info: FULL ELECTROSTATIC EVALUATION FREQUENCY      2
Info: USING VERLET I (r-RESPA) MTS SCHEME.
Info: C1 SPLITTING OF LONG RANGE ELECTROSTATICS
Info: PLACING ATOMS IN PATCHES BY HYDROGEN GROUPS
Info: RIGID BONDS TO HYDROGEN : ALL
Info:         ERROR TOLERANCE : 1e-08
Info:          MAX ITERATIONS : 100
Info: RIGID WATER USING SETTLE ALGORITHM
Info: RANDOM NUMBER SEED     1743226001
Info: USE HYDROGEN BONDS?    NO
Info: Using AMBER format force field!
Info: AMBER PARM FILE        mobley_186894.prmtop
Info: COORDINATE PDB         mobley_186894.pdb
Info: Exclusions will be read from PARM file!
Info: SCNB (VDW SCALING)     2
Info: USING ARITHMETIC MEAN TO COMBINE L-J SIGMA PARAMETERS
Info: BINARY COORDINATES     mobley_186894_min.coor
Info: SUMMARY OF PARAMETERS:
Info: 7 BONDS
Info: 8 ANGLES
Info: 4 DIHEDRAL
Info: 0 IMPROPER
Info: 0 CROSSTERM
Info: 0 VDW
Info: 28 VDW_PAIRS
Info: 0 NBTHOLE_PAIRS
Info: STRUCTURE SUMMARY:
Info: 2919 ATOMS
Info: 2918 BONDS
Info: 19 ANGLES
Info: 21 DIHEDRALS
Info: 0 IMPROPERS
Info: 0 CROSSTERMS
Info: 2958 EXCLUSIONS
Info: 2915 RIGID BONDS
Info: 5842 DEGREES OF FREEDOM
Info: 973 HYDROGEN GROUPS
Info: 4 ATOMS IN LARGEST HYDROGEN GROUP
Info: 973 MIGRATION GROUPS
Info: 4 ATOMS IN LARGEST MIGRATION GROUP
Info: TOTAL MASS = 17533.7 amu
Info: TOTAL CHARGE = 0.000199965 e
Info: MASS DENSITY = 0.657172 g/cm^3
Info: ATOM DENSITY = 0.0658842 atoms/A^3
Info: ADDED 0 IMPLICIT EXCLUSIONS
Info: NONBONDED TABLE R-SQUARED SPACING: 0.0625
Info: NONBONDED TABLE SIZE: 705 POINTS
Info: REMOVING COM VELOCITY -0.0572662 -0.220978 0.0749597
TCL: Running for 100000 steps
ETITLE: TS BOND ANGLE DIHED IMPRP ELECT VDW BOUNDARY MISC KINETIC TOTAL TEMP POTENTIAL TOTAL3 TEMPAVG PRESSURE GPRESSURE VOLUME PRESSAVG GPRESSAVG
ENERGY: 0 0.0035 0.0717 0.1193 0.0000 -13520.4803 2368.5267 0.0000 0.0000 1714.5050 -9437.2541 295.3708 -11151.7591 -9436.9350 295.3708 321.8994 344.3779 44305.0308 321.8994 344.3779
ENERGY: 100000 0.0471 0.2860 0.0195 0.0000 -14070.0810 2475.5178 0.0000 0.0000 172.1867 -11422.0239 29.6639 -11594.2106 -11421.7030 30.8504 175.6051 220.1004 28910.6323 3.2693 3.2923
TCL: Running 100000 steps at 60 kelvin.
TCL: Setting parameter langevinTemp to 60
TCL: Running for 100000 steps
ETITLE: TS BOND ANGLE DIHED IMPRP ELECT VDW BOUNDARY MISC KINETIC TOTAL TEMP POTENTIAL TOTAL3 TEMPAVG PRESSURE GPRESSURE VOLUME PRESSAVG GPRESSAVG
ENERGY: 100000 0.0471 0.2860 0.0195 0.0000 -14070.0810 2475.5178 0.0000 0.0000 172.1012 -11422.1094 29.6492 -11594.2106 -11421.7151 29.6492 163.9155 219.7889 28910.6323 163.9155 219.7889
ENERGY: 200000 0.2599 0.3858 0.2130 0.0000 -14005.6209 2454.7197 0.0000 0.0000 352.7224 -11197.3200 60.7662 -11550.0424 -11196.5452 60.0140 479.2774 510.6124 28455.2532 4.3197 4.3535
TCL: Running 100000 steps at 90 kelvin.
TCL: Setting parameter langevinTemp to 90
TCL: Running for 100000 steps
ETITLE: TS BOND ANGLE DIHED IMPRP ELECT VDW BOUNDARY MISC KINETIC TOTAL TEMP POTENTIAL TOTAL3 TEMPAVG PRESSURE GPRESSURE VOLUME PRESSAVG GPRESSAVG
ENERGY: 200000 0.2599 0.3858 0.2130 0.0000 -14005.6209 2454.7197 0.0000 0.0000 352.5514 -11197.4911 60.7367 -11550.0424 -11196.7505 60.7367 460.1944 510.1688 28455.2532 460.1944 510.1688
ENERGY: 300000 0.5049 1.3378 0.3341 0.0000 -13868.0744 2417.5531 0.0000 0.0000 512.1018 -10936.2427 88.2237 -11448.3445 -10935.0469 89.7717 553.5036 604.1133 28337.7812 3.9334 3.9243
TCL: Running 100000 steps at 120 kelvin.
TCL: Setting parameter langevinTemp to 120
TCL: Running for 100000 steps
ETITLE: TS BOND ANGLE DIHED IMPRP ELECT VDW BOUNDARY MISC KINETIC TOTAL TEMP POTENTIAL TOTAL3 TEMPAVG PRESSURE GPRESSURE VOLUME PRESSAVG GPRESSAVG
ENERGY: 300000 0.5049 1.3378 0.3341 0.0000 -13868.0744 2417.5531 0.0000 0.0000 511.8302 -10936.5143 88.1769 -11448.3445 -10935.6740 88.1769 556.9056 604.0360 28337.7812 556.9056 604.0360
ENERGY: 400000 0.1776 1.8545 0.1468 0.0000 -13605.7818 2295.5703 0.0000 0.0000 694.2892 -10613.7435 119.6105 -11308.0327 -10611.7664 120.1493 134.1652 195.6390 28158.3432 4.9754 5.1021
TCL: Running 100000 steps at 150 kelvin.
TCL: Setting parameter langevinTemp to 150
TCL: Running for 100000 steps
ETITLE: TS BOND ANGLE DIHED IMPRP ELECT VDW BOUNDARY MISC KINETIC TOTAL TEMP POTENTIAL TOTAL3 TEMPAVG PRESSURE GPRESSURE VOLUME PRESSAVG GPRESSAVG
ENERGY: 400000 0.1776 1.8545 0.1468 0.0000 -13605.7818 2295.5703 0.0000 0.0000 693.9483 -10614.0844 119.5517 -11308.0327 -10612.3423 119.5517 121.8400 195.9162 28158.3432 121.8400 195.9162
ENERGY: 500000 0.3217 1.5980 1.0183 0.0000 -13299.3873 2132.1911 0.0000 0.0000 887.5173 -10276.7410 152.8994 -11164.2583 -10274.2346 149.9499 -902.2858 -852.1521 28703.7021 4.1489 4.2033
TCL: Running 100000 steps at 180 kelvin.
TCL: Setting parameter langevinTemp to 180
TCL: Running for 100000 steps
ETITLE: TS BOND ANGLE DIHED IMPRP ELECT VDW BOUNDARY MISC KINETIC TOTAL TEMP POTENTIAL TOTAL3 TEMPAVG PRESSURE GPRESSURE VOLUME PRESSAVG GPRESSAVG
ENERGY: 500000 0.3217 1.5980 1.0183 0.0000 -13299.3873 2132.1911 0.0000 0.0000 887.0854 -10277.1729 152.8249 -11164.2583 -10275.1973 152.8249 -910.6466 -850.9481 28703.7021 -910.6466 -850.9481
ENERGY: 600000 0.8124 3.0001 0.7212 0.0000 -12990.4828 2128.2834 0.0000 0.0000 1068.6939 -9788.9718 184.1120 -10857.6657 -9785.6162 179.6805 318.8587 395.6609 28328.2659 3.5795 3.6326
TCL: Running 100000 steps at 210 kelvin.
TCL: Setting parameter langevinTemp to 210
TCL: Running for 100000 steps
ETITLE: TS BOND ANGLE DIHED IMPRP ELECT VDW BOUNDARY MISC KINETIC TOTAL TEMP POTENTIAL TOTAL3 TEMPAVG PRESSURE GPRESSURE VOLUME PRESSAVG GPRESSAVG
ENERGY: 600000 0.8124 3.0001 0.7212 0.0000 -12990.4828 2128.2834 0.0000 0.0000 1068.1821 -9789.4836 184.0239 -10857.6657 -9787.8786 184.0239 339.7370 397.5391 28328.2659 339.7370 397.5391
ENERGY: 700000 0.5035 2.4010 0.3400 0.0000 -12206.9473 1822.2925 0.0000 0.0000 1203.8639 -9177.5463 207.3988 -10381.4103 -9175.0329 210.1777 -411.5153 -305.2685 28610.9237 2.7550 2.7904
TCL: Running 100000 steps at 240 kelvin.
TCL: Setting parameter langevinTemp to 240
TCL: Running for 100000 steps
ETITLE: TS BOND ANGLE DIHED IMPRP ELECT VDW BOUNDARY MISC KINETIC TOTAL TEMP POTENTIAL TOTAL3 TEMPAVG PRESSURE GPRESSURE VOLUME PRESSAVG GPRESSAVG
ENERGY: 700000 0.5035 2.4010 0.3400 0.0000 -12206.9473 1822.2925 0.0000 0.0000 1203.2250 -9178.1852 207.2887 -10381.4103 -9175.8172 207.2887 -394.7437 -305.3292 28610.9237 -394.7437 -305.3292
ENERGY: 800000 0.4904 6.3880 0.7612 0.0000 -11464.7362 1566.4304 0.0000 0.0000 1378.3345 -8512.3318 237.4562 -9890.6662 -8509.4831 239.8239 -697.8008 -639.8221 28611.5206 4.2628 4.2332
TCL: Running 100000 steps at 270 kelvin.
TCL: Setting parameter langevinTemp to 270
TCL: Running for 100000 steps
ETITLE: TS BOND ANGLE DIHED IMPRP ELECT VDW BOUNDARY MISC KINETIC TOTAL TEMP POTENTIAL TOTAL3 TEMPAVG PRESSURE GPRESSURE VOLUME PRESSAVG GPRESSAVG
ENERGY: 800000 0.4904 6.3880 0.7612 0.0000 -11464.7362 1566.4304 0.0000 0.0000 1377.6230 -8513.0432 237.3336 -9890.6662 -8511.1302 237.3336 -717.9609 -638.2572 28611.5206 -717.9609 -638.2572
ENERGY: 900000 0.2648 7.8197 0.8779 0.0000 -11192.9894 1577.5876 0.0000 0.0000 1599.2511 -8007.1883 275.5152 -9606.4394 -8004.3150 269.7095 201.0506 277.7277 28975.4725 3.2399 3.2315
TCL: Running 1000000 steps at 300 kelvin.
TCL: Setting parameter langevinTemp to 300
TCL: Running for 1000000 steps
ETITLE: TS BOND ANGLE DIHED IMPRP ELECT VDW BOUNDARY MISC KINETIC TOTAL TEMP POTENTIAL TOTAL3 TEMPAVG PRESSURE GPRESSURE VOLUME PRESSAVG GPRESSAVG
ENERGY: 900000 0.2648 7.8197 0.8779 0.0000 -11192.9894 1577.5876 0.0000 0.0000 1598.4519 -8007.9875 275.3775 -9606.4394 -8005.8865 275.3775 178.3091 276.9015 28975.4725 178.3091 276.9015
ENERGY: 1100000 0.7233 6.5235 0.1760 0.0000 -10654.4914 1434.4493 0.0000 0.0000 1720.6184 -7492.0009 296.4240 -9212.6193 -7489.1473 299.3199 -221.7827 -218.3954 30270.2196 1.6967 1.7074
ENERGY: 1300000 0.9210 4.0261 0.4860 0.0000 -10483.3270 1392.9144 0.0000 0.0000 1650.3174 -7434.6621 284.3127 -9084.9795 -7430.7714 299.7112 -349.5927 -306.2864 30687.6110 2.7853 2.9871
ENERGY: 1500000 1.0532 7.7509 0.1686 0.0000 -10721.0756 1429.8105 0.0000 0.0000 1752.8481 -7529.4443 301.9765 -9282.2924 -7526.2209 300.2965 -306.8710 -231.2286 29994.5836 4.0934 4.0212
ENERGY: 1700000 1.3936 5.0502 2.2377 0.0000 -10554.1899 1430.5809 0.0000 0.0000 1796.8806 -7318.0469 309.5623 -9114.9275 -7317.5278 299.3013 53.8675 58.6022 30243.5841 3.0587 3.0906
ENERGY: 1900000 1.0566 3.8674 0.2837 0.0000 -10529.3088 1339.6830 0.0000 0.0000 1820.8732 -7363.5450 313.6957 -9184.4182 -7359.9137 300.8996 -438.4323 -371.2560 29572.4732 3.7584 3.7029
TCL: Exiting due to exit command.
