Info: SIMULATION PARAMETERS:
Info: TIMESTEP               2
Info: NUMBER OF STEPS        0
Info: STEPS PER CYCLE        10
Info: PERIODIC CELL BASIS 1  34.207 0 0
Info: PERIODIC CELL BASIS 2  0 32.293 0
Info: PERIODIC CELL BASIS 3  0 0 39.119
Info: PERIODIC CELL CENTER   0 0 0
Info: WRAPPING WATERS AROUND PERIODIC BOUNDARIES ON OUTPUT.
Info: WRAPPING ALL CLUSTERS AROUND PERIODIC BOUNDARIES ON OUTPUT.
Info: FIRST LDB TIMESTEP     50
Info: LAST LDB TIMESTEP     -1
Info: HOM BACKGROUND SCALING 1
Info: PME BACKGROUND SCALING 1
Info: MIN ATOMS PER PATCH    40
Info: EMPTY PATCH LOAD       40 ATOMS
Info: INITIAL TEMPERATURE    300
Info: CENTER OF MASS MOVING INITIALLY? NO
Info: DIELECTRIC             1
Info: EXCLUDE                SCALED ONE-FOUR
Info: 1-4 ELECTROSTATICS SCALED BY 0.833333
Info: MODIFIED 1-4 VDW PARAMETERS WILL BE USED
Info: DCD FILENAME           mobley_1017962_equil.dcd
Info: DCD FREQUENCY          100000
Info: DCD FIRST STEP         100000
Info: DCD FILE WILL CONTAIN UNIT CELL DATA
Info: XST FILENAME           mobley_1017962_equil.xst
Info: XST FREQUENCY          100000
Info: NO VELOCITY DCD OUTPUT
Info: NO FORCE DCD OUTPUT
Info: OUTPUT FILENAME        mobley_1017962_equil
Info: BINARY OUTPUT FILES WILL BE USED
Info: RESTART FILENAME       mobley_1017962_equil.restart
Info: RESTART FREQUENCY      100000
Info: BINARY RESTART FILES WILL BE USED
Info: CUTOFF                 9
Info: PAIRLIST DISTANCE      11
Info: PAIRLIST SHRINK RATE   0.01
Info: PAIRLIST GROW RATE     0.01
Info: PAIRLIST TRIGGER       0.3
Info: PAIRLISTS PER CYCLE    2
Info: PAIRLISTS ENABLED
Info: MARGIN                 8
Info: HYDROGEN GROUP CUTOFF  2.5
Info: PATCH DIMENSION        21.5
Info: ENERGY OUTPUT STEPS    100000
Info: ENERGY EVALUATION STEPS    100000
Info: OUTPUT ENERGY PRECISION 4
Info: CROSSTERM ENERGY INCLUDED IN DIHEDRAL
Info: TIMING OUTPUT STEPS    1000000
Info: PRESSURE OUTPUT STEPS  100000
Info: LANGEVIN DYNAMICS ACTIVE
Info: LANGEVIN TEMPERATURE   30
Info: LANGEVIN USING BBK INTEGRATOR
Info: LANGEVIN DAMPING COEFFICIENT IS 1 INVERSE PS
Info: LANGEVIN DYNAMICS APPLIED TO HYDROGENS
Info: LANGEVIN PISTON PRESSURE CONTROL ACTIVE
Info:        TARGET PRESSURE IS 1.01325 BAR
Info:     OSCILLATION PERIOD IS 50 FS
Info:             DECAY TIME IS 25 FS
Info:     PISTON TEMPERATURE IS 300 K
Info:       PRESSURE CONTROL IS GROUP-BASED
Info:    INITIAL STRAIN RATE IS 0 0 0
Info:       CELL FLUCTUATION IS ISOTROPIC
Info: PARTICLE MESH EWALD (PME) ACTIVE
Info: PME TOLERANCE               1e-06
Info: PME EWALD COEFFICIENT       0.348832
Info: PME INTERPOLATION ORDER     4
Info: PME GRID DIMENSIONS         36 36 40
Info: PME MAXIMUM GRID SPACING    1
Info: FULL ELECTROSTATIC EVALUATION FREQUENCY      2
Info: USING VERLET I (r-RESPA) MTS SCHEME.
Info: C1 SPLITTING OF LONG RANGE ELECTROSTATICS
Info: PLACING ATOMS IN PATCHES BY HYDROGEN GROUPS
Info: RIGID BONDS TO HYDROGEN : ALL
Info:         ERROR TOLERANCE : 1e-08
Info:          MAX ITERATIONS : 100
Info: RIGID WATER USING SETTLE ALGORITHM
Info: RANDOM NUMBER SEED     1743256378
Info: USE HYDROGEN BONDS?    NO
Info: Using AMBER format force field!
Info: AMBER PARM FILE        mobley_1017962.prmtop
Info: COORDINATE PDB         mobley_1017962.pdb
Info: Exclusions will be read from PARM file!
Info: SCNB (VDW SCALING)     2
Info: USING ARITHMETIC MEAN TO COMBINE L-J SIGMA PARAMETERS
Info: BINARY COORDINATES     mobley_1017962_min.coor
Info: SUMMARY OF PARAMETERS:
Info: 9 BONDS
Info: 11 ANGLES
Info:   11 HARMONIC
Info:   0 COSINE-BASED
Info: 16 DIHEDRAL
Info: 0 IMPROPER
Info: 0 CROSSTERM
Info: 0 VDW
Info: 36 VDW_PAIRS
Info: 0 NBTHOLE_PAIRS
Info: STRUCTURE SUMMARY:
Info: 2942 ATOMS
Info: 2941 BONDS
Info: 40 ANGLES
Info: 59 DIHEDRALS
Info: 0 IMPROPERS
Info: 0 CROSSTERMS
Info: 3028 EXCLUSIONS
Info: 2933 RIGID BONDS
Info: 5893 DEGREES OF FREEDOM
Info: 982 HYDROGEN GROUPS
Info: 4 ATOMS IN LARGEST HYDROGEN GROUP
Info: 982 MIGRATION GROUPS
Info: 4 ATOMS IN LARGEST MIGRATION GROUP
Info: TOTAL MASS = 17659.8 amu
Info: TOTAL CHARGE = -0.000100002 e
Info: MASS DENSITY = 0.678629 g/cm^3
Info: ATOM DENSITY = 0.0680819 atoms/A^3
Info: ADDED 0 IMPLICIT EXCLUSIONS
Info: NONBONDED TABLE R-SQUARED SPACING: 0.0625
Info: NONBONDED TABLE SIZE: 705 POINTS
Info: REMOVING COM VELOCITY 0.0390802 0.0130718 0.00897141
TCL: Running for 100000 steps
ETITLE: TS BOND ANGLE DIHED IMPRP ELECT VDW BOUNDARY MISC KINETIC TOTAL TEMP POTENTIAL TOTAL3 TEMPAVG PRESSURE GPRESSURE VOLUME PRESSAVG GPRESSAVG
ENERGY: 0 0.1716 0.4718 1.7961 0.0000 -13525.3927 2358.9627 0.0000 0.0000 1694.4370 -9469.5536 289.3872 -11163.9906 -9469.2073 289.3872 285.7587 322.9126 43212.6723 285.7587 322.9126
ENERGY: 100000 0.4980 1.4713 1.9701 0.0000 -14174.3837 2474.1686 0.0000 0.0000 176.5126 -11519.7630 30.1460 -11696.2756 -11519.0725 30.9065 345.0503 415.8782 28442.1668 3.1852 3.1652
TCL: Running 100000 steps at 60 kelvin.
TCL: Setting parameter langevinTemp to 60
TCL: Running for 100000 steps
ETITLE: TS BOND ANGLE DIHED IMPRP ELECT VDW BOUNDARY MISC KINETIC TOTAL TEMP POTENTIAL TOTAL3 TEMPAVG PRESSURE GPRESSURE VOLUME PRESSAVG GPRESSAVG
ENERGY: 100000 0.4980 1.4713 1.9701 0.0000 -14174.3837 2474.1686 0.0000 0.0000 176.4253 -11519.8503 30.1311 -11696.2756 -11519.4869 30.1311 361.6357 416.0653 28442.1668 361.6357 416.0653
ENERGY: 200000 0.4805 2.3293 1.8446 0.0000 -14120.0104 2498.5554 0.0000 0.0000 357.6531 -11259.1475 61.0824 -11616.8006 -11257.9218 59.8187 817.4641 883.8120 28349.6037 4.0379 3.9959
TCL: Running 100000 steps at 90 kelvin.
TCL: Setting parameter langevinTemp to 90
TCL: Running for 100000 steps
ETITLE: TS BOND ANGLE DIHED IMPRP ELECT VDW BOUNDARY MISC KINETIC TOTAL TEMP POTENTIAL TOTAL3 TEMPAVG PRESSURE GPRESSURE VOLUME PRESSAVG GPRESSAVG
ENERGY: 200000 0.4805 2.3293 1.8446 0.0000 -14120.0104 2498.5554 0.0000 0.0000 357.4755 -11259.3251 61.0520 -11616.8006 -11258.6053 61.0520 828.8616 884.0582 28349.6037 828.8616 884.0582
ENERGY: 300000 1.2321 4.3451 2.6981 0.0000 -13946.9463 2419.8221 0.0000 0.0000 521.9413 -10996.9075 89.1406 -11518.8488 -10995.2659 89.8612 545.3779 586.8867 28472.8710 4.3064 4.3887
TCL: Running 100000 steps at 120 kelvin.
TCL: Setting parameter langevinTemp to 120
TCL: Running for 100000 steps
ETITLE: TS BOND ANGLE DIHED IMPRP ELECT VDW BOUNDARY MISC KINETIC TOTAL TEMP POTENTIAL TOTAL3 TEMPAVG PRESSURE GPRESSURE VOLUME PRESSAVG GPRESSAVG
ENERGY: 300000 1.2321 4.3451 2.6981 0.0000 -13946.9463 2419.8221 0.0000 0.0000 521.6890 -10997.1598 89.0975 -11518.8488 -10996.4095 89.0975 543.0078 587.4979 28472.8710 543.0078 587.4979
ENERGY: 400000 0.6635 4.5005 2.3825 0.0000 -13737.6787 2327.2579 0.0000 0.0000 676.2369 -10726.6374 115.4922 -11402.8744 -10724.9102 120.0693 -13.4674 23.2079 28846.4942 4.4539 4.3833
TCL: Running 100000 steps at 150 kelvin.
TCL: Setting parameter langevinTemp to 150
TCL: Running for 100000 steps
ETITLE: TS BOND ANGLE DIHED IMPRP ELECT VDW BOUNDARY MISC KINETIC TOTAL TEMP POTENTIAL TOTAL3 TEMPAVG PRESSURE GPRESSURE VOLUME PRESSAVG GPRESSAVG
ENERGY: 400000 0.6635 4.5005 2.3825 0.0000 -13737.6787 2327.2579 0.0000 0.0000 675.8939 -10726.9804 115.4337 -11402.8744 -10725.4191 115.4337 -15.2466 22.8787 28846.4942 -15.2466 22.8787
ENERGY: 500000 1.7431 3.6308 2.0693 0.0000 -13515.7344 2259.4908 0.0000 0.0000 889.9390 -10358.8614 151.9897 -11248.8004 -10356.2291 150.1881 73.5995 119.5217 28713.6563 4.0513 4.0065
TCL: Running 100000 steps at 180 kelvin.
TCL: Setting parameter langevinTemp to 180
TCL: Running for 100000 steps
ETITLE: TS BOND ANGLE DIHED IMPRP ELECT VDW BOUNDARY MISC KINETIC TOTAL TEMP POTENTIAL TOTAL3 TEMPAVG PRESSURE GPRESSURE VOLUME PRESSAVG GPRESSAVG
ENERGY: 500000 1.7431 3.6308 2.0693 0.0000 -13515.7344 2259.4908 0.0000 0.0000 889.5050 -10359.2954 151.9156 -11248.8004 -10357.5129 151.9156 61.3335 119.4173 28713.6563 61.3335 119.4173
ENERGY: 600000 2.3269 11.2751 2.4568 0.0000 -13029.5856 2088.0403 0.0000 0.0000 1034.6860 -9890.8005 176.7106 -10925.4865 -9888.0833 179.9321 -310.9776 -220.2377 28819.6341 3.2659 3.2110
TCL: Running 100000 steps at 210 kelvin.
TCL: Setting parameter langevinTemp to 210
TCL: Running for 100000 steps
ETITLE: TS BOND ANGLE DIHED IMPRP ELECT VDW BOUNDARY MISC KINETIC TOTAL TEMP POTENTIAL TOTAL3 TEMPAVG PRESSURE GPRESSURE VOLUME PRESSAVG GPRESSAVG
ENERGY: 600000 2.3269 11.2751 2.4568 0.0000 -13029.5856 2088.0403 0.0000 0.0000 1034.1684 -9891.3181 176.6222 -10925.4865 -9888.9191 176.6222 -284.5114 -220.1860 28819.6341 -284.5114 -220.1860
ENERGY: 700000 0.8327 13.8147 3.5386 0.0000 -12425.0589 1939.2039 0.0000 0.0000 1207.5028 -9260.1662 206.2254 -10467.6690 -9255.9816 210.2192 633.8778 673.8679 28243.7369 4.5083 4.5900
TCL: Running 100000 steps at 240 kelvin.
TCL: Setting parameter langevinTemp to 240
TCL: Running for 100000 steps
ETITLE: TS BOND ANGLE DIHED IMPRP ELECT VDW BOUNDARY MISC KINETIC TOTAL TEMP POTENTIAL TOTAL3 TEMPAVG PRESSURE GPRESSURE VOLUME PRESSAVG GPRESSAVG
ENERGY: 700000 0.8327 13.8147 3.5386 0.0000 -12425.0589 1939.2039 0.0000 0.0000 1206.8630 -9260.8060 206.1161 -10467.6690 -9259.0063 206.1161 594.6061 675.0953 28243.7369 594.6061 675.0953
ENERGY: 800000 0.8611 9.0734 3.0172 0.0000 -11683.6090 1688.2626 0.0000 0.0000 1399.0465 -8583.3483 238.9385 -9982.3948 -8581.1679 239.4513 -207.2862 -153.7903 29290.6496 4.6978 4.6324
TCL: Running 100000 steps at 270 kelvin.
TCL: Setting parameter langevinTemp to 270
TCL: Running for 100000 steps
ETITLE: TS BOND ANGLE DIHED IMPRP ELECT VDW BOUNDARY MISC KINETIC TOTAL TEMP POTENTIAL TOTAL3 TEMPAVG PRESSURE GPRESSURE VOLUME PRESSAVG GPRESSAVG
ENERGY: 800000 0.8611 9.0734 3.0172 0.0000 -11683.6090 1688.2626 0.0000 0.0000 1398.3841 -8584.0107 238.8253 -9982.3948 -8581.7907 238.8253 -236.3965 -154.1299 29290.6496 -236.3965 -154.1299
ENERGY: 900000 1.8351 8.4405 2.9383 0.0000 -11180.8201 1565.4405 0.0000 0.0000 1610.5193 -7991.6463 275.0552 -9602.1657 -7989.7867 270.0829 450.9473 603.4246 28937.4303 3.1239 3.1728
TCL: Running 1000000 steps at 300 kelvin.
TCL: Setting parameter langevinTemp to 300
TCL: Running for 1000000 steps
ETITLE: TS BOND ANGLE DIHED IMPRP ELECT VDW BOUNDARY MISC KINETIC TOTAL TEMP POTENTIAL TOTAL3 TEMPAVG PRESSURE GPRESSURE VOLUME PRESSAVG GPRESSAVG
ENERGY: 900000 1.8351 8.4405 2.9383 0.0000 -11180.8201 1565.4405 0.0000 0.0000 1609.7135 -7992.4522 274.9176 -9602.1657 -7990.3810 274.9176 515.3301 600.8593 28937.4303 515.3301 600.8593
ENERGY: 1100000 4.2195 8.5326 4.3595 0.0000 -10608.1720 1422.1025 0.0000 0.0000 1738.4935 -7430.4643 296.9115 -9168.9578 -7427.4057 300.6775 -96.1754 -40.0894 30625.5568 3.0312 3.0729
ENERGY: 1300000 5.2997 11.0029 2.9755 0.0000 -10791.1335 1512.1613 0.0000 0.0000 1723.5336 -7536.1606 294.3565 -9259.6942 -7531.4783 299.6622 628.2320 700.4267 30264.2263 3.0937 3.2163
ENERGY: 1500000 2.6556 10.6433 5.5700 0.0000 -10693.1608 1489.3753 0.0000 0.0000 1763.0193 -7421.8972 301.1002 -9184.9165 -7415.9455 300.3329 571.4256 605.0982 30295.2783 4.7342 4.6448
ENERGY: 1700000 2.8322 8.0100 3.5122 0.0000 -10740.6677 1489.7004 0.0000 0.0000 1739.3944 -7497.2184 297.0654 -9236.6128 -7493.3310 300.4136 345.0973 438.1193 30096.8412 3.7610 3.7242
ENERGY: 1900000 0.5817 7.6465 3.8917 0.0000 -10721.2330 1472.6318 0.0000 0.0000 1755.3260 -7481.1552 299.7863 -9236.4812 -7476.5449 299.8267 506.0372 538.2522 30032.1031 3.8565 3.6114
TCL: Exiting due to exit command.
