Info: SIMULATION PARAMETERS:
Info: TIMESTEP               2
Info: NUMBER OF STEPS        0
Info: STEPS PER CYCLE        10
Info: PERIODIC CELL BASIS 1  35.436 0 0
Info: PERIODIC CELL BASIS 2  0 35.779 0
Info: PERIODIC CELL BASIS 3  0 0 34.954
Info: PERIODIC CELL CENTER   0 0 0
Info: WRAPPING WATERS AROUND PERIODIC BOUNDARIES ON OUTPUT.
Info: WRAPPING ALL CLUSTERS AROUND PERIODIC BOUNDARIES ON OUTPUT.
Info: FIRST LDB TIMESTEP     50
Info: LAST LDB TIMESTEP     -1
Info: HOM BACKGROUND SCALING 1
Info: PME BACKGROUND SCALING 1
Info: MIN ATOMS PER PATCH    40
Info: EMPTY PATCH LOAD       40 ATOMS
Info: INITIAL TEMPERATURE    300
Info: CENTER OF MASS MOVING INITIALLY? NO
Info: DIELECTRIC             1
Info: EXCLUDE                SCALED ONE-FOUR
Info: 1-4 ELECTROSTATICS SCALED BY 0.833333
Info: MODIFIED 1-4 VDW PARAMETERS WILL BE USED
Info: DCD FILENAME           mobley_967099_equil.dcd
Info: DCD FREQUENCY          100000
Info: DCD FIRST STEP         100000
Info: DCD FILE WILL CONTAIN UNIT CELL DATA
Info: XST FILENAME           mobley_967099_equil.xst
Info: XST FREQUENCY          100000
Info: NO VELOCITY DCD OUTPUT
Info: NO FORCE DCD OUTPUT
Info: OUTPUT FILENAME        mobley_967099_equil
Info: BINARY OUTPUT FILES WILL BE USED
Info: RESTART FILENAME       mobley_967099_equil.restart
Info: RESTART FREQUENCY      100000
Info: BINARY RESTART FILES WILL BE USED
Info: CUTOFF                 9
Info: PAIRLIST DISTANCE      11
Info: PAIRLIST SHRINK RATE   0.01
Info: PAIRLIST GROW RATE     0.01
Info: PAIRLIST TRIGGER       0.3
Info: PAIRLISTS PER CYCLE    2
Info: PAIRLISTS ENABLED
Info: MARGIN                 8
Info: HYDROGEN GROUP CUTOFF  2.5
Info: PATCH DIMENSION        21.5
Info: ENERGY OUTPUT STEPS    100000
Info: ENERGY EVALUATION STEPS    100000
Info: OUTPUT ENERGY PRECISION 4
Info: CROSSTERM ENERGY INCLUDED IN DIHEDRAL
Info: TIMING OUTPUT STEPS    1000000
Info: PRESSURE OUTPUT STEPS  100000
Info: LANGEVIN DYNAMICS ACTIVE
Info: LANGEVIN TEMPERATURE   30
Info: LANGEVIN USING BBK INTEGRATOR
Info: LANGEVIN DAMPING COEFFICIENT IS 1 INVERSE PS
Info: LANGEVIN DYNAMICS APPLIED TO HYDROGENS
Info: LANGEVIN PISTON PRESSURE CONTROL ACTIVE
Info:        TARGET PRESSURE IS 1.01325 BAR
Info:     OSCILLATION PERIOD IS 50 FS
Info:             DECAY TIME IS 25 FS
Info:     PISTON TEMPERATURE IS 300 K
Info:       PRESSURE CONTROL IS GROUP-BASED
Info:    INITIAL STRAIN RATE IS 0 0 0
Info:       CELL FLUCTUATION IS ISOTROPIC
Info: PARTICLE MESH EWALD (PME) ACTIVE
Info: PME TOLERANCE               1e-06
Info: PME EWALD COEFFICIENT       0.348832
Info: PME INTERPOLATION ORDER     4
Info: PME GRID DIMENSIONS         36 36 36
Info: PME MAXIMUM GRID SPACING    1
Info: FULL ELECTROSTATIC EVALUATION FREQUENCY      2
Info: USING VERLET I (r-RESPA) MTS SCHEME.
Info: C1 SPLITTING OF LONG RANGE ELECTROSTATICS
Info: PLACING ATOMS IN PATCHES BY HYDROGEN GROUPS
Info: RIGID BONDS TO HYDROGEN : ALL
Info:         ERROR TOLERANCE : 1e-08
Info:          MAX ITERATIONS : 100
Info: RIGID WATER USING SETTLE ALGORITHM
Info: RANDOM NUMBER SEED     1743227168
Info: USE HYDROGEN BONDS?    NO
Info: Using AMBER format force field!
Info: AMBER PARM FILE        mobley_967099.prmtop
Info: COORDINATE PDB         mobley_967099.pdb
Info: Exclusions will be read from PARM file!
Info: SCNB (VDW SCALING)     2
Info: USING ARITHMETIC MEAN TO COMBINE L-J SIGMA PARAMETERS
Info: BINARY COORDINATES     mobley_967099_min.coor
Info: SUMMARY OF PARAMETERS:
Info: 7 BONDS
Info: 8 ANGLES
Info:   8 HARMONIC
Info:   0 COSINE-BASED
Info: 3 DIHEDRAL
Info: 0 IMPROPER
Info: 0 CROSSTERM
Info: 0 VDW
Info: 28 VDW_PAIRS
Info: 0 NBTHOLE_PAIRS
Info: STRUCTURE SUMMARY:
Info: 2926 ATOMS
Info: 2925 BONDS
Info: 21 ANGLES
Info: 24 DIHEDRALS
Info: 0 IMPROPERS
Info: 0 CROSSTERMS
Info: 2970 EXCLUSIONS
Info: 2920 RIGID BONDS
Info: 5858 DEGREES OF FREEDOM
Info: 977 HYDROGEN GROUPS
Info: 4 ATOMS IN LARGEST HYDROGEN GROUP
Info: 977 MIGRATION GROUPS
Info: 4 ATOMS IN LARGEST MIGRATION GROUP
Info: TOTAL MASS = 17582.6 amu
Info: TOTAL CHARGE = 0.000400003 e
Info: MASS DENSITY = 0.65883 g/cm^3
Info: ATOM DENSITY = 0.0660244 atoms/A^3
Info: ADDED 0 IMPLICIT EXCLUSIONS
Info: NONBONDED TABLE R-SQUARED SPACING: 0.0625
Info: NONBONDED TABLE SIZE: 705 POINTS
Info: REMOVING COM VELOCITY -0.121761 0.129902 0.166287
TCL: Running for 100000 steps
ETITLE: TS BOND ANGLE DIHED IMPRP ELECT VDW BOUNDARY MISC KINETIC TOTAL TEMP POTENTIAL TOTAL3 TEMPAVG PRESSURE GPRESSURE VOLUME PRESSAVG GPRESSAVG
ENERGY: 0 0.0805 0.2666 0.0305 0.0000 -13581.1359 2409.2526 0.0000 0.0000 1704.4992 -9467.0065 292.8450 -11171.5057 -9466.6720 292.8450 426.9479 462.6627 44316.9408 426.9479 462.6627
ENERGY: 100000 0.1141 0.9465 0.0519 0.0000 -14186.3846 2515.3658 0.0000 0.0000 171.3103 -11498.5960 29.4323 -11669.9063 -11498.3446 30.8819 247.0320 311.5823 28904.9744 4.3877 4.3990
TCL: Running 100000 steps at 60 kelvin.
TCL: Setting parameter langevinTemp to 60
TCL: Running for 100000 steps
ETITLE: TS BOND ANGLE DIHED IMPRP ELECT VDW BOUNDARY MISC KINETIC TOTAL TEMP POTENTIAL TOTAL3 TEMPAVG PRESSURE GPRESSURE VOLUME PRESSAVG GPRESSAVG
ENERGY: 100000 0.1141 0.9465 0.0519 0.0000 -14186.3846 2515.3658 0.0000 0.0000 171.2236 -11498.6827 29.4174 -11669.9063 -11498.2934 29.4174 252.2501 311.2088 28904.9744 252.2501 311.2088
ENERGY: 200000 0.0239 0.7863 0.3498 0.0000 -14083.3278 2497.4962 0.0000 0.0000 364.5092 -11220.1624 62.6253 -11584.6716 -11219.1159 59.9923 423.8772 464.8938 28994.6494 3.5911 3.5744
TCL: Running 100000 steps at 90 kelvin.
TCL: Setting parameter langevinTemp to 90
TCL: Running for 100000 steps
ETITLE: TS BOND ANGLE DIHED IMPRP ELECT VDW BOUNDARY MISC KINETIC TOTAL TEMP POTENTIAL TOTAL3 TEMPAVG PRESSURE GPRESSURE VOLUME PRESSAVG GPRESSAVG
ENERGY: 200000 0.0239 0.7863 0.3498 0.0000 -14083.3278 2497.4962 0.0000 0.0000 364.3370 -11220.3347 62.5957 -11584.6716 -11219.4892 62.5957 412.7371 464.5040 28994.6494 412.7371 464.5040
ENERGY: 300000 0.3045 2.8406 0.1153 0.0000 -13925.9942 2412.5841 0.0000 0.0000 517.1679 -10992.9818 88.8531 -11510.1497 -10991.8080 90.1611 73.1518 130.7058 28834.1365 4.3078 4.4114
TCL: Running 100000 steps at 120 kelvin.
TCL: Setting parameter langevinTemp to 120
TCL: Running for 100000 steps
ETITLE: TS BOND ANGLE DIHED IMPRP ELECT VDW BOUNDARY MISC KINETIC TOTAL TEMP POTENTIAL TOTAL3 TEMPAVG PRESSURE GPRESSURE VOLUME PRESSAVG GPRESSAVG
ENERGY: 300000 0.3045 2.8406 0.1153 0.0000 -13925.9942 2412.5841 0.0000 0.0000 516.9069 -10993.2428 88.8083 -11510.1497 -10992.4043 88.8083 95.1937 131.0363 28834.1365 95.1937 131.0363
ENERGY: 400000 0.5577 3.8505 0.3309 0.0000 -13759.5049 2387.1251 0.0000 0.0000 688.7168 -10678.9239 118.3264 -11367.6407 -10677.3802 120.4296 445.0574 468.6350 28766.9826 2.3763 2.5653
TCL: Running 100000 steps at 150 kelvin.
TCL: Setting parameter langevinTemp to 150
TCL: Running for 100000 steps
ETITLE: TS BOND ANGLE DIHED IMPRP ELECT VDW BOUNDARY MISC KINETIC TOTAL TEMP POTENTIAL TOTAL3 TEMPAVG PRESSURE GPRESSURE VOLUME PRESSAVG GPRESSAVG
ENERGY: 400000 0.5577 3.8505 0.3309 0.0000 -13759.5049 2387.1251 0.0000 0.0000 688.3784 -10679.2622 118.2683 -11367.6407 -10677.6832 118.2683 426.5876 467.6581 28766.9826 426.5876 467.6581
ENERGY: 500000 0.2439 2.7418 0.3076 0.0000 -13347.6053 2158.2182 0.0000 0.0000 867.3266 -10318.7672 149.0128 -11186.0938 -10316.7693 150.0896 -1102.1392 -986.2209 29405.5331 3.9937 3.9054
TCL: Running 100000 steps at 180 kelvin.
TCL: Setting parameter langevinTemp to 180
TCL: Running for 100000 steps
ETITLE: TS BOND ANGLE DIHED IMPRP ELECT VDW BOUNDARY MISC KINETIC TOTAL TEMP POTENTIAL TOTAL3 TEMPAVG PRESSURE GPRESSURE VOLUME PRESSAVG GPRESSAVG
ENERGY: 500000 0.2439 2.7418 0.3076 0.0000 -13347.6053 2158.2182 0.0000 0.0000 866.9120 -10319.1818 148.9416 -11186.0938 -10317.4932 148.9416 -1043.0018 -985.7277 29405.5331 -1043.0018 -985.7277
ENERGY: 600000 1.2316 4.3356 0.1636 0.0000 -13090.3661 2145.3936 0.0000 0.0000 1067.8119 -9871.4297 183.4576 -10939.2417 -9869.7754 179.7836 15.8499 111.4803 28849.1319 5.0802 5.1577
TCL: Running 100000 steps at 210 kelvin.
TCL: Setting parameter langevinTemp to 210
TCL: Running for 100000 steps
ETITLE: TS BOND ANGLE DIHED IMPRP ELECT VDW BOUNDARY MISC KINETIC TOTAL TEMP POTENTIAL TOTAL3 TEMPAVG PRESSURE GPRESSURE VOLUME PRESSAVG GPRESSAVG
ENERGY: 600000 1.2316 4.3356 0.1636 0.0000 -13090.3661 2145.3936 0.0000 0.0000 1067.2864 -9871.9552 183.3673 -10939.2417 -9870.0986 183.3673 41.3562 112.3909 28849.1319 41.3562 112.3909
ENERGY: 700000 1.4300 4.0481 0.3400 0.0000 -12357.4017 1959.9702 0.0000 0.0000 1165.5610 -9226.0525 200.2516 -10391.6135 -9225.0190 209.7534 649.6944 787.0098 28529.5367 2.6104 2.5337
TCL: Running 100000 steps at 240 kelvin.
TCL: Setting parameter langevinTemp to 240
TCL: Running for 100000 steps
ETITLE: TS BOND ANGLE DIHED IMPRP ELECT VDW BOUNDARY MISC KINETIC TOTAL TEMP POTENTIAL TOTAL3 TEMPAVG PRESSURE GPRESSURE VOLUME PRESSAVG GPRESSAVG
ENERGY: 700000 1.4300 4.0481 0.3400 0.0000 -12357.4017 1959.9702 0.0000 0.0000 1164.9482 -9226.6653 200.1463 -10391.6135 -9224.7464 200.1463 699.4578 784.2939 28529.5367 699.4578 784.2939
ENERGY: 800000 1.6723 3.7275 0.3491 0.0000 -11593.3450 1658.3772 0.0000 0.0000 1384.3914 -8544.8274 237.8482 -9929.2189 -8541.6405 239.6355 -111.0620 -65.3520 28862.4737 2.1715 2.2126
TCL: Running 100000 steps at 270 kelvin.
TCL: Setting parameter langevinTemp to 270
TCL: Running for 100000 steps
ETITLE: TS BOND ANGLE DIHED IMPRP ELECT VDW BOUNDARY MISC KINETIC TOTAL TEMP POTENTIAL TOTAL3 TEMPAVG PRESSURE GPRESSURE VOLUME PRESSAVG GPRESSAVG
ENERGY: 800000 1.6723 3.7275 0.3491 0.0000 -11593.3450 1658.3772 0.0000 0.0000 1383.6554 -8545.5634 237.7218 -9929.2189 -8543.2136 237.7218 -156.0353 -65.7580 28862.4737 -156.0353 -65.7580
ENERGY: 900000 0.8896 4.9801 0.1391 0.0000 -11049.6820 1504.7583 0.0000 0.0000 1581.2583 -7957.6565 271.6713 -9538.9148 -7953.0117 269.8482 -445.0489 -333.0842 29526.7095 4.0764 4.0554
TCL: Running 1000000 steps at 300 kelvin.
TCL: Setting parameter langevinTemp to 300
TCL: Running for 1000000 steps
ETITLE: TS BOND ANGLE DIHED IMPRP ELECT VDW BOUNDARY MISC KINETIC TOTAL TEMP POTENTIAL TOTAL3 TEMPAVG PRESSURE GPRESSURE VOLUME PRESSAVG GPRESSAVG
ENERGY: 900000 0.8896 4.9801 0.1391 0.0000 -11049.6820 1504.7583 0.0000 0.0000 1580.4791 -7958.4357 271.5375 -9538.9148 -7955.8145 271.5375 -421.9377 -331.5099 29526.7095 -421.9377 -331.5099
ENERGY: 1100000 1.6910 3.5663 0.7701 0.0000 -10559.0727 1407.9973 0.0000 0.0000 1784.7908 -7360.2572 306.6397 -9145.0480 -7357.2787 299.7097 146.3250 167.2581 30105.7791 3.2250 3.2299
ENERGY: 1300000 1.1140 5.1394 2.0956 0.0000 -10569.5528 1401.7481 0.0000 0.0000 1709.8759 -7449.5797 293.7688 -9159.4557 -7446.9322 300.1142 -302.8700 -223.9598 30291.7746 3.7624 3.8517
ENERGY: 1500000 0.9649 4.8568 0.5143 0.0000 -10652.8203 1398.1490 0.0000 0.0000 1779.7016 -7468.6338 305.7653 -9248.3354 -7466.3177 300.4319 -451.0021 -391.1158 30148.2019 4.0019 4.0642
ENERGY: 1700000 1.9027 9.7312 1.2147 0.0000 -10485.5803 1370.2431 0.0000 0.0000 1803.1656 -7299.3231 309.7966 -9102.4887 -7295.2314 300.0266 -201.4463 -164.8583 30354.0180 1.7475 1.7680
ENERGY: 1900000 1.0784 3.9792 0.2377 0.0000 -10552.2305 1365.7012 0.0000 0.0000 1800.7595 -7380.4745 309.3832 -9181.2340 -7376.4717 300.5489 -386.9718 -295.8029 30049.8695 4.2586 4.2040
TCL: Exiting due to exit command.
