Info: SIMULATION PARAMETERS:
Info: TIMESTEP               2
Info: NUMBER OF STEPS        0
Info: STEPS PER CYCLE        10
Info: PERIODIC CELL BASIS 1  35.89 0 0
Info: PERIODIC CELL BASIS 2  0 34.696 0
Info: PERIODIC CELL BASIS 3  0 0 35.644
Info: PERIODIC CELL CENTER   0 0 0
Info: WRAPPING WATERS AROUND PERIODIC BOUNDARIES ON OUTPUT.
Info: WRAPPING ALL CLUSTERS AROUND PERIODIC BOUNDARIES ON OUTPUT.
Info: FIRST LDB TIMESTEP     50
Info: LAST LDB TIMESTEP     -1
Info: HOM BACKGROUND SCALING 1
Info: PME BACKGROUND SCALING 1
Info: MIN ATOMS PER PATCH    40
Info: EMPTY PATCH LOAD       40 ATOMS
Info: INITIAL TEMPERATURE    300
Info: CENTER OF MASS MOVING INITIALLY? NO
Info: DIELECTRIC             1
Info: EXCLUDE                SCALED ONE-FOUR
Info: 1-4 ELECTROSTATICS SCALED BY 0.833333
Info: MODIFIED 1-4 VDW PARAMETERS WILL BE USED
Info: DCD FILENAME           mobley_511661_equil.dcd
Info: DCD FREQUENCY          100000
Info: DCD FIRST STEP         100000
Info: DCD FILE WILL CONTAIN UNIT CELL DATA
Info: XST FILENAME           mobley_511661_equil.xst
Info: XST FREQUENCY          100000
Info: NO VELOCITY DCD OUTPUT
Info: NO FORCE DCD OUTPUT
Info: OUTPUT FILENAME        mobley_511661_equil
Info: BINARY OUTPUT FILES WILL BE USED
Info: RESTART FILENAME       mobley_511661_equil.restart
Info: RESTART FREQUENCY      100000
Info: BINARY RESTART FILES WILL BE USED
Info: CUTOFF                 9
Info: PAIRLIST DISTANCE      11
Info: PAIRLIST SHRINK RATE   0.01
Info: PAIRLIST GROW RATE     0.01
Info: PAIRLIST TRIGGER       0.3
Info: PAIRLISTS PER CYCLE    2
Info: PAIRLISTS ENABLED
Info: MARGIN                 8
Info: HYDROGEN GROUP CUTOFF  2.5
Info: PATCH DIMENSION        21.5
Info: ENERGY OUTPUT STEPS    100000
Info: ENERGY EVALUATION STEPS    100000
Info: OUTPUT ENERGY PRECISION 4
Info: CROSSTERM ENERGY INCLUDED IN DIHEDRAL
Info: TIMING OUTPUT STEPS    1000000
Info: PRESSURE OUTPUT STEPS  100000
Info: LANGEVIN DYNAMICS ACTIVE
Info: LANGEVIN TEMPERATURE   30
Info: LANGEVIN USING BBK INTEGRATOR
Info: LANGEVIN DAMPING COEFFICIENT IS 1 INVERSE PS
Info: LANGEVIN DYNAMICS APPLIED TO HYDROGENS
Info: LANGEVIN PISTON PRESSURE CONTROL ACTIVE
Info:        TARGET PRESSURE IS 1.01325 BAR
Info:     OSCILLATION PERIOD IS 50 FS
Info:             DECAY TIME IS 25 FS
Info:     PISTON TEMPERATURE IS 300 K
Info:       PRESSURE CONTROL IS GROUP-BASED
Info:    INITIAL STRAIN RATE IS 0 0 0
Info:       CELL FLUCTUATION IS ISOTROPIC
Info: PARTICLE MESH EWALD (PME) ACTIVE
Info: PME TOLERANCE               1e-06
Info: PME EWALD COEFFICIENT       0.348832
Info: PME INTERPOLATION ORDER     4
Info: PME GRID DIMENSIONS         36 36 36
Info: PME MAXIMUM GRID SPACING    1
Info: FULL ELECTROSTATIC EVALUATION FREQUENCY      2
Info: USING VERLET I (r-RESPA) MTS SCHEME.
Info: C1 SPLITTING OF LONG RANGE ELECTROSTATICS
Info: PLACING ATOMS IN PATCHES BY HYDROGEN GROUPS
Info: RIGID BONDS TO HYDROGEN : ALL
Info:         ERROR TOLERANCE : 1e-08
Info:          MAX ITERATIONS : 100
Info: RIGID WATER USING SETTLE ALGORITHM
Info: RANDOM NUMBER SEED     1743224067
Info: USE HYDROGEN BONDS?    NO
Info: Using AMBER format force field!
Info: AMBER PARM FILE        mobley_511661.prmtop
Info: COORDINATE PDB         mobley_511661.pdb
Info: Exclusions will be read from PARM file!
Info: SCNB (VDW SCALING)     2
Info: USING ARITHMETIC MEAN TO COMBINE L-J SIGMA PARAMETERS
Info: BINARY COORDINATES     mobley_511661_min.coor
Info: SUMMARY OF PARAMETERS:
Info: 6 BONDS
Info: 5 ANGLES
Info:   5 HARMONIC
Info:   0 COSINE-BASED
Info: 3 DIHEDRAL
Info: 0 IMPROPER
Info: 0 CROSSTERM
Info: 0 VDW
Info: 10 VDW_PAIRS
Info: 0 NBTHOLE_PAIRS
Info: STRUCTURE SUMMARY:
Info: 2929 ATOMS
Info: 2928 BONDS
Info: 12 ANGLES
Info: 16 DIHEDRALS
Info: 0 IMPROPERS
Info: 0 CROSSTERMS
Info: 2952 EXCLUSIONS
Info: 2925 RIGID BONDS
Info: 5862 DEGREES OF FREEDOM
Info: 977 HYDROGEN GROUPS
Info: 3 ATOMS IN LARGEST HYDROGEN GROUP
Info: 977 MIGRATION GROUPS
Info: 3 ATOMS IN LARGEST MIGRATION GROUP
Info: TOTAL MASS = 17583.7 amu
Info: TOTAL CHARGE = -1.49012e-08 e
Info: MASS DENSITY = 0.657853 g/cm^3
Info: ATOM DENSITY = 0.0659903 atoms/A^3
Info: ADDED 0 IMPLICIT EXCLUSIONS
Info: NONBONDED TABLE R-SQUARED SPACING: 0.0625
Info: NONBONDED TABLE SIZE: 705 POINTS
Info: REMOVING COM VELOCITY -0.100436 -0.151927 -0.0847026
TCL: Running for 100000 steps
ETITLE: TS BOND ANGLE DIHED IMPRP ELECT VDW BOUNDARY MISC KINETIC TOTAL TEMP POTENTIAL TOTAL3 TEMPAVG PRESSURE GPRESSURE VOLUME PRESSAVG GPRESSAVG
ENERGY: 0 0.0035 0.0649 0.0826 0.0000 -13538.7975 2356.2580 0.0000 0.0000 1757.0466 -9425.3419 301.6670 -11182.3885 -9425.0235 301.6670 282.3738 314.6219 44385.3146 282.3738 314.6219
ENERGY: 100000 0.5947 0.3208 0.1046 0.0000 -14191.8166 2491.7079 0.0000 0.0000 177.9736 -11521.1149 30.5563 -11699.0885 -11520.5791 30.9204 147.3814 199.3961 28392.7796 4.3013 4.3065
TCL: Running 100000 steps at 60 kelvin.
TCL: Setting parameter langevinTemp to 60
TCL: Running for 100000 steps
ETITLE: TS BOND ANGLE DIHED IMPRP ELECT VDW BOUNDARY MISC KINETIC TOTAL TEMP POTENTIAL TOTAL3 TEMPAVG PRESSURE GPRESSURE VOLUME PRESSAVG GPRESSAVG
ENERGY: 100000 0.5947 0.3208 0.1046 0.0000 -14191.8166 2491.7079 0.0000 0.0000 177.8853 -11521.2032 30.5411 -11699.0885 -11520.7824 30.5411 150.9642 199.3581 28392.7796 150.9642 199.3581
ENERGY: 200000 0.7440 0.5810 0.3495 0.0000 -13859.5097 2254.9591 0.0000 0.0000 340.7129 -11262.1633 58.4969 -11602.8762 -11261.2809 60.0220 -1554.8645 -1513.3687 28689.8391 4.2178 4.3124
TCL: Running 100000 steps at 90 kelvin.
TCL: Setting parameter langevinTemp to 90
TCL: Running for 100000 steps
ETITLE: TS BOND ANGLE DIHED IMPRP ELECT VDW BOUNDARY MISC KINETIC TOTAL TEMP POTENTIAL TOTAL3 TEMPAVG PRESSURE GPRESSURE VOLUME PRESSAVG GPRESSAVG
ENERGY: 200000 0.7440 0.5810 0.3495 0.0000 -13859.5097 2254.9591 0.0000 0.0000 340.5378 -11262.3384 58.4669 -11602.8762 -11261.6030 58.4669 -1576.5789 -1513.7447 28689.8391 -1576.5789 -1513.7447
ENERGY: 300000 0.3454 0.6013 1.1528 0.0000 -13749.3639 2256.2921 0.0000 0.0000 533.5649 -10957.4075 91.6077 -11490.9724 -10955.7071 90.1957 -953.1007 -933.8582 28796.5830 4.6801 4.5838
TCL: Running 100000 steps at 120 kelvin.
TCL: Setting parameter langevinTemp to 120
TCL: Running for 100000 steps
ETITLE: TS BOND ANGLE DIHED IMPRP ELECT VDW BOUNDARY MISC KINETIC TOTAL TEMP POTENTIAL TOTAL3 TEMPAVG PRESSURE GPRESSURE VOLUME PRESSAVG GPRESSAVG
ENERGY: 300000 0.3454 0.6013 1.1528 0.0000 -13749.3639 2256.2921 0.0000 0.0000 533.3126 -10957.6598 91.5644 -11490.9724 -10956.6407 91.5644 -986.3481 -933.9281 28796.5830 -986.3481 -933.9281
ENERGY: 400000 0.6166 1.9030 0.6532 0.0000 -13643.6108 2265.6642 0.0000 0.0000 727.1812 -10647.5928 124.8496 -11374.7739 -10645.2680 119.9998 -544.3811 -460.5174 28665.7348 2.4246 2.2958
TCL: Running 100000 steps at 150 kelvin.
TCL: Setting parameter langevinTemp to 150
TCL: Running for 100000 steps
ETITLE: TS BOND ANGLE DIHED IMPRP ELECT VDW BOUNDARY MISC KINETIC TOTAL TEMP POTENTIAL TOTAL3 TEMPAVG PRESSURE GPRESSURE VOLUME PRESSAVG GPRESSAVG
ENERGY: 400000 0.6166 1.9030 0.6532 0.0000 -13643.6108 2265.6642 0.0000 0.0000 726.8339 -10647.9401 124.7900 -11374.7739 -10646.6917 124.7900 -524.6337 -460.1349 28665.7348 -524.6337 -460.1349
ENERGY: 500000 0.1678 1.8116 2.1879 0.0000 -13631.9736 2372.4750 0.0000 0.0000 869.6677 -10385.6636 149.3131 -11255.3314 -10383.6874 150.1412 956.6001 991.7449 28426.3772 3.7961 3.8794
TCL: Running 100000 steps at 180 kelvin.
TCL: Setting parameter langevinTemp to 180
TCL: Running for 100000 steps
ETITLE: TS BOND ANGLE DIHED IMPRP ELECT VDW BOUNDARY MISC KINETIC TOTAL TEMP POTENTIAL TOTAL3 TEMPAVG PRESSURE GPRESSURE VOLUME PRESSAVG GPRESSAVG
ENERGY: 500000 0.1678 1.8116 2.1879 0.0000 -13631.9736 2372.4750 0.0000 0.0000 869.2304 -10386.1009 149.2380 -11255.3314 -10384.5974 149.2380 928.1243 991.6633 28426.3772 928.1243 991.6633
ENERGY: 600000 0.5260 1.6439 2.2078 0.0000 -12976.5779 2077.7979 0.0000 0.0000 1048.5261 -9845.8761 180.0213 -10894.4022 -9843.8193 180.1259 -238.3834 -188.1743 28571.4138 3.6379 3.7385
TCL: Running 100000 steps at 210 kelvin.
TCL: Setting parameter langevinTemp to 210
TCL: Running for 100000 steps
ETITLE: TS BOND ANGLE DIHED IMPRP ELECT VDW BOUNDARY MISC KINETIC TOTAL TEMP POTENTIAL TOTAL3 TEMPAVG PRESSURE GPRESSURE VOLUME PRESSAVG GPRESSAVG
ENERGY: 600000 0.5260 1.6439 2.2078 0.0000 -12976.5779 2077.7979 0.0000 0.0000 1048.0012 -9846.4011 179.9311 -10894.4022 -9844.6227 179.9311 -238.8030 -187.2992 28571.4138 -238.8030 -187.2992
ENERGY: 700000 0.9939 2.0888 1.9629 0.0000 -12273.9067 1883.4891 0.0000 0.0000 1277.4275 -9107.9445 219.3213 -10385.3720 -9107.0713 210.4426 -76.3850 42.2167 28982.0157 4.7612 4.7328
TCL: Running 100000 steps at 240 kelvin.
TCL: Setting parameter langevinTemp to 240
TCL: Running for 100000 steps
ETITLE: TS BOND ANGLE DIHED IMPRP ELECT VDW BOUNDARY MISC KINETIC TOTAL TEMP POTENTIAL TOTAL3 TEMPAVG PRESSURE GPRESSURE VOLUME PRESSAVG GPRESSAVG
ENERGY: 700000 0.9939 2.0888 1.9629 0.0000 -12273.9067 1883.4891 0.0000 0.0000 1276.8224 -9108.5496 219.2174 -10385.3720 -9106.3883 219.2174 -37.5380 40.5983 28982.0157 -37.5380 40.5983
ENERGY: 800000 0.7167 1.6255 1.4480 0.0000 -11662.7881 1652.3199 0.0000 0.0000 1416.6125 -8590.0654 243.2180 -10006.6780 -8585.5597 240.1810 -270.7730 -175.3459 28537.2252 2.4713 2.5543
TCL: Running 100000 steps at 270 kelvin.
TCL: Setting parameter langevinTemp to 270
TCL: Running for 100000 steps
ETITLE: TS BOND ANGLE DIHED IMPRP ELECT VDW BOUNDARY MISC KINETIC TOTAL TEMP POTENTIAL TOTAL3 TEMPAVG PRESSURE GPRESSURE VOLUME PRESSAVG GPRESSAVG
ENERGY: 800000 0.7167 1.6255 1.4480 0.0000 -11662.7881 1652.3199 0.0000 0.0000 1415.8917 -8590.7862 243.0942 -10006.6780 -8588.1616 243.0942 -270.9540 -174.8116 28537.2252 -270.9540 -174.8116
ENERGY: 900000 2.2088 2.2423 0.8288 0.0000 -11089.6336 1514.8499 0.0000 0.0000 1585.0858 -7984.4181 272.1431 -9569.5039 -7980.8634 269.6928 -337.1384 -246.0295 29554.4540 1.2464 1.1793
TCL: Running 1000000 steps at 300 kelvin.
TCL: Setting parameter langevinTemp to 300
TCL: Running for 1000000 steps
ETITLE: TS BOND ANGLE DIHED IMPRP ELECT VDW BOUNDARY MISC KINETIC TOTAL TEMP POTENTIAL TOTAL3 TEMPAVG PRESSURE GPRESSURE VOLUME PRESSAVG GPRESSAVG
ENERGY: 900000 2.2088 2.2423 0.8288 0.0000 -11089.6336 1514.8499 0.0000 0.0000 1584.3257 -7985.1782 272.0126 -9569.5039 -7982.6421 272.0126 -348.0727 -246.1395 29554.4540 -348.0727 -246.1395
ENERGY: 1100000 1.4029 1.7205 1.3347 0.0000 -10658.0420 1428.7863 0.0000 0.0000 1699.2548 -7525.5428 291.7448 -9224.7976 -7522.4918 300.5536 -17.8390 32.2532 30111.3953 3.2005 3.2336
ENERGY: 1300000 0.2655 0.6331 2.9037 0.0000 -10676.5690 1451.6040 0.0000 0.0000 1723.4576 -7497.7051 295.9001 -9221.1627 -7494.6650 300.4478 308.2849 351.7828 29804.6533 4.0789 3.9615
ENERGY: 1500000 0.1566 0.8772 1.6956 0.0000 -10548.0427 1327.9649 0.0000 0.0000 1726.8382 -7490.5102 296.4806 -9217.3484 -7486.7946 300.3353 -911.0907 -769.9425 30199.0706 4.1554 3.8230
ENERGY: 1700000 1.6780 1.8568 3.7323 0.0000 -10666.4546 1432.0774 0.0000 0.0000 1783.1945 -7443.9156 306.1564 -9227.1101 -7442.8202 299.7176 -30.3181 -3.1131 30089.3251 2.9237 2.8703
ENERGY: 1900000 0.0797 1.1177 3.7069 0.0000 -10777.0874 1501.6614 0.0000 0.0000 1774.0410 -7496.4809 304.5848 -9270.5219 -7494.2317 300.1050 282.5906 398.5727 30155.8258 3.6557 3.7343
TCL: Exiting due to exit command.
