Info: SIMULATION PARAMETERS:
Info: TIMESTEP               2
Info: NUMBER OF STEPS        0
Info: STEPS PER CYCLE        10
Info: PERIODIC CELL BASIS 1  35.01 0 0
Info: PERIODIC CELL BASIS 2  0 34.26 0
Info: PERIODIC CELL BASIS 3  0 0 35.856
Info: PERIODIC CELL CENTER   0 0 0
Info: WRAPPING WATERS AROUND PERIODIC BOUNDARIES ON OUTPUT.
Info: WRAPPING ALL CLUSTERS AROUND PERIODIC BOUNDARIES ON OUTPUT.
Info: FIRST LDB TIMESTEP     50
Info: LAST LDB TIMESTEP     -1
Info: HOM BACKGROUND SCALING 1
Info: PME BACKGROUND SCALING 1
Info: MIN ATOMS PER PATCH    40
Info: EMPTY PATCH LOAD       40 ATOMS
Info: INITIAL TEMPERATURE    300
Info: CENTER OF MASS MOVING INITIALLY? NO
Info: DIELECTRIC             1
Info: EXCLUDE                SCALED ONE-FOUR
Info: 1-4 ELECTROSTATICS SCALED BY 0.833333
Info: MODIFIED 1-4 VDW PARAMETERS WILL BE USED
Info: DCD FILENAME           mobley_5852491_equil.dcd
Info: DCD FREQUENCY          100000
Info: DCD FIRST STEP         100000
Info: DCD FILE WILL CONTAIN UNIT CELL DATA
Info: XST FILENAME           mobley_5852491_equil.xst
Info: XST FREQUENCY          100000
Info: NO VELOCITY DCD OUTPUT
Info: NO FORCE DCD OUTPUT
Info: OUTPUT FILENAME        mobley_5852491_equil
Info: BINARY OUTPUT FILES WILL BE USED
Info: RESTART FILENAME       mobley_5852491_equil.restart
Info: RESTART FREQUENCY      100000
Info: BINARY RESTART FILES WILL BE USED
Info: CUTOFF                 9
Info: PAIRLIST DISTANCE      11
Info: PAIRLIST SHRINK RATE   0.01
Info: PAIRLIST GROW RATE     0.01
Info: PAIRLIST TRIGGER       0.3
Info: PAIRLISTS PER CYCLE    2
Info: PAIRLISTS ENABLED
Info: MARGIN                 8
Info: HYDROGEN GROUP CUTOFF  2.5
Info: PATCH DIMENSION        21.5
Info: ENERGY OUTPUT STEPS    100000
Info: ENERGY EVALUATION STEPS    100000
Info: OUTPUT ENERGY PRECISION 4
Info: CROSSTERM ENERGY INCLUDED IN DIHEDRAL
Info: TIMING OUTPUT STEPS    1000000
Info: PRESSURE OUTPUT STEPS  100000
Info: LANGEVIN DYNAMICS ACTIVE
Info: LANGEVIN TEMPERATURE   30
Info: LANGEVIN USING BBK INTEGRATOR
Info: LANGEVIN DAMPING COEFFICIENT IS 1 INVERSE PS
Info: LANGEVIN DYNAMICS APPLIED TO HYDROGENS
Info: LANGEVIN PISTON PRESSURE CONTROL ACTIVE
Info:        TARGET PRESSURE IS 1.01325 BAR
Info:     OSCILLATION PERIOD IS 50 FS
Info:             DECAY TIME IS 25 FS
Info:     PISTON TEMPERATURE IS 300 K
Info:       PRESSURE CONTROL IS GROUP-BASED
Info:    INITIAL STRAIN RATE IS 0 0 0
Info:       CELL FLUCTUATION IS ISOTROPIC
Info: PARTICLE MESH EWALD (PME) ACTIVE
Info: PME TOLERANCE               1e-06
Info: PME EWALD COEFFICIENT       0.348832
Info: PME INTERPOLATION ORDER     4
Info: PME GRID DIMENSIONS         36 36 36
Info: PME MAXIMUM GRID SPACING    1
Info: FULL ELECTROSTATIC EVALUATION FREQUENCY      2
Info: USING VERLET I (r-RESPA) MTS SCHEME.
Info: C1 SPLITTING OF LONG RANGE ELECTROSTATICS
Info: PLACING ATOMS IN PATCHES BY HYDROGEN GROUPS
Info: RIGID BONDS TO HYDROGEN : ALL
Info:         ERROR TOLERANCE : 1e-08
Info:          MAX ITERATIONS : 100
Info: RIGID WATER USING SETTLE ALGORITHM
Info: RANDOM NUMBER SEED     1743215294
Info: USE HYDROGEN BONDS?    NO
Info: Using AMBER format force field!
Info: AMBER PARM FILE        mobley_5852491.prmtop
Info: COORDINATE PDB         mobley_5852491.pdb
Info: Exclusions will be read from PARM file!
Info: SCNB (VDW SCALING)     2
Info: USING ARITHMETIC MEAN TO COMBINE L-J SIGMA PARAMETERS
Info: BINARY COORDINATES     mobley_5852491_min.coor
Info: SUMMARY OF PARAMETERS:
Info: 4 BONDS
Info: 3 ANGLES
Info:   3 HARMONIC
Info:   0 COSINE-BASED
Info: 5 DIHEDRAL
Info: 0 IMPROPER
Info: 0 CROSSTERM
Info: 0 VDW
Info: 10 VDW_PAIRS
Info: 0 NBTHOLE_PAIRS
Info: STRUCTURE SUMMARY:
Info: 2904 ATOMS
Info: 2904 BONDS
Info: 36 ANGLES
Info: 68 DIHEDRALS
Info: 0 IMPROPERS
Info: 0 CROSSTERMS
Info: 2989 EXCLUSIONS
Info: 2898 RIGID BONDS
Info: 5814 DEGREES OF FREEDOM
Info: 968 HYDROGEN GROUPS
Info: 4 ATOMS IN LARGEST HYDROGEN GROUP
Info: 968 MIGRATION GROUPS
Info: 4 ATOMS IN LARGEST MIGRATION GROUP
Info: TOTAL MASS = 17415.5 amu
Info: TOTAL CHARGE = 0.000100002 e
Info: MASS DENSITY = 0.672442 g/cm^3
Info: ATOM DENSITY = 0.0675236 atoms/A^3
Info: ADDED 0 IMPLICIT EXCLUSIONS
Info: NONBONDED TABLE R-SQUARED SPACING: 0.0625
Info: NONBONDED TABLE SIZE: 705 POINTS
Info: REMOVING COM VELOCITY 0.00803566 0.0330057 0.232841
TCL: Running for 100000 steps
ETITLE: TS BOND ANGLE DIHED IMPRP ELECT VDW BOUNDARY MISC KINETIC TOTAL TEMP POTENTIAL TOTAL3 TEMPAVG PRESSURE GPRESSURE VOLUME PRESSAVG GPRESSAVG
ENERGY: 0 0.0486 4.4224 9.7036 0.0000 -13404.9007 2321.7206 0.0000 0.0000 1699.3338 -9369.6717 294.1671 -11069.0055 -9369.3547 294.1671 131.1161 158.6241 43007.2139 131.1161 158.6241
ENERGY: 100000 0.0995 5.7224 9.4691 0.0000 -13891.7353 2385.7926 0.0000 0.0000 172.6401 -11318.0116 29.8853 -11490.6517 -11317.1974 30.8812 -237.1172 -184.6617 28999.4752 4.3768 4.3545
TCL: Running 100000 steps at 60 kelvin.
TCL: Setting parameter langevinTemp to 60
TCL: Running for 100000 steps
ETITLE: TS BOND ANGLE DIHED IMPRP ELECT VDW BOUNDARY MISC KINETIC TOTAL TEMP POTENTIAL TOTAL3 TEMPAVG PRESSURE GPRESSURE VOLUME PRESSAVG GPRESSAVG
ENERGY: 100000 0.0995 5.7224 9.4691 0.0000 -13891.7353 2385.7926 0.0000 0.0000 172.5532 -11318.0984 29.8702 -11490.6517 -11317.6689 29.8702 -234.8585 -184.4996 28999.4752 -234.8585 -184.4996
ENERGY: 200000 0.5320 6.8970 9.1607 0.0000 -13818.5238 2394.3786 0.0000 0.0000 336.7806 -11070.7748 58.2992 -11407.5555 -11069.7940 59.9952 225.7548 279.4290 28762.9703 5.6101 5.6909
TCL: Running 100000 steps at 90 kelvin.
TCL: Setting parameter langevinTemp to 90
TCL: Running for 100000 steps
ETITLE: TS BOND ANGLE DIHED IMPRP ELECT VDW BOUNDARY MISC KINETIC TOTAL TEMP POTENTIAL TOTAL3 TEMPAVG PRESSURE GPRESSURE VOLUME PRESSAVG GPRESSAVG
ENERGY: 200000 0.5320 6.8970 9.1607 0.0000 -13818.5238 2394.3786 0.0000 0.0000 336.6127 -11070.9428 58.2701 -11407.5555 -11070.3407 58.2701 216.7648 279.8787 28762.9703 216.7648 279.8787
ENERGY: 300000 1.0938 7.9558 9.7108 0.0000 -13531.3967 2199.4780 0.0000 0.0000 511.4095 -10801.7488 88.5287 -11313.1583 -10800.8610 90.1239 -1132.6854 -1072.4239 28901.0007 4.7619 4.7393
TCL: Running 100000 steps at 120 kelvin.
TCL: Setting parameter langevinTemp to 120
TCL: Running for 100000 steps
ETITLE: TS BOND ANGLE DIHED IMPRP ELECT VDW BOUNDARY MISC KINETIC TOTAL TEMP POTENTIAL TOTAL3 TEMPAVG PRESSURE GPRESSURE VOLUME PRESSAVG GPRESSAVG
ENERGY: 300000 1.0938 7.9558 9.7108 0.0000 -13531.3967 2199.4780 0.0000 0.0000 511.1557 -10802.0026 88.4848 -11313.1583 -10800.8621 88.4848 -1136.0361 -1072.8469 28901.0007 -1136.0361 -1072.8469
ENERGY: 400000 0.2235 9.5115 10.8058 0.0000 -13601.7030 2331.6026 0.0000 0.0000 703.4079 -10546.1518 121.7650 -11249.5597 -10545.9264 120.2795 504.0318 579.7359 28030.0532 4.8950 4.8739
TCL: Running 100000 steps at 150 kelvin.
TCL: Setting parameter langevinTemp to 150
TCL: Running for 100000 steps
ETITLE: TS BOND ANGLE DIHED IMPRP ELECT VDW BOUNDARY MISC KINETIC TOTAL TEMP POTENTIAL TOTAL3 TEMPAVG PRESSURE GPRESSURE VOLUME PRESSAVG GPRESSAVG
ENERGY: 400000 0.2235 9.5115 10.8058 0.0000 -13601.7030 2331.6026 0.0000 0.0000 703.0703 -10546.4895 121.7066 -11249.5597 -10544.9986 121.7066 529.8934 579.4391 28030.0532 529.8934 579.4391
ENERGY: 500000 1.2192 7.5945 10.6145 0.0000 -13275.8097 2176.4724 0.0000 0.0000 872.0748 -10207.8342 150.9625 -11079.9090 -10206.0100 149.8301 -382.2633 -334.5867 28671.5274 4.0531 3.9186
TCL: Running 100000 steps at 180 kelvin.
TCL: Setting parameter langevinTemp to 180
TCL: Running for 100000 steps
ETITLE: TS BOND ANGLE DIHED IMPRP ELECT VDW BOUNDARY MISC KINETIC TOTAL TEMP POTENTIAL TOTAL3 TEMPAVG PRESSURE GPRESSURE VOLUME PRESSAVG GPRESSAVG
ENERGY: 500000 1.2192 7.5945 10.6145 0.0000 -13275.8097 2176.4724 0.0000 0.0000 871.6508 -10208.2582 150.8891 -11079.9091 -10206.4819 150.8891 -378.1750 -334.9397 28671.5274 -378.1750 -334.9397
ENERGY: 600000 1.9668 9.2331 9.1138 0.0000 -12873.9371 2042.1274 0.0000 0.0000 1048.0674 -9763.4286 181.4281 -10811.4960 -9759.4695 179.9658 -453.3784 -394.5496 28465.1955 3.6545 3.6001
TCL: Running 100000 steps at 210 kelvin.
TCL: Setting parameter langevinTemp to 210
TCL: Running for 100000 steps
ETITLE: TS BOND ANGLE DIHED IMPRP ELECT VDW BOUNDARY MISC KINETIC TOTAL TEMP POTENTIAL TOTAL3 TEMPAVG PRESSURE GPRESSURE VOLUME PRESSAVG GPRESSAVG
ENERGY: 600000 1.9668 9.2331 9.1138 0.0000 -12873.9371 2042.1274 0.0000 0.0000 1047.5379 -9763.9580 181.3365 -10811.4960 -9761.5445 181.3365 -465.1386 -394.5720 28465.1955 -465.1386 -394.5720
ENERGY: 700000 2.0405 10.8588 10.0093 0.0000 -12244.9152 1892.1748 0.0000 0.0000 1255.3381 -9074.4937 217.3082 -10329.8318 -9072.7612 209.6229 559.5299 684.9695 27842.8673 2.9439 2.8516
TCL: Running 100000 steps at 240 kelvin.
TCL: Setting parameter langevinTemp to 240
TCL: Running for 100000 steps
ETITLE: TS BOND ANGLE DIHED IMPRP ELECT VDW BOUNDARY MISC KINETIC TOTAL TEMP POTENTIAL TOTAL3 TEMPAVG PRESSURE GPRESSURE VOLUME PRESSAVG GPRESSAVG
ENERGY: 700000 2.0405 10.8588 10.0093 0.0000 -12244.9152 1892.1748 0.0000 0.0000 1254.7340 -9075.0978 217.2036 -10329.8318 -9073.4178 217.2036 614.7682 684.3934 27842.8673 614.7682 684.3934
ENERGY: 800000 1.1209 13.6590 9.9309 0.0000 -11498.5807 1617.7265 0.0000 0.0000 1395.4929 -8460.6505 241.5700 -9856.1434 -8458.2147 240.2466 -448.6531 -385.8132 28683.5288 3.9906 3.8691
TCL: Running 100000 steps at 270 kelvin.
TCL: Setting parameter langevinTemp to 270
TCL: Running for 100000 steps
ETITLE: TS BOND ANGLE DIHED IMPRP ELECT VDW BOUNDARY MISC KINETIC TOTAL TEMP POTENTIAL TOTAL3 TEMPAVG PRESSURE GPRESSURE VOLUME PRESSAVG GPRESSAVG
ENERGY: 800000 1.1209 13.6590 9.9309 0.0000 -11498.5807 1617.7265 0.0000 0.0000 1394.8416 -8461.3017 241.4573 -9856.1434 -8458.9693 241.4573 -465.4096 -384.2531 28683.5288 -465.4096 -384.2531
ENERGY: 900000 1.5773 11.9331 8.8890 0.0000 -11142.7669 1604.0715 0.0000 0.0000 1564.5978 -7951.6983 270.8433 -9516.2961 -7949.9279 269.6460 609.6864 641.2098 28685.7493 3.2884 3.0188
TCL: Running 1000000 steps at 300 kelvin.
TCL: Setting parameter langevinTemp to 300
TCL: Running for 1000000 steps
ETITLE: TS BOND ANGLE DIHED IMPRP ELECT VDW BOUNDARY MISC KINETIC TOTAL TEMP POTENTIAL TOTAL3 TEMPAVG PRESSURE GPRESSURE VOLUME PRESSAVG GPRESSAVG
ENERGY: 900000 1.5773 11.9331 8.8890 0.0000 -11142.7669 1604.0715 0.0000 0.0000 1563.8282 -7952.4679 270.7101 -9516.2961 -7949.8510 270.7101 547.0118 639.3881 28685.7493 547.0118 639.3881
ENERGY: 1100000 1.5414 11.0931 10.7143 0.0000 -10596.6031 1453.1047 0.0000 0.0000 1749.1032 -7371.0463 302.7825 -9120.1496 -7367.8311 299.5761 327.0322 381.0859 29624.2557 2.9409 3.1073
ENERGY: 1300000 5.4453 12.2607 9.3968 0.0000 -10441.1355 1337.5283 0.0000 0.0000 1771.8818 -7304.6226 306.7257 -9076.5044 -7301.1641 300.1219 -913.1485 -811.2674 30351.4471 2.8008 2.7715
ENERGY: 1500000 5.3275 13.0272 9.1446 0.0000 -10570.3125 1413.4239 0.0000 0.0000 1704.6283 -7424.7610 295.0836 -9129.3893 -7423.0779 300.8663 -406.9932 -298.5680 30274.3926 3.5772 3.4558
ENERGY: 1700000 2.7215 11.0307 12.3330 0.0000 -10546.0476 1397.7257 0.0000 0.0000 1704.6061 -7417.6306 295.0797 -9122.2367 -7414.3398 299.9276 -146.2847 -26.1455 29844.1814 3.2795 3.3348
ENERGY: 1900000 1.6930 10.0149 12.2215 0.0000 -10432.5737 1306.6855 0.0000 0.0000 1743.8479 -7358.1110 301.8728 -9101.9589 -7354.8880 299.9994 -788.7305 -730.2913 30070.8689 2.7082 2.8001
TCL: Exiting due to exit command.
