Info: SIMULATION PARAMETERS:
Info: TIMESTEP               2
Info: NUMBER OF STEPS        0
Info: STEPS PER CYCLE        10
Info: PERIODIC CELL BASIS 1  36.005 0 0
Info: PERIODIC CELL BASIS 2  0 33.542 0
Info: PERIODIC CELL BASIS 3  0 0 36.199
Info: PERIODIC CELL CENTER   0 0 0
Info: WRAPPING WATERS AROUND PERIODIC BOUNDARIES ON OUTPUT.
Info: WRAPPING ALL CLUSTERS AROUND PERIODIC BOUNDARIES ON OUTPUT.
Info: FIRST LDB TIMESTEP     50
Info: LAST LDB TIMESTEP     -1
Info: HOM BACKGROUND SCALING 1
Info: PME BACKGROUND SCALING 1
Info: MIN ATOMS PER PATCH    40
Info: EMPTY PATCH LOAD       40 ATOMS
Info: INITIAL TEMPERATURE    300
Info: CENTER OF MASS MOVING INITIALLY? NO
Info: DIELECTRIC             1
Info: EXCLUDE                SCALED ONE-FOUR
Info: 1-4 ELECTROSTATICS SCALED BY 0.833333
Info: MODIFIED 1-4 VDW PARAMETERS WILL BE USED
Info: DCD FILENAME           mobley_7573149_equil.dcd
Info: DCD FREQUENCY          100000
Info: DCD FIRST STEP         100000
Info: DCD FILE WILL CONTAIN UNIT CELL DATA
Info: XST FILENAME           mobley_7573149_equil.xst
Info: XST FREQUENCY          100000
Info: NO VELOCITY DCD OUTPUT
Info: NO FORCE DCD OUTPUT
Info: OUTPUT FILENAME        mobley_7573149_equil
Info: BINARY OUTPUT FILES WILL BE USED
Info: RESTART FILENAME       mobley_7573149_equil.restart
Info: RESTART FREQUENCY      100000
Info: BINARY RESTART FILES WILL BE USED
Info: CUTOFF                 9
Info: PAIRLIST DISTANCE      11
Info: PAIRLIST SHRINK RATE   0.01
Info: PAIRLIST GROW RATE     0.01
Info: PAIRLIST TRIGGER       0.3
Info: PAIRLISTS PER CYCLE    2
Info: PAIRLISTS ENABLED
Info: MARGIN                 8
Info: HYDROGEN GROUP CUTOFF  2.5
Info: PATCH DIMENSION        21.5
Info: ENERGY OUTPUT STEPS    100000
Info: ENERGY EVALUATION STEPS    100000
Info: OUTPUT ENERGY PRECISION 4
Info: CROSSTERM ENERGY INCLUDED IN DIHEDRAL
Info: TIMING OUTPUT STEPS    1000000
Info: PRESSURE OUTPUT STEPS  100000
Info: LANGEVIN DYNAMICS ACTIVE
Info: LANGEVIN TEMPERATURE   30
Info: LANGEVIN USING BBK INTEGRATOR
Info: LANGEVIN DAMPING COEFFICIENT IS 1 INVERSE PS
Info: LANGEVIN DYNAMICS APPLIED TO HYDROGENS
Info: LANGEVIN PISTON PRESSURE CONTROL ACTIVE
Info:        TARGET PRESSURE IS 1.01325 BAR
Info:     OSCILLATION PERIOD IS 50 FS
Info:             DECAY TIME IS 25 FS
Info:     PISTON TEMPERATURE IS 300 K
Info:       PRESSURE CONTROL IS GROUP-BASED
Info:    INITIAL STRAIN RATE IS 0 0 0
Info:       CELL FLUCTUATION IS ISOTROPIC
Info: PARTICLE MESH EWALD (PME) ACTIVE
Info: PME TOLERANCE               1e-06
Info: PME EWALD COEFFICIENT       0.348832
Info: PME INTERPOLATION ORDER     4
Info: PME GRID DIMENSIONS         40 36 40
Info: PME MAXIMUM GRID SPACING    1
Info: FULL ELECTROSTATIC EVALUATION FREQUENCY      2
Info: USING VERLET I (r-RESPA) MTS SCHEME.
Info: C1 SPLITTING OF LONG RANGE ELECTROSTATICS
Info: PLACING ATOMS IN PATCHES BY HYDROGEN GROUPS
Info: RIGID BONDS TO HYDROGEN : ALL
Info:         ERROR TOLERANCE : 1e-08
Info:          MAX ITERATIONS : 100
Info: RIGID WATER USING SETTLE ALGORITHM
Info: RANDOM NUMBER SEED     1743241215
Info: USE HYDROGEN BONDS?    NO
Info: Using AMBER format force field!
Info: AMBER PARM FILE        mobley_7573149.prmtop
Info: COORDINATE PDB         mobley_7573149.pdb
Info: Exclusions will be read from PARM file!
Info: SCNB (VDW SCALING)     2
Info: USING ARITHMETIC MEAN TO COMBINE L-J SIGMA PARAMETERS
Info: BINARY COORDINATES     mobley_7573149_min.coor
Info: SUMMARY OF PARAMETERS:
Info: 9 BONDS
Info: 12 ANGLES
Info:   12 HARMONIC
Info:   0 COSINE-BASED
Info: 17 DIHEDRAL
Info: 0 IMPROPER
Info: 0 CROSSTERM
Info: 0 VDW
Info: 36 VDW_PAIRS
Info: 0 NBTHOLE_PAIRS
Info: STRUCTURE SUMMARY:
Info: 2915 ATOMS
Info: 2914 BONDS
Info: 28 ANGLES
Info: 42 DIHEDRALS
Info: 0 IMPROPERS
Info: 0 CROSSTERMS
Info: 2971 EXCLUSIONS
Info: 2908 RIGID BONDS
Info: 5837 DEGREES OF FREEDOM
Info: 973 HYDROGEN GROUPS
Info: 4 ATOMS IN LARGEST HYDROGEN GROUP
Info: 973 MIGRATION GROUPS
Info: 4 ATOMS IN LARGEST MIGRATION GROUP
Info: TOTAL MASS = 17505.6 amu
Info: TOTAL CHARGE = -9.99682e-05 e
Info: MASS DENSITY = 0.664948 g/cm^3
Info: ATOM DENSITY = 0.0666792 atoms/A^3
Info: ADDED 0 IMPLICIT EXCLUSIONS
Info: NONBONDED TABLE R-SQUARED SPACING: 0.0625
Info: NONBONDED TABLE SIZE: 705 POINTS
Info: REMOVING COM VELOCITY 0.039231 0.0668674 0.0748299
TCL: Running for 100000 steps
ETITLE: TS BOND ANGLE DIHED IMPRP ELECT VDW BOUNDARY MISC KINETIC TOTAL TEMP POTENTIAL TOTAL3 TEMPAVG PRESSURE GPRESSURE VOLUME PRESSAVG GPRESSAVG
ENERGY: 0 0.0661 0.4042 5.0765 0.0000 -13466.8491 2391.8163 0.0000 0.0000 1746.0843 -9323.4017 301.0689 -11069.4860 -9323.0532 301.0689 685.1631 722.5044 43716.7978 685.1631 722.5044
ENERGY: 100000 0.4466 1.1780 4.9559 0.0000 -14035.3737 2430.7535 0.0000 0.0000 171.3733 -11426.6664 29.5491 -11598.0397 -11426.5325 30.9451 200.8881 240.4188 28480.9617 3.8510 3.8564
TCL: Running 100000 steps at 60 kelvin.
TCL: Setting parameter langevinTemp to 60
TCL: Running for 100000 steps
ETITLE: TS BOND ANGLE DIHED IMPRP ELECT VDW BOUNDARY MISC KINETIC TOTAL TEMP POTENTIAL TOTAL3 TEMPAVG PRESSURE GPRESSURE VOLUME PRESSAVG GPRESSAVG
ENERGY: 100000 0.4466 1.1780 4.9559 0.0000 -14035.3737 2430.7535 0.0000 0.0000 171.2885 -11426.7512 29.5345 -11598.0397 -11426.3749 29.5345 182.8579 240.0834 28480.9617 182.8579 240.0834
ENERGY: 200000 0.9355 2.0428 5.2777 0.0000 -13766.6420 2212.3248 0.0000 0.0000 349.3344 -11196.7268 60.2341 -11546.0613 -11195.9868 59.9034 -1552.9026 -1487.8816 28692.4464 3.8083 3.7865
TCL: Running 100000 steps at 90 kelvin.
TCL: Setting parameter langevinTemp to 90
TCL: Running for 100000 steps
ETITLE: TS BOND ANGLE DIHED IMPRP ELECT VDW BOUNDARY MISC KINETIC TOTAL TEMP POTENTIAL TOTAL3 TEMPAVG PRESSURE GPRESSURE VOLUME PRESSAVG GPRESSAVG
ENERGY: 200000 0.9355 2.0428 5.2777 0.0000 -13766.6420 2212.3248 0.0000 0.0000 349.1601 -11196.9012 60.2040 -11546.0613 -11196.2502 60.2040 -1550.1661 -1487.8485 28692.4464 -1550.1661 -1487.8485
ENERGY: 300000 0.3201 2.7440 5.1796 0.0000 -13830.3407 2367.7538 0.0000 0.0000 523.1141 -10931.2292 90.1980 -11454.3433 -10929.3434 89.8693 197.2016 231.3907 28645.1360 4.2850 4.2828
TCL: Running 100000 steps at 120 kelvin.
TCL: Setting parameter langevinTemp to 120
TCL: Running for 100000 steps
ETITLE: TS BOND ANGLE DIHED IMPRP ELECT VDW BOUNDARY MISC KINETIC TOTAL TEMP POTENTIAL TOTAL3 TEMPAVG PRESSURE GPRESSURE VOLUME PRESSAVG GPRESSAVG
ENERGY: 300000 0.3201 2.7440 5.1796 0.0000 -13830.3407 2367.7538 0.0000 0.0000 522.8481 -10931.4952 90.1522 -11454.3433 -10930.3694 90.1522 166.8821 231.5045 28645.1360 166.8821 231.5045
ENERGY: 400000 1.1780 4.2817 5.2011 0.0000 -13685.4046 2375.8364 0.0000 0.0000 692.9321 -10605.9752 119.4789 -11298.9074 -10605.2437 119.8997 996.0431 1064.5259 28289.8159 4.6527 4.7239
TCL: Running 100000 steps at 150 kelvin.
TCL: Setting parameter langevinTemp to 150
TCL: Running for 100000 steps
ETITLE: TS BOND ANGLE DIHED IMPRP ELECT VDW BOUNDARY MISC KINETIC TOTAL TEMP POTENTIAL TOTAL3 TEMPAVG PRESSURE GPRESSURE VOLUME PRESSAVG GPRESSAVG
ENERGY: 400000 1.1780 4.2817 5.2011 0.0000 -13685.4046 2375.8364 0.0000 0.0000 692.5619 -10606.3454 119.4151 -11298.9074 -10605.1191 119.4151 1013.4498 1063.7083 28289.8159 1013.4498 1063.7083
ENERGY: 500000 2.2059 2.4308 5.6481 0.0000 -13331.5168 2182.5329 0.0000 0.0000 849.4330 -10289.2662 146.4636 -11138.6992 -10286.7439 149.6726 -245.9554 -213.1682 28565.9630 3.3592 3.2140
TCL: Running 100000 steps at 180 kelvin.
TCL: Setting parameter langevinTemp to 180
TCL: Running for 100000 steps
ETITLE: TS BOND ANGLE DIHED IMPRP ELECT VDW BOUNDARY MISC KINETIC TOTAL TEMP POTENTIAL TOTAL3 TEMPAVG PRESSURE GPRESSURE VOLUME PRESSAVG GPRESSAVG
ENERGY: 500000 2.2059 2.4308 5.6481 0.0000 -13331.5168 2182.5329 0.0000 0.0000 849.0111 -10289.6881 146.3909 -11138.6992 -10288.1928 146.3909 -276.1498 -212.7275 28565.9630 -276.1498 -212.7275
ENERGY: 600000 0.4405 3.0044 5.8511 0.0000 -12930.8737 2051.3385 0.0000 0.0000 1046.9802 -9823.2590 180.5258 -10870.2392 -9820.7316 179.9181 -223.8038 -130.7343 28284.2265 4.5001 4.6550
TCL: Running 100000 steps at 210 kelvin.
TCL: Setting parameter langevinTemp to 210
TCL: Running for 100000 steps
ETITLE: TS BOND ANGLE DIHED IMPRP ELECT VDW BOUNDARY MISC KINETIC TOTAL TEMP POTENTIAL TOTAL3 TEMPAVG PRESSURE GPRESSURE VOLUME PRESSAVG GPRESSAVG
ENERGY: 600000 0.4405 3.0044 5.8511 0.0000 -12930.8737 2051.3385 0.0000 0.0000 1046.4558 -9823.7834 180.4353 -10870.2392 -9821.6064 180.4353 -206.4789 -130.8666 28284.2265 -206.4789 -130.8666
ENERGY: 700000 0.3430 7.4235 4.9352 0.0000 -12128.4779 1816.3858 0.0000 0.0000 1222.1159 -9077.2744 210.7236 -10299.3903 -9073.1728 209.9770 -0.9449 75.3856 28271.7372 4.0443 4.1285
TCL: Running 100000 steps at 240 kelvin.
TCL: Setting parameter langevinTemp to 240
TCL: Running for 100000 steps
ETITLE: TS BOND ANGLE DIHED IMPRP ELECT VDW BOUNDARY MISC KINETIC TOTAL TEMP POTENTIAL TOTAL3 TEMPAVG PRESSURE GPRESSURE VOLUME PRESSAVG GPRESSAVG
ENERGY: 700000 0.3430 7.4235 4.9352 0.0000 -12128.4779 1816.3858 0.0000 0.0000 1221.4866 -9077.9038 210.6150 -10299.3903 -9075.9124 210.6150 -0.4747 75.5235 28271.7372 -0.4747 75.5235
ENERGY: 800000 0.8845 8.4387 5.2115 0.0000 -11687.4226 1702.9643 0.0000 0.0000 1376.5300 -8593.3936 237.3484 -9969.9236 -8589.2217 239.9041 15.1187 127.1583 28779.9431 3.6163 3.6715
TCL: Running 100000 steps at 270 kelvin.
TCL: Setting parameter langevinTemp to 270
TCL: Running for 100000 steps
ETITLE: TS BOND ANGLE DIHED IMPRP ELECT VDW BOUNDARY MISC KINETIC TOTAL TEMP POTENTIAL TOTAL3 TEMPAVG PRESSURE GPRESSURE VOLUME PRESSAVG GPRESSAVG
ENERGY: 800000 0.8845 8.4387 5.2115 0.0000 -11687.4226 1702.9643 0.0000 0.0000 1375.8394 -8594.0842 237.2294 -9969.9236 -8592.0820 237.2294 51.3365 127.6363 28779.9431 51.3365 127.6363
ENERGY: 900000 2.8394 7.8747 4.1106 0.0000 -10973.5609 1458.8975 0.0000 0.0000 1637.3189 -7862.5198 282.3150 -9499.8386 -7859.0908 270.3329 -518.8895 -487.7746 29557.7518 2.1697 2.2287
TCL: Running 1000000 steps at 300 kelvin.
TCL: Setting parameter langevinTemp to 300
TCL: Running for 1000000 steps
ETITLE: TS BOND ANGLE DIHED IMPRP ELECT VDW BOUNDARY MISC KINETIC TOTAL TEMP POTENTIAL TOTAL3 TEMPAVG PRESSURE GPRESSURE VOLUME PRESSAVG GPRESSAVG
ENERGY: 900000 2.8394 7.8747 4.1106 0.0000 -10973.5609 1458.8975 0.0000 0.0000 1636.5546 -7863.2841 282.1832 -9499.8386 -7860.8447 282.1832 -571.9581 -487.8515 29557.7518 -571.9581 -487.8515
ENERGY: 1100000 0.9342 9.8853 5.5860 0.0000 -10664.6880 1437.2324 0.0000 0.0000 1740.1834 -7470.8667 300.0514 -9211.0502 -7467.6120 299.8929 196.6617 244.4084 29642.1532 4.4320 4.5147
ENERGY: 1300000 3.0473 6.6241 6.4550 0.0000 -10638.4564 1465.8503 0.0000 0.0000 1817.1344 -7339.3453 313.3197 -9156.4797 -7333.9474 299.9268 386.9352 485.9384 30071.3530 2.9953 3.0545
ENERGY: 1500000 3.1812 9.5089 5.6861 0.0000 -10642.5725 1474.3811 0.0000 0.0000 1712.0261 -7437.7892 295.1964 -9149.8153 -7433.7386 300.3306 463.3095 567.9539 29781.8285 4.1146 3.9788
ENERGY: 1700000 0.4745 9.4337 6.1344 0.0000 -10552.5478 1363.3249 0.0000 0.0000 1688.9769 -7484.2033 291.2222 -9173.1802 -7481.6006 299.9985 -483.6808 -469.7616 29972.6198 2.9317 2.9881
ENERGY: 1900000 2.0457 7.1834 6.0169 0.0000 -10658.0985 1438.3235 0.0000 0.0000 1775.3702 -7429.1588 306.1185 -9204.5291 -7423.6056 299.7743 -4.8578 106.2305 29801.9931 3.8126 3.8562
TCL: Exiting due to exit command.
