Info: SIMULATION PARAMETERS:
Info: TIMESTEP               2
Info: NUMBER OF STEPS        0
Info: STEPS PER CYCLE        10
Info: PERIODIC CELL BASIS 1  34.986 0 0
Info: PERIODIC CELL BASIS 2  0 34.26 0
Info: PERIODIC CELL BASIS 3  0 0 36.199
Info: PERIODIC CELL CENTER   0 0 0
Info: WRAPPING WATERS AROUND PERIODIC BOUNDARIES ON OUTPUT.
Info: WRAPPING ALL CLUSTERS AROUND PERIODIC BOUNDARIES ON OUTPUT.
Info: FIRST LDB TIMESTEP     50
Info: LAST LDB TIMESTEP     -1
Info: HOM BACKGROUND SCALING 1
Info: PME BACKGROUND SCALING 1
Info: MIN ATOMS PER PATCH    40
Info: EMPTY PATCH LOAD       40 ATOMS
Info: INITIAL TEMPERATURE    300
Info: CENTER OF MASS MOVING INITIALLY? NO
Info: DIELECTRIC             1
Info: EXCLUDE                SCALED ONE-FOUR
Info: 1-4 ELECTROSTATICS SCALED BY 0.833333
Info: MODIFIED 1-4 VDW PARAMETERS WILL BE USED
Info: DCD FILENAME           mobley_5347550_equil.dcd
Info: DCD FREQUENCY          100000
Info: DCD FIRST STEP         100000
Info: DCD FILE WILL CONTAIN UNIT CELL DATA
Info: XST FILENAME           mobley_5347550_equil.xst
Info: XST FREQUENCY          100000
Info: NO VELOCITY DCD OUTPUT
Info: NO FORCE DCD OUTPUT
Info: OUTPUT FILENAME        mobley_5347550_equil
Info: BINARY OUTPUT FILES WILL BE USED
Info: RESTART FILENAME       mobley_5347550_equil.restart
Info: RESTART FREQUENCY      100000
Info: BINARY RESTART FILES WILL BE USED
Info: CUTOFF                 9
Info: PAIRLIST DISTANCE      11
Info: PAIRLIST SHRINK RATE   0.01
Info: PAIRLIST GROW RATE     0.01
Info: PAIRLIST TRIGGER       0.3
Info: PAIRLISTS PER CYCLE    2
Info: PAIRLISTS ENABLED
Info: MARGIN                 8
Info: HYDROGEN GROUP CUTOFF  2.5
Info: PATCH DIMENSION        21.5
Info: ENERGY OUTPUT STEPS    100000
Info: ENERGY EVALUATION STEPS    100000
Info: OUTPUT ENERGY PRECISION 4
Info: CROSSTERM ENERGY INCLUDED IN DIHEDRAL
Info: TIMING OUTPUT STEPS    1000000
Info: PRESSURE OUTPUT STEPS  100000
Info: LANGEVIN DYNAMICS ACTIVE
Info: LANGEVIN TEMPERATURE   30
Info: LANGEVIN USING BBK INTEGRATOR
Info: LANGEVIN DAMPING COEFFICIENT IS 1 INVERSE PS
Info: LANGEVIN DYNAMICS APPLIED TO HYDROGENS
Info: LANGEVIN PISTON PRESSURE CONTROL ACTIVE
Info:        TARGET PRESSURE IS 1.01325 BAR
Info:     OSCILLATION PERIOD IS 50 FS
Info:             DECAY TIME IS 25 FS
Info:     PISTON TEMPERATURE IS 300 K
Info:       PRESSURE CONTROL IS GROUP-BASED
Info:    INITIAL STRAIN RATE IS 0 0 0
Info:       CELL FLUCTUATION IS ISOTROPIC
Info: PARTICLE MESH EWALD (PME) ACTIVE
Info: PME TOLERANCE               1e-06
Info: PME EWALD COEFFICIENT       0.348832
Info: PME INTERPOLATION ORDER     4
Info: PME GRID DIMENSIONS         36 36 40
Info: PME MAXIMUM GRID SPACING    1
Info: FULL ELECTROSTATIC EVALUATION FREQUENCY      2
Info: USING VERLET I (r-RESPA) MTS SCHEME.
Info: C1 SPLITTING OF LONG RANGE ELECTROSTATICS
Info: PLACING ATOMS IN PATCHES BY HYDROGEN GROUPS
Info: RIGID BONDS TO HYDROGEN : ALL
Info:         ERROR TOLERANCE : 1e-08
Info:          MAX ITERATIONS : 100
Info: RIGID WATER USING SETTLE ALGORITHM
Info: RANDOM NUMBER SEED     1743238282
Info: USE HYDROGEN BONDS?    NO
Info: Using AMBER format force field!
Info: AMBER PARM FILE        mobley_5347550.prmtop
Info: COORDINATE PDB         mobley_5347550.pdb
Info: Exclusions will be read from PARM file!
Info: SCNB (VDW SCALING)     2
Info: USING ARITHMETIC MEAN TO COMBINE L-J SIGMA PARAMETERS
Info: BINARY COORDINATES     mobley_5347550_min.coor
Info: SUMMARY OF PARAMETERS:
Info: 8 BONDS
Info: 11 ANGLES
Info:   11 HARMONIC
Info:   0 COSINE-BASED
Info: 4 DIHEDRAL
Info: 0 IMPROPER
Info: 0 CROSSTERM
Info: 0 VDW
Info: 36 VDW_PAIRS
Info: 0 NBTHOLE_PAIRS
Info: STRUCTURE SUMMARY:
Info: 2952 ATOMS
Info: 2951 BONDS
Info: 19 ANGLES
Info: 16 DIHEDRALS
Info: 0 IMPROPERS
Info: 0 CROSSTERMS
Info: 2985 EXCLUSIONS
Info: 2944 RIGID BONDS
Info: 5912 DEGREES OF FREEDOM
Info: 988 HYDROGEN GROUPS
Info: 4 ATOMS IN LARGEST HYDROGEN GROUP
Info: 988 MIGRATION GROUPS
Info: 4 ATOMS IN LARGEST MIGRATION GROUP
Info: TOTAL MASS = 17820.6 amu
Info: TOTAL CHARGE = 0.00010002 e
Info: MASS DENSITY = 0.682031 g/cm^3
Info: ATOM DENSITY = 0.0680359 atoms/A^3
Info: ADDED 0 IMPLICIT EXCLUSIONS
Info: NONBONDED TABLE R-SQUARED SPACING: 0.0625
Info: NONBONDED TABLE SIZE: 705 POINTS
Info: REMOVING COM VELOCITY -0.0528671 -0.0503351 -0.0304996
TCL: Running for 100000 steps
ETITLE: TS BOND ANGLE DIHED IMPRP ELECT VDW BOUNDARY MISC KINETIC TOTAL TEMP POTENTIAL TOTAL3 TEMPAVG PRESSURE GPRESSURE VOLUME PRESSAVG GPRESSAVG
ENERGY: 0 0.1318 0.4916 0.0734 0.0000 -13642.4754 2382.9460 0.0000 0.0000 1745.5325 -9513.3001 297.1556 -11258.8325 -9512.9851 297.1556 390.4751 415.3848 43388.8584 390.4751 415.3848
ENERGY: 100000 0.4029 1.2547 0.4113 0.0000 -14261.3340 2533.6405 0.0000 0.0000 177.9732 -11547.6514 30.2978 -11725.6245 -11547.2459 30.9526 599.0978 646.7601 29097.7970 4.0434 4.0639
TCL: Running 100000 steps at 60 kelvin.
TCL: Setting parameter langevinTemp to 60
TCL: Running for 100000 steps
ETITLE: TS BOND ANGLE DIHED IMPRP ELECT VDW BOUNDARY MISC KINETIC TOTAL TEMP POTENTIAL TOTAL3 TEMPAVG PRESSURE GPRESSURE VOLUME PRESSAVG GPRESSAVG
ENERGY: 100000 0.4029 1.2547 0.4113 0.0000 -14261.3340 2533.6405 0.0000 0.0000 177.8885 -11547.7360 30.2834 -11725.6245 -11547.4151 30.2834 599.8784 646.7396 29097.7970 599.8784 646.7396
ENERGY: 200000 0.5837 0.6029 0.1167 0.0000 -14037.7604 2369.3700 0.0000 0.0000 350.0847 -11317.0024 59.5976 -11667.0871 -11315.8763 59.9905 -525.3080 -476.2023 29182.9821 4.0810 3.9907
TCL: Running 100000 steps at 90 kelvin.
TCL: Setting parameter langevinTemp to 90
TCL: Running for 100000 steps
ETITLE: TS BOND ANGLE DIHED IMPRP ELECT VDW BOUNDARY MISC KINETIC TOTAL TEMP POTENTIAL TOTAL3 TEMPAVG PRESSURE GPRESSURE VOLUME PRESSAVG GPRESSAVG
ENERGY: 200000 0.5837 0.6029 0.1167 0.0000 -14037.7604 2369.3700 0.0000 0.0000 349.9135 -11317.1736 59.5685 -11667.0871 -11316.4288 59.5685 -532.8514 -475.5139 29182.9821 -532.8514 -475.5139
ENERGY: 300000 0.4839 1.5632 0.0885 0.0000 -13998.5852 2413.2283 0.0000 0.0000 524.7026 -11058.5187 89.3242 -11583.2214 -11057.9650 90.0657 410.6026 471.4205 28575.3373 3.3590 3.3944
TCL: Running 100000 steps at 120 kelvin.
TCL: Setting parameter langevinTemp to 120
TCL: Running for 100000 steps
ETITLE: TS BOND ANGLE DIHED IMPRP ELECT VDW BOUNDARY MISC KINETIC TOTAL TEMP POTENTIAL TOTAL3 TEMPAVG PRESSURE GPRESSURE VOLUME PRESSAVG GPRESSAVG
ENERGY: 300000 0.4839 1.5632 0.0885 0.0000 -13998.5852 2413.2283 0.0000 0.0000 524.4443 -11058.7770 89.2802 -11583.2214 -11057.9379 89.2802 405.3773 470.6472 28575.3373 405.3773 470.6472
ENERGY: 400000 0.7863 1.6681 0.0144 0.0000 -13761.0726 2323.0251 0.0000 0.0000 737.7337 -10697.8451 125.5902 -11435.5788 -10695.7370 119.9834 93.7047 151.0846 28800.6439 5.2329 5.1019
TCL: Running 100000 steps at 150 kelvin.
TCL: Setting parameter langevinTemp to 150
TCL: Running for 100000 steps
ETITLE: TS BOND ANGLE DIHED IMPRP ELECT VDW BOUNDARY MISC KINETIC TOTAL TEMP POTENTIAL TOTAL3 TEMPAVG PRESSURE GPRESSURE VOLUME PRESSAVG GPRESSAVG
ENERGY: 400000 0.7863 1.6681 0.0144 0.0000 -13761.0726 2323.0251 0.0000 0.0000 737.3788 -10698.2000 125.5297 -11435.5788 -10696.5310 125.5297 82.3632 151.4577 28800.6439 82.3632 151.4577
ENERGY: 500000 2.1243 4.1807 0.4070 0.0000 -13441.7874 2185.6132 0.0000 0.0000 887.2504 -10362.2117 151.0435 -11249.4621 -10360.6478 150.0253 -475.2293 -422.6537 28930.6920 3.7400 3.6593
TCL: Running 100000 steps at 180 kelvin.
TCL: Setting parameter langevinTemp to 180
TCL: Running for 100000 steps
ETITLE: TS BOND ANGLE DIHED IMPRP ELECT VDW BOUNDARY MISC KINETIC TOTAL TEMP POTENTIAL TOTAL3 TEMPAVG PRESSURE GPRESSURE VOLUME PRESSAVG GPRESSAVG
ENERGY: 500000 2.1243 4.1807 0.4070 0.0000 -13441.7874 2185.6132 0.0000 0.0000 886.8088 -10362.6534 150.9684 -11249.4621 -10360.7192 150.9684 -489.4334 -423.5751 28930.6920 -489.4334 -423.5751
ENERGY: 600000 0.4655 2.3290 0.2609 0.0000 -13117.2533 2115.9165 0.0000 0.0000 1060.5320 -9937.7494 180.5426 -10998.2814 -9937.4689 180.2348 -29.3763 36.8497 28957.0620 4.2583 4.2756
TCL: Running 100000 steps at 210 kelvin.
TCL: Setting parameter langevinTemp to 210
TCL: Running for 100000 steps
ETITLE: TS BOND ANGLE DIHED IMPRP ELECT VDW BOUNDARY MISC KINETIC TOTAL TEMP POTENTIAL TOTAL3 TEMPAVG PRESSURE GPRESSURE VOLUME PRESSAVG GPRESSAVG
ENERGY: 600000 0.4655 2.3290 0.2609 0.0000 -13117.2533 2115.9165 0.0000 0.0000 1060.0086 -9938.2727 180.4535 -10998.2814 -9936.3596 180.4535 -25.7061 36.4703 28957.0620 -25.7061 36.4703
ENERGY: 700000 3.1826 4.1445 0.7909 0.0000 -12243.1890 1776.7786 0.0000 0.0000 1261.4980 -9196.7945 214.7546 -10458.2924 -9195.0623 209.2943 -845.9319 -719.0259 29018.1016 3.4637 3.4720
TCL: Running 100000 steps at 240 kelvin.
TCL: Setting parameter langevinTemp to 240
TCL: Running for 100000 steps
ETITLE: TS BOND ANGLE DIHED IMPRP ELECT VDW BOUNDARY MISC KINETIC TOTAL TEMP POTENTIAL TOTAL3 TEMPAVG PRESSURE GPRESSURE VOLUME PRESSAVG GPRESSAVG
ENERGY: 700000 3.1826 4.1445 0.7909 0.0000 -12243.1890 1776.7786 0.0000 0.0000 1260.8936 -9197.3988 214.6517 -10458.2924 -9195.3313 214.6517 -812.8728 -720.1009 29018.1016 -812.8728 -720.1009
ENERGY: 800000 2.2681 4.5077 0.7279 0.0000 -11712.0688 1662.2003 0.0000 0.0000 1411.6152 -8630.7496 240.3103 -10042.3649 -8625.0710 239.3901 -234.9720 -170.1273 29203.9624 3.3648 3.2457
TCL: Running 100000 steps at 270 kelvin.
TCL: Setting parameter langevinTemp to 270
TCL: Running for 100000 steps
ETITLE: TS BOND ANGLE DIHED IMPRP ELECT VDW BOUNDARY MISC KINETIC TOTAL TEMP POTENTIAL TOTAL3 TEMPAVG PRESSURE GPRESSURE VOLUME PRESSAVG GPRESSAVG
ENERGY: 800000 2.2681 4.5077 0.7279 0.0000 -11712.0688 1662.2003 0.0000 0.0000 1410.9124 -8631.4525 240.1906 -10042.3649 -8629.0320 240.1906 -238.1442 -168.4881 29203.9624 -238.1442 -168.4881
ENERGY: 900000 0.6339 4.0678 0.6548 0.0000 -11223.9607 1547.6197 0.0000 0.0000 1593.8546 -8077.1300 271.3343 -9670.9846 -8074.9300 270.0808 -249.8990 -267.2854 30082.7771 3.1809 3.3322
TCL: Running 1000000 steps at 300 kelvin.
TCL: Setting parameter langevinTemp to 300
TCL: Running for 1000000 steps
ETITLE: TS BOND ANGLE DIHED IMPRP ELECT VDW BOUNDARY MISC KINETIC TOTAL TEMP POTENTIAL TOTAL3 TEMPAVG PRESSURE GPRESSURE VOLUME PRESSAVG GPRESSAVG
ENERGY: 900000 0.6339 4.0678 0.6548 0.0000 -11223.9607 1547.6197 0.0000 0.0000 1593.0972 -8077.8874 271.2053 -9670.9846 -8074.4918 271.2053 -343.2439 -269.2820 30082.7771 -343.2439 -269.2820
ENERGY: 1100000 1.5238 6.0216 2.6686 0.0000 -10622.8370 1390.3023 0.0000 0.0000 1713.8804 -7508.4403 291.7672 -9222.3208 -7503.6375 300.4817 -184.0464 -95.0977 30194.6729 2.9312 2.6945
ENERGY: 1300000 1.5135 9.5515 1.6125 0.0000 -10607.3559 1355.3245 0.0000 0.0000 1775.5742 -7463.7797 302.2698 -9239.3539 -7459.8868 300.6302 -728.2562 -598.9223 30870.2073 4.1526 4.0378
ENERGY: 1500000 2.5169 5.1451 0.3654 0.0000 -10534.8996 1340.4413 0.0000 0.0000 1771.3409 -7415.0899 301.5492 -9186.4308 -7411.6240 299.7017 -693.0004 -607.0897 30776.1774 1.8896 2.0837
ENERGY: 1700000 1.6412 2.4468 1.5341 0.0000 -10758.9498 1419.5853 0.0000 0.0000 1738.6353 -7595.1071 295.9814 -9333.7424 -7591.4756 300.6093 -244.4085 -206.1161 30372.3535 3.7904 3.7645
ENERGY: 1900000 3.0249 3.6605 0.1970 0.0000 -10774.5504 1438.1428 0.0000 0.0000 1803.2571 -7526.2681 306.9825 -9329.5252 -7523.2816 300.5960 -234.9404 -155.0590 30603.4381 2.7699 2.9842
TCL: Exiting due to exit command.
