Info: SIMULATION PARAMETERS:
Info: TIMESTEP               2
Info: NUMBER OF STEPS        0
Info: STEPS PER CYCLE        10
Info: PERIODIC CELL BASIS 1  34.986 0 0
Info: PERIODIC CELL BASIS 2  0 33.314 0
Info: PERIODIC CELL BASIS 3  0 0 37.638
Info: PERIODIC CELL CENTER   0 0 0
Info: WRAPPING WATERS AROUND PERIODIC BOUNDARIES ON OUTPUT.
Info: WRAPPING ALL CLUSTERS AROUND PERIODIC BOUNDARIES ON OUTPUT.
Info: FIRST LDB TIMESTEP     50
Info: LAST LDB TIMESTEP     -1
Info: HOM BACKGROUND SCALING 1
Info: PME BACKGROUND SCALING 1
Info: MIN ATOMS PER PATCH    40
Info: EMPTY PATCH LOAD       40 ATOMS
Info: INITIAL TEMPERATURE    300
Info: CENTER OF MASS MOVING INITIALLY? NO
Info: DIELECTRIC             1
Info: EXCLUDE                SCALED ONE-FOUR
Info: 1-4 ELECTROSTATICS SCALED BY 0.833333
Info: MODIFIED 1-4 VDW PARAMETERS WILL BE USED
Info: DCD FILENAME           mobley_2451097_equil.dcd
Info: DCD FREQUENCY          100000
Info: DCD FIRST STEP         100000
Info: DCD FILE WILL CONTAIN UNIT CELL DATA
Info: XST FILENAME           mobley_2451097_equil.xst
Info: XST FREQUENCY          100000
Info: NO VELOCITY DCD OUTPUT
Info: NO FORCE DCD OUTPUT
Info: OUTPUT FILENAME        mobley_2451097_equil
Info: BINARY OUTPUT FILES WILL BE USED
Info: RESTART FILENAME       mobley_2451097_equil.restart
Info: RESTART FREQUENCY      100000
Info: BINARY RESTART FILES WILL BE USED
Info: CUTOFF                 9
Info: PAIRLIST DISTANCE      11
Info: PAIRLIST SHRINK RATE   0.01
Info: PAIRLIST GROW RATE     0.01
Info: PAIRLIST TRIGGER       0.3
Info: PAIRLISTS PER CYCLE    2
Info: PAIRLISTS ENABLED
Info: MARGIN                 8
Info: HYDROGEN GROUP CUTOFF  2.5
Info: PATCH DIMENSION        21.5
Info: ENERGY OUTPUT STEPS    100000
Info: ENERGY EVALUATION STEPS    100000
Info: OUTPUT ENERGY PRECISION 4
Info: CROSSTERM ENERGY INCLUDED IN DIHEDRAL
Info: TIMING OUTPUT STEPS    1000000
Info: PRESSURE OUTPUT STEPS  100000
Info: LANGEVIN DYNAMICS ACTIVE
Info: LANGEVIN TEMPERATURE   30
Info: LANGEVIN USING BBK INTEGRATOR
Info: LANGEVIN DAMPING COEFFICIENT IS 1 INVERSE PS
Info: LANGEVIN DYNAMICS APPLIED TO HYDROGENS
Info: LANGEVIN PISTON PRESSURE CONTROL ACTIVE
Info:        TARGET PRESSURE IS 1.01325 BAR
Info:     OSCILLATION PERIOD IS 50 FS
Info:             DECAY TIME IS 25 FS
Info:     PISTON TEMPERATURE IS 300 K
Info:       PRESSURE CONTROL IS GROUP-BASED
Info:    INITIAL STRAIN RATE IS 0 0 0
Info:       CELL FLUCTUATION IS ISOTROPIC
Info: PARTICLE MESH EWALD (PME) ACTIVE
Info: PME TOLERANCE               1e-06
Info: PME EWALD COEFFICIENT       0.348832
Info: PME INTERPOLATION ORDER     4
Info: PME GRID DIMENSIONS         36 36 40
Info: PME MAXIMUM GRID SPACING    1
Info: FULL ELECTROSTATIC EVALUATION FREQUENCY      2
Info: USING VERLET I (r-RESPA) MTS SCHEME.
Info: C1 SPLITTING OF LONG RANGE ELECTROSTATICS
Info: PLACING ATOMS IN PATCHES BY HYDROGEN GROUPS
Info: RIGID BONDS TO HYDROGEN : ALL
Info:         ERROR TOLERANCE : 1e-08
Info:          MAX ITERATIONS : 100
Info: RIGID WATER USING SETTLE ALGORITHM
Info: RANDOM NUMBER SEED     1743208576
Info: USE HYDROGEN BONDS?    NO
Info: Using AMBER format force field!
Info: AMBER PARM FILE        mobley_2451097.prmtop
Info: COORDINATE PDB         mobley_2451097.pdb
Info: Exclusions will be read from PARM file!
Info: SCNB (VDW SCALING)     2
Info: USING ARITHMETIC MEAN TO COMBINE L-J SIGMA PARAMETERS
Info: BINARY COORDINATES     mobley_2451097_min.coor
Info: SUMMARY OF PARAMETERS:
Info: 6 BONDS
Info: 4 ANGLES
Info:   4 HARMONIC
Info:   0 COSINE-BASED
Info: 3 DIHEDRAL
Info: 0 IMPROPER
Info: 0 CROSSTERM
Info: 0 VDW
Info: 21 VDW_PAIRS
Info: 0 NBTHOLE_PAIRS
Info: STRUCTURE SUMMARY:
Info: 2950 ATOMS
Info: 2950 BONDS
Info: 19 ANGLES
Info: 32 DIHEDRALS
Info: 0 IMPROPERS
Info: 0 CROSSTERMS
Info: 2992 EXCLUSIONS
Info: 2942 RIGID BONDS
Info: 5908 DEGREES OF FREEDOM
Info: 987 HYDROGEN GROUPS
Info: 3 ATOMS IN LARGEST HYDROGEN GROUP
Info: 987 MIGRATION GROUPS
Info: 3 ATOMS IN LARGEST MIGRATION GROUP
Info: TOTAL MASS = 17740.8 amu
Info: TOTAL CHARGE = -9.99905e-05 e
Info: MASS DENSITY = 0.671559 g/cm^3
Info: ATOM DENSITY = 0.0672472 atoms/A^3
Info: ADDED 0 IMPLICIT EXCLUSIONS
Info: NONBONDED TABLE R-SQUARED SPACING: 0.0625
Info: NONBONDED TABLE SIZE: 705 POINTS
Info: REMOVING COM VELOCITY 0.0232345 0.0517652 0.0499938
TCL: Running for 100000 steps
ETITLE: TS BOND ANGLE DIHED IMPRP ELECT VDW BOUNDARY MISC KINETIC TOTAL TEMP POTENTIAL TOTAL3 TEMPAVG PRESSURE GPRESSURE VOLUME PRESSAVG GPRESSAVG
ENERGY: 0 0.1531 0.0126 0.0132 0.0000 -13650.1930 2412.1067 0.0000 0.0000 1796.8920 -9441.0155 306.1060 -11237.9075 -9440.6761 306.1060 476.7156 512.4032 43867.9774 476.7156 512.4032
ENERGY: 100000 0.6223 0.3867 0.2304 0.0000 -14172.0920 2429.8284 0.0000 0.0000 176.9483 -11564.0758 30.1437 -11741.0241 -11563.5405 31.0221 -485.1996 -414.8195 28914.8034 4.1506 4.2054
TCL: Running 100000 steps at 60 kelvin.
TCL: Setting parameter langevinTemp to 60
TCL: Running for 100000 steps
ETITLE: TS BOND ANGLE DIHED IMPRP ELECT VDW BOUNDARY MISC KINETIC TOTAL TEMP POTENTIAL TOTAL3 TEMPAVG PRESSURE GPRESSURE VOLUME PRESSAVG GPRESSAVG
ENERGY: 100000 0.6223 0.3867 0.2304 0.0000 -14172.0920 2429.8284 0.0000 0.0000 176.8667 -11564.1574 30.1298 -11741.0241 -11563.7500 30.1298 -484.7121 -414.5608 28914.8034 -484.7121 -414.5608
ENERGY: 200000 0.3802 0.6129 0.4202 0.0000 -14135.7582 2484.4909 0.0000 0.0000 353.8803 -11295.9737 60.2846 -11649.8540 -11295.7345 59.9525 442.3415 518.1257 28632.6195 2.1013 2.0704
TCL: Running 100000 steps at 90 kelvin.
TCL: Setting parameter langevinTemp to 90
TCL: Running for 100000 steps
ETITLE: TS BOND ANGLE DIHED IMPRP ELECT VDW BOUNDARY MISC KINETIC TOTAL TEMP POTENTIAL TOTAL3 TEMPAVG PRESSURE GPRESSURE VOLUME PRESSAVG GPRESSAVG
ENERGY: 200000 0.3802 0.6129 0.4202 0.0000 -14135.7582 2484.4909 0.0000 0.0000 353.7036 -11296.1504 60.2545 -11649.8540 -11295.3788 60.2545 464.8329 517.7180 28632.6195 464.8329 517.7180
ENERGY: 300000 0.9105 0.7156 0.5120 0.0000 -13927.2680 2335.2493 0.0000 0.0000 516.6454 -11073.2353 88.0121 -11589.8807 -11071.3367 89.9634 -516.9622 -450.0671 28521.5279 4.2945 4.3452
TCL: Running 100000 steps at 120 kelvin.
TCL: Setting parameter langevinTemp to 120
TCL: Running for 100000 steps
ETITLE: TS BOND ANGLE DIHED IMPRP ELECT VDW BOUNDARY MISC KINETIC TOTAL TEMP POTENTIAL TOTAL3 TEMPAVG PRESSURE GPRESSURE VOLUME PRESSAVG GPRESSAVG
ENERGY: 300000 0.9105 0.7156 0.5120 0.0000 -13927.2680 2335.2493 0.0000 0.0000 516.3846 -11073.4961 87.9677 -11589.8807 -11072.2916 87.9677 -506.3030 -449.6870 28521.5279 -506.3030 -449.6870
ENERGY: 400000 2.3218 1.0841 0.6285 0.0000 -13842.7786 2386.1742 0.0000 0.0000 693.7253 -10758.8448 118.1782 -11452.5701 -10757.0148 120.0441 280.8855 340.1173 28930.2889 3.6580 3.5594
TCL: Running 100000 steps at 150 kelvin.
TCL: Setting parameter langevinTemp to 150
TCL: Running for 100000 steps
ETITLE: TS BOND ANGLE DIHED IMPRP ELECT VDW BOUNDARY MISC KINETIC TOTAL TEMP POTENTIAL TOTAL3 TEMPAVG PRESSURE GPRESSURE VOLUME PRESSAVG GPRESSAVG
ENERGY: 400000 2.3218 1.0841 0.6285 0.0000 -13842.7786 2386.1742 0.0000 0.0000 693.3680 -10759.2020 118.1174 -11452.5701 -10758.0108 118.1174 288.1352 341.1606 28930.2889 288.1352 341.1606
ENERGY: 500000 2.9666 1.9459 1.0474 0.0000 -13416.0699 2169.3917 0.0000 0.0000 880.9364 -10359.7819 150.0702 -11240.7182 -10357.2439 150.4837 -684.7604 -706.7783 28856.6039 4.9801 4.8835
TCL: Running 100000 steps at 180 kelvin.
TCL: Setting parameter langevinTemp to 180
TCL: Running for 100000 steps
ETITLE: TS BOND ANGLE DIHED IMPRP ELECT VDW BOUNDARY MISC KINETIC TOTAL TEMP POTENTIAL TOTAL3 TEMPAVG PRESSURE GPRESSURE VOLUME PRESSAVG GPRESSAVG
ENERGY: 500000 2.9666 1.9459 1.0474 0.0000 -13416.0699 2169.3917 0.0000 0.0000 880.5089 -10360.2094 149.9974 -11240.7182 -10357.7498 149.9974 -752.6034 -707.2977 28856.6039 -752.6034 -707.2977
ENERGY: 600000 4.3438 2.2385 1.4562 0.0000 -13134.9946 2156.4800 0.0000 0.0000 1053.7510 -9916.7252 179.5097 -10970.4762 -9914.2314 180.1625 281.3135 343.7321 28907.5314 3.4139 3.2528
TCL: Running 100000 steps at 210 kelvin.
TCL: Setting parameter langevinTemp to 210
TCL: Running for 100000 steps
ETITLE: TS BOND ANGLE DIHED IMPRP ELECT VDW BOUNDARY MISC KINETIC TOTAL TEMP POTENTIAL TOTAL3 TEMPAVG PRESSURE GPRESSURE VOLUME PRESSAVG GPRESSAVG
ENERGY: 600000 4.3438 2.2385 1.4562 0.0000 -13134.9946 2156.4800 0.0000 0.0000 1053.2281 -9917.2481 179.4206 -10970.4762 -9915.4413 179.4206 284.7017 344.0514 28907.5314 284.7017 344.0514
ENERGY: 700000 2.7696 4.2624 1.7679 0.0000 -12402.4267 1849.2537 0.0000 0.0000 1231.7734 -9312.5998 209.8363 -10544.3732 -9308.7129 210.1332 -585.7653 -460.7181 28939.3728 2.4127 2.4077
TCL: Running 100000 steps at 240 kelvin.
TCL: Setting parameter langevinTemp to 240
TCL: Running for 100000 steps
ETITLE: TS BOND ANGLE DIHED IMPRP ELECT VDW BOUNDARY MISC KINETIC TOTAL TEMP POTENTIAL TOTAL3 TEMPAVG PRESSURE GPRESSURE VOLUME PRESSAVG GPRESSAVG
ENERGY: 700000 2.7696 4.2624 1.7679 0.0000 -12402.4267 1849.2537 0.0000 0.0000 1231.1520 -9313.2211 209.7305 -10544.3732 -9311.0313 209.7305 -529.5780 -457.8567 28939.3728 -529.5780 -457.8567
ENERGY: 800000 2.6355 2.8236 1.7955 0.0000 -11947.6354 1886.1689 0.0000 0.0000 1409.4010 -8644.8109 240.0958 -10054.2119 -8644.3602 239.5487 2015.7125 2050.5904 28359.8739 3.4818 3.5080
TCL: Running 100000 steps at 270 kelvin.
TCL: Setting parameter langevinTemp to 270
TCL: Running for 100000 steps
ETITLE: TS BOND ANGLE DIHED IMPRP ELECT VDW BOUNDARY MISC KINETIC TOTAL TEMP POTENTIAL TOTAL3 TEMPAVG PRESSURE GPRESSURE VOLUME PRESSAVG GPRESSAVG
ENERGY: 800000 2.6355 2.8236 1.7955 0.0000 -11947.6354 1886.1689 0.0000 0.0000 1408.7516 -8645.4603 239.9851 -10054.2119 -8643.1182 239.9851 1976.1756 2047.1463 28359.8739 1976.1756 2047.1463
ENERGY: 900000 2.1231 2.9031 1.3412 0.0000 -11079.9046 1548.5449 0.0000 0.0000 1546.3694 -7978.6229 263.4287 -9524.9922 -7975.3721 269.4570 105.6169 229.9026 29867.9381 1.6602 1.7606
TCL: Running 1000000 steps at 300 kelvin.
TCL: Setting parameter langevinTemp to 300
TCL: Running for 1000000 steps
ETITLE: TS BOND ANGLE DIHED IMPRP ELECT VDW BOUNDARY MISC KINETIC TOTAL TEMP POTENTIAL TOTAL3 TEMPAVG PRESSURE GPRESSURE VOLUME PRESSAVG GPRESSAVG
ENERGY: 900000 2.1231 2.9031 1.3412 0.0000 -11079.9046 1548.5449 0.0000 0.0000 1545.5961 -7979.3961 263.2970 -9524.9922 -7976.8825 263.2970 134.5355 228.8316 29867.9381 134.5355 228.8316
ENERGY: 1100000 2.8599 2.2480 3.7502 0.0000 -10759.9001 1428.4598 0.0000 0.0000 1780.9534 -7541.6288 303.3908 -9322.5822 -7535.5381 300.0735 -10.8719 42.1252 29892.0706 2.6690 2.7164
ENERGY: 1300000 1.7548 3.3189 2.9864 0.0000 -10607.4392 1365.4911 0.0000 0.0000 1813.4292 -7420.4589 308.9232 -9233.8881 -7416.6636 300.0541 -352.2949 -301.6136 30115.5335 2.3741 2.2951
ENERGY: 1500000 4.0745 2.6541 0.9405 0.0000 -10706.0533 1466.2879 0.0000 0.0000 1779.4150 -7452.6813 303.1288 -9232.0963 -7452.8847 300.7882 29.3040 159.9946 30540.9752 3.1255 2.9006
ENERGY: 1700000 4.8487 2.4500 2.1277 0.0000 -10648.0501 1399.1751 0.0000 0.0000 1773.7010 -7465.7476 302.1554 -9239.4485 -7463.2059 300.3473 -445.3524 -433.3152 30491.5783 4.3667 4.4157
ENERGY: 1900000 2.3252 5.4157 3.9520 0.0000 -10668.6918 1395.5419 0.0000 0.0000 1773.0805 -7488.3764 302.0497 -9261.4569 -7484.3954 299.3330 -474.4556 -441.9342 30590.0317 2.4512 2.5159
TCL: Exiting due to exit command.
