Info: SIMULATION PARAMETERS:
Info: TIMESTEP               2
Info: NUMBER OF STEPS        0
Info: STEPS PER CYCLE        10
Info: PERIODIC CELL BASIS 1  34.207 0 0
Info: PERIODIC CELL BASIS 2  0 33.399 0
Info: PERIODIC CELL BASIS 3  0 0 38.379
Info: PERIODIC CELL CENTER   0 0 0
Info: WRAPPING WATERS AROUND PERIODIC BOUNDARIES ON OUTPUT.
Info: WRAPPING ALL CLUSTERS AROUND PERIODIC BOUNDARIES ON OUTPUT.
Info: FIRST LDB TIMESTEP     50
Info: LAST LDB TIMESTEP     -1
Info: HOM BACKGROUND SCALING 1
Info: PME BACKGROUND SCALING 1
Info: MIN ATOMS PER PATCH    40
Info: EMPTY PATCH LOAD       40 ATOMS
Info: INITIAL TEMPERATURE    300
Info: CENTER OF MASS MOVING INITIALLY? NO
Info: DIELECTRIC             1
Info: EXCLUDE                SCALED ONE-FOUR
Info: 1-4 ELECTROSTATICS SCALED BY 0.833333
Info: MODIFIED 1-4 VDW PARAMETERS WILL BE USED
Info: DCD FILENAME           mobley_2078467_equil.dcd
Info: DCD FREQUENCY          100000
Info: DCD FIRST STEP         100000
Info: DCD FILE WILL CONTAIN UNIT CELL DATA
Info: XST FILENAME           mobley_2078467_equil.xst
Info: XST FREQUENCY          100000
Info: NO VELOCITY DCD OUTPUT
Info: NO FORCE DCD OUTPUT
Info: OUTPUT FILENAME        mobley_2078467_equil
Info: BINARY OUTPUT FILES WILL BE USED
Info: RESTART FILENAME       mobley_2078467_equil.restart
Info: RESTART FREQUENCY      100000
Info: BINARY RESTART FILES WILL BE USED
Info: CUTOFF                 9
Info: PAIRLIST DISTANCE      11
Info: PAIRLIST SHRINK RATE   0.01
Info: PAIRLIST GROW RATE     0.01
Info: PAIRLIST TRIGGER       0.3
Info: PAIRLISTS PER CYCLE    2
Info: PAIRLISTS ENABLED
Info: MARGIN                 8
Info: HYDROGEN GROUP CUTOFF  2.5
Info: PATCH DIMENSION        21.5
Info: ENERGY OUTPUT STEPS    100000
Info: ENERGY EVALUATION STEPS    100000
Info: OUTPUT ENERGY PRECISION 4
Info: CROSSTERM ENERGY INCLUDED IN DIHEDRAL
Info: TIMING OUTPUT STEPS    1000000
Info: PRESSURE OUTPUT STEPS  100000
Info: LANGEVIN DYNAMICS ACTIVE
Info: LANGEVIN TEMPERATURE   30
Info: LANGEVIN USING BBK INTEGRATOR
Info: LANGEVIN DAMPING COEFFICIENT IS 1 INVERSE PS
Info: LANGEVIN DYNAMICS APPLIED TO HYDROGENS
Info: LANGEVIN PISTON PRESSURE CONTROL ACTIVE
Info:        TARGET PRESSURE IS 1.01325 BAR
Info:     OSCILLATION PERIOD IS 50 FS
Info:             DECAY TIME IS 25 FS
Info:     PISTON TEMPERATURE IS 300 K
Info:       PRESSURE CONTROL IS GROUP-BASED
Info:    INITIAL STRAIN RATE IS 0 0 0
Info:       CELL FLUCTUATION IS ISOTROPIC
Info: PARTICLE MESH EWALD (PME) ACTIVE
Info: PME TOLERANCE               1e-06
Info: PME EWALD COEFFICIENT       0.348832
Info: PME INTERPOLATION ORDER     4
Info: PME GRID DIMENSIONS         36 36 40
Info: PME MAXIMUM GRID SPACING    1
Info: FULL ELECTROSTATIC EVALUATION FREQUENCY      2
Info: USING VERLET I (r-RESPA) MTS SCHEME.
Info: C1 SPLITTING OF LONG RANGE ELECTROSTATICS
Info: PLACING ATOMS IN PATCHES BY HYDROGEN GROUPS
Info: RIGID BONDS TO HYDROGEN : ALL
Info:         ERROR TOLERANCE : 1e-08
Info:          MAX ITERATIONS : 100
Info: RIGID WATER USING SETTLE ALGORITHM
Info: RANDOM NUMBER SEED     1743257454
Info: USE HYDROGEN BONDS?    NO
Info: Using AMBER format force field!
Info: AMBER PARM FILE        mobley_2078467.prmtop
Info: COORDINATE PDB         mobley_2078467.pdb
Info: Exclusions will be read from PARM file!
Info: SCNB (VDW SCALING)     2
Info: USING ARITHMETIC MEAN TO COMBINE L-J SIGMA PARAMETERS
Info: BINARY COORDINATES     mobley_2078467_min.coor
Info: SUMMARY OF PARAMETERS:
Info: 11 BONDS
Info: 15 ANGLES
Info:   15 HARMONIC
Info:   0 COSINE-BASED
Info: 11 DIHEDRAL
Info: 0 IMPROPER
Info: 0 CROSSTERM
Info: 0 VDW
Info: 36 VDW_PAIRS
Info: 0 NBTHOLE_PAIRS
Info: STRUCTURE SUMMARY:
Info: 2955 ATOMS
Info: 2955 BONDS
Info: 58 ANGLES
Info: 90 DIHEDRALS
Info: 0 IMPROPERS
Info: 0 CROSSTERMS
Info: 3090 EXCLUSIONS
Info: 2940 RIGID BONDS
Info: 5925 DEGREES OF FREEDOM
Info: 989 HYDROGEN GROUPS
Info: 4 ATOMS IN LARGEST HYDROGEN GROUP
Info: 989 MIGRATION GROUPS
Info: 4 ATOMS IN LARGEST MIGRATION GROUP
Info: TOTAL MASS = 17753.9 amu
Info: TOTAL CHARGE = -0.000199996 e
Info: MASS DENSITY = 0.672372 g/cm^3
Info: ATOM DENSITY = 0.0673931 atoms/A^3
Info: ADDED 0 IMPLICIT EXCLUSIONS
Info: NONBONDED TABLE R-SQUARED SPACING: 0.0625
Info: NONBONDED TABLE SIZE: 705 POINTS
Info: REMOVING COM VELOCITY -0.0212749 0.0549947 0.0249367
TCL: Running for 100000 steps
ETITLE: TS BOND ANGLE DIHED IMPRP ELECT VDW BOUNDARY MISC KINETIC TOTAL TEMP POTENTIAL TOTAL3 TEMPAVG PRESSURE GPRESSURE VOLUME PRESSAVG GPRESSAVG
ENERGY: 0 0.5101 1.4806 0.6990 0.0000 -13550.4736 2367.7746 0.0000 0.0000 1767.4727 -9412.5366 300.2304 -11180.0093 -9412.2045 300.2304 398.7833 437.3888 43847.2243 398.7833 437.3888
ENERGY: 100000 1.7588 4.4096 1.2709 0.0000 -14095.4774 2396.1887 0.0000 0.0000 182.1456 -11509.7038 30.9400 -11691.8493 -11508.9083 30.9176 -498.0177 -430.0696 28855.1190 3.3628 3.4020
TCL: Running 100000 steps at 60 kelvin.
TCL: Setting parameter langevinTemp to 60
TCL: Running for 100000 steps
ETITLE: TS BOND ANGLE DIHED IMPRP ELECT VDW BOUNDARY MISC KINETIC TOTAL TEMP POTENTIAL TOTAL3 TEMPAVG PRESSURE GPRESSURE VOLUME PRESSAVG GPRESSAVG
ENERGY: 100000 1.7588 4.4096 1.2709 0.0000 -14095.4774 2396.1887 0.0000 0.0000 182.0586 -11509.7907 30.9252 -11691.8493 -11509.2973 30.9252 -500.9640 -429.8249 28855.1190 -500.9640 -429.8249
ENERGY: 200000 1.2497 5.4680 2.2947 0.0000 -14165.1078 2470.5876 0.0000 0.0000 340.1244 -11345.3835 57.7750 -11685.5079 -11344.6214 60.0684 367.6438 439.3286 28552.4114 4.0578 4.0292
TCL: Running 100000 steps at 90 kelvin.
TCL: Setting parameter langevinTemp to 90
TCL: Running for 100000 steps
ETITLE: TS BOND ANGLE DIHED IMPRP ELECT VDW BOUNDARY MISC KINETIC TOTAL TEMP POTENTIAL TOTAL3 TEMPAVG PRESSURE GPRESSURE VOLUME PRESSAVG GPRESSAVG
ENERGY: 200000 1.2497 5.4680 2.2947 0.0000 -14165.1078 2470.5876 0.0000 0.0000 339.9492 -11345.5586 57.7452 -11685.5079 -11345.0465 57.7452 388.1560 439.6361 28552.4114 388.1560 439.6361
ENERGY: 300000 1.6279 5.6260 2.4761 0.0000 -13929.8184 2396.7881 0.0000 0.0000 533.9788 -10989.3215 90.7039 -11523.3003 -10988.4321 89.9699 116.6611 195.6935 28987.4083 4.3830 4.4341
TCL: Running 100000 steps at 120 kelvin.
TCL: Setting parameter langevinTemp to 120
TCL: Running for 100000 steps
ETITLE: TS BOND ANGLE DIHED IMPRP ELECT VDW BOUNDARY MISC KINETIC TOTAL TEMP POTENTIAL TOTAL3 TEMPAVG PRESSURE GPRESSURE VOLUME PRESSAVG GPRESSAVG
ENERGY: 300000 1.6279 5.6260 2.4761 0.0000 -13929.8184 2396.7881 0.0000 0.0000 533.7159 -10989.5844 90.6593 -11523.3003 -10988.4054 90.6593 154.8482 195.5313 28987.4083 154.8482 195.5313
ENERGY: 400000 2.0204 4.4825 2.6899 0.0000 -13943.3465 2520.0508 0.0000 0.0000 734.5416 -10679.5613 124.7724 -11414.1029 -10676.9214 120.0040 1786.4147 1868.2813 28698.6527 4.8703 4.8813
TCL: Running 100000 steps at 150 kelvin.
TCL: Setting parameter langevinTemp to 150
TCL: Running for 100000 steps
ETITLE: TS BOND ANGLE DIHED IMPRP ELECT VDW BOUNDARY MISC KINETIC TOTAL TEMP POTENTIAL TOTAL3 TEMPAVG PRESSURE GPRESSURE VOLUME PRESSAVG GPRESSAVG
ENERGY: 400000 2.0204 4.4825 2.6899 0.0000 -13943.3465 2520.0508 0.0000 0.0000 734.2124 -10679.8905 124.7165 -11414.1029 -10678.3257 124.7165 1804.8983 1869.0322 28698.6527 1804.8983 1869.0322
ENERGY: 500000 3.3559 8.9516 2.8534 0.0000 -13592.6576 2314.2326 0.0000 0.0000 886.7735 -10376.4905 150.6311 -11263.2640 -10374.1788 149.9816 409.7343 499.0028 29084.0593 2.7912 2.9008
TCL: Running 100000 steps at 180 kelvin.
TCL: Setting parameter langevinTemp to 180
TCL: Running for 100000 steps
ETITLE: TS BOND ANGLE DIHED IMPRP ELECT VDW BOUNDARY MISC KINETIC TOTAL TEMP POTENTIAL TOTAL3 TEMPAVG PRESSURE GPRESSURE VOLUME PRESSAVG GPRESSAVG
ENERGY: 500000 3.3559 8.9516 2.8534 0.0000 -13592.6576 2314.2326 0.0000 0.0000 886.3316 -10376.9324 150.5561 -11263.2640 -10374.8952 150.5561 454.0528 499.1865 29084.0593 454.0528 499.1865
ENERGY: 600000 2.3838 8.5660 2.7862 0.0000 -13151.7587 2182.8576 0.0000 0.0000 1056.5680 -9898.5971 179.4732 -10955.1652 -9894.7267 179.7807 789.1518 861.2424 28663.7415 3.4661 3.4900
TCL: Running 100000 steps at 210 kelvin.
TCL: Setting parameter langevinTemp to 210
TCL: Running for 100000 steps
ETITLE: TS BOND ANGLE DIHED IMPRP ELECT VDW BOUNDARY MISC KINETIC TOTAL TEMP POTENTIAL TOTAL3 TEMPAVG PRESSURE GPRESSURE VOLUME PRESSAVG GPRESSAVG
ENERGY: 600000 2.3838 8.5660 2.7862 0.0000 -13151.7587 2182.8576 0.0000 0.0000 1056.0518 -9899.1134 179.3855 -10955.1652 -9896.9495 179.3855 803.1272 862.4949 28663.7415 803.1272 862.4949
ENERGY: 700000 5.4827 13.1355 2.4951 0.0000 -12513.9889 1939.4724 0.0000 0.0000 1218.5592 -9334.8439 206.9897 -10553.4031 -9331.0657 210.2279 -32.3300 26.9384 29045.7910 4.2127 4.0982
TCL: Running 100000 steps at 240 kelvin.
TCL: Setting parameter langevinTemp to 240
TCL: Running for 100000 steps
ETITLE: TS BOND ANGLE DIHED IMPRP ELECT VDW BOUNDARY MISC KINETIC TOTAL TEMP POTENTIAL TOTAL3 TEMPAVG PRESSURE GPRESSURE VOLUME PRESSAVG GPRESSAVG
ENERGY: 700000 5.4827 13.1355 2.4951 0.0000 -12513.9889 1939.4724 0.0000 0.0000 1217.9589 -9335.4443 206.8877 -10553.4031 -9333.6126 206.8877 -49.4770 27.4176 29045.7910 -49.4770 27.4176
ENERGY: 800000 3.1056 10.6168 3.3811 0.0000 -11764.1798 1634.4286 0.0000 0.0000 1425.1557 -8687.4919 242.0830 -10112.6476 -8685.6037 239.8666 -677.8204 -584.7341 28838.6049 3.0752 3.1676
TCL: Running 100000 steps at 270 kelvin.
TCL: Setting parameter langevinTemp to 270
TCL: Running for 100000 steps
ETITLE: TS BOND ANGLE DIHED IMPRP ELECT VDW BOUNDARY MISC KINETIC TOTAL TEMP POTENTIAL TOTAL3 TEMPAVG PRESSURE GPRESSURE VOLUME PRESSAVG GPRESSAVG
ENERGY: 800000 3.1056 10.6168 3.3811 0.0000 -11764.1798 1634.4286 0.0000 0.0000 1424.4735 -8688.1741 241.9671 -10112.6476 -8685.3991 241.9671 -665.3746 -587.6148 28838.6049 -665.3746 -587.6148
ENERGY: 900000 4.8995 8.6001 3.6449 0.0000 -11276.8122 1581.3520 0.0000 0.0000 1588.2672 -8090.0486 269.7899 -9678.3158 -8085.7913 270.2121 -120.8418 44.8385 29938.3508 2.7250 2.7736
TCL: Running 1000000 steps at 300 kelvin.
TCL: Setting parameter langevinTemp to 300
TCL: Running for 1000000 steps
ETITLE: TS BOND ANGLE DIHED IMPRP ELECT VDW BOUNDARY MISC KINETIC TOTAL TEMP POTENTIAL TOTAL3 TEMPAVG PRESSURE GPRESSURE VOLUME PRESSAVG GPRESSAVG
ENERGY: 900000 4.8995 8.6001 3.6449 0.0000 -11276.8122 1581.3520 0.0000 0.0000 1587.4652 -8090.8506 269.6536 -9678.3158 -8087.8527 269.6536 -52.4749 45.4054 29938.3508 -52.4749 45.4054
ENERGY: 1100000 2.0960 14.7457 5.1970 0.0000 -10662.4188 1451.3725 0.0000 0.0000 1817.0173 -7371.9903 308.6463 -9189.0077 -7370.6513 300.6101 621.6626 639.8166 30141.0795 3.0368 2.9450
ENERGY: 1300000 6.3454 13.1444 4.7398 0.0000 -10657.9550 1474.6985 0.0000 0.0000 1755.8025 -7403.2244 298.2481 -9159.0270 -7400.8311 300.4192 405.3259 497.1600 30437.2589 3.4706 3.4759
ENERGY: 1500000 3.3177 8.3795 6.4835 0.0000 -10636.8455 1396.2263 0.0000 0.0000 1809.5946 -7412.8438 307.3855 -9222.4384 -7408.9165 300.4091 -151.9152 -126.1708 30806.2358 2.6978 2.6331
ENERGY: 1700000 6.8845 13.0992 4.9732 0.0000 -10668.4204 1429.9793 0.0000 0.0000 1713.6210 -7499.8631 291.0830 -9213.4841 -7496.7002 299.6636 -232.4777 -77.2431 30725.4878 3.4579 3.1278
ENERGY: 1900000 5.8312 11.1018 4.6033 0.0000 -10770.2633 1494.8778 0.0000 0.0000 1754.1589 -7499.6903 297.9689 -9253.8491 -7498.5534 299.9059 401.8794 482.1743 30486.4254 2.0630 2.2600
TCL: Exiting due to exit command.
