Info: SIMULATION PARAMETERS:
Info: TIMESTEP               2
Info: NUMBER OF STEPS        0
Info: STEPS PER CYCLE        10
Info: PERIODIC CELL BASIS 1  34.207 0 0
Info: PERIODIC CELL BASIS 2  0 35.411 0
Info: PERIODIC CELL BASIS 3  0 0 35.723
Info: PERIODIC CELL CENTER   0 0 0
Info: WRAPPING WATERS AROUND PERIODIC BOUNDARIES ON OUTPUT.
Info: WRAPPING ALL CLUSTERS AROUND PERIODIC BOUNDARIES ON OUTPUT.
Info: FIRST LDB TIMESTEP     50
Info: LAST LDB TIMESTEP     -1
Info: HOM BACKGROUND SCALING 1
Info: PME BACKGROUND SCALING 1
Info: MIN ATOMS PER PATCH    40
Info: EMPTY PATCH LOAD       40 ATOMS
Info: INITIAL TEMPERATURE    300
Info: CENTER OF MASS MOVING INITIALLY? NO
Info: DIELECTRIC             1
Info: EXCLUDE                SCALED ONE-FOUR
Info: 1-4 ELECTROSTATICS SCALED BY 0.833333
Info: MODIFIED 1-4 VDW PARAMETERS WILL BE USED
Info: DCD FILENAME           mobley_1278715_equil.dcd
Info: DCD FREQUENCY          100000
Info: DCD FIRST STEP         100000
Info: DCD FILE WILL CONTAIN UNIT CELL DATA
Info: XST FILENAME           mobley_1278715_equil.xst
Info: XST FREQUENCY          100000
Info: NO VELOCITY DCD OUTPUT
Info: NO FORCE DCD OUTPUT
Info: OUTPUT FILENAME        mobley_1278715_equil
Info: BINARY OUTPUT FILES WILL BE USED
Info: RESTART FILENAME       mobley_1278715_equil.restart
Info: RESTART FREQUENCY      100000
Info: BINARY RESTART FILES WILL BE USED
Info: CUTOFF                 9
Info: PAIRLIST DISTANCE      11
Info: PAIRLIST SHRINK RATE   0.01
Info: PAIRLIST GROW RATE     0.01
Info: PAIRLIST TRIGGER       0.3
Info: PAIRLISTS PER CYCLE    2
Info: PAIRLISTS ENABLED
Info: MARGIN                 8
Info: HYDROGEN GROUP CUTOFF  2.5
Info: PATCH DIMENSION        21.5
Info: ENERGY OUTPUT STEPS    100000
Info: ENERGY EVALUATION STEPS    100000
Info: OUTPUT ENERGY PRECISION 4
Info: CROSSTERM ENERGY INCLUDED IN DIHEDRAL
Info: TIMING OUTPUT STEPS    1000000
Info: PRESSURE OUTPUT STEPS  100000
Info: LANGEVIN DYNAMICS ACTIVE
Info: LANGEVIN TEMPERATURE   30
Info: LANGEVIN USING BBK INTEGRATOR
Info: LANGEVIN DAMPING COEFFICIENT IS 1 INVERSE PS
Info: LANGEVIN DYNAMICS APPLIED TO HYDROGENS
Info: LANGEVIN PISTON PRESSURE CONTROL ACTIVE
Info:        TARGET PRESSURE IS 1.01325 BAR
Info:     OSCILLATION PERIOD IS 50 FS
Info:             DECAY TIME IS 25 FS
Info:     PISTON TEMPERATURE IS 300 K
Info:       PRESSURE CONTROL IS GROUP-BASED
Info:    INITIAL STRAIN RATE IS 0 0 0
Info:       CELL FLUCTUATION IS ISOTROPIC
Info: PARTICLE MESH EWALD (PME) ACTIVE
Info: PME TOLERANCE               1e-06
Info: PME EWALD COEFFICIENT       0.348832
Info: PME INTERPOLATION ORDER     4
Info: PME GRID DIMENSIONS         36 36 36
Info: PME MAXIMUM GRID SPACING    1
Info: FULL ELECTROSTATIC EVALUATION FREQUENCY      2
Info: USING VERLET I (r-RESPA) MTS SCHEME.
Info: C1 SPLITTING OF LONG RANGE ELECTROSTATICS
Info: PLACING ATOMS IN PATCHES BY HYDROGEN GROUPS
Info: RIGID BONDS TO HYDROGEN : ALL
Info:         ERROR TOLERANCE : 1e-08
Info:          MAX ITERATIONS : 100
Info: RIGID WATER USING SETTLE ALGORITHM
Info: RANDOM NUMBER SEED     1743156981
Info: USE HYDROGEN BONDS?    NO
Info: Using AMBER format force field!
Info: AMBER PARM FILE        mobley_1278715.prmtop
Info: COORDINATE PDB         mobley_1278715.pdb
Info: Exclusions will be read from PARM file!
Info: SCNB (VDW SCALING)     2
Info: USING ARITHMETIC MEAN TO COMBINE L-J SIGMA PARAMETERS
Info: BINARY COORDINATES     mobley_1278715_min.coor
Info: SUMMARY OF PARAMETERS:
Info: 4 BONDS
Info: 2 ANGLES
Info:   2 HARMONIC
Info:   0 COSINE-BASED
Info: 2 DIHEDRAL
Info: 0 IMPROPER
Info: 0 CROSSTERM
Info: 0 VDW
Info: 10 VDW_PAIRS
Info: 0 NBTHOLE_PAIRS
Info: STRUCTURE SUMMARY:
Info: 2903 ATOMS
Info: 2902 BONDS
Info: 12 ANGLES
Info: 18 DIHEDRALS
Info: 0 IMPROPERS
Info: 0 CROSSTERMS
Info: 2923 EXCLUSIONS
Info: 2895 RIGID BONDS
Info: 5814 DEGREES OF FREEDOM
Info: 973 HYDROGEN GROUPS
Info: 3 ATOMS IN LARGEST HYDROGEN GROUP
Info: 973 MIGRATION GROUPS
Info: 3 ATOMS IN LARGEST MIGRATION GROUP
Info: TOTAL MASS = 17622.2 amu
Info: TOTAL CHARGE = -0.000199974 e
Info: MASS DENSITY = 0.676266 g/cm^3
Info: ATOM DENSITY = 0.0670882 atoms/A^3
Info: ADDED 0 IMPLICIT EXCLUSIONS
Info: NONBONDED TABLE R-SQUARED SPACING: 0.0625
Info: NONBONDED TABLE SIZE: 705 POINTS
Info: REMOVING COM VELOCITY 0.0829109 -0.00746362 -0.0280934
TCL: Running for 100000 steps
ETITLE: TS BOND ANGLE DIHED IMPRP ELECT VDW BOUNDARY MISC KINETIC TOTAL TEMP POTENTIAL TOTAL3 TEMPAVG PRESSURE GPRESSURE VOLUME PRESSAVG GPRESSAVG
ENERGY: 0 0.1384 0.4233 4.0500 0.0000 -13521.6580 2376.4273 0.0000 0.0000 1750.3658 -9390.2533 303.0011 -11140.6191 -9389.9055 303.0011 365.8420 404.2322 43271.4155 365.8420 404.2322
ENERGY: 100000 0.2594 0.5901 4.0499 0.0000 -13935.2559 2370.9568 0.0000 0.0000 176.2635 -11383.1362 30.5125 -11559.3997 -11382.7285 30.8723 -502.7075 -412.1622 28751.0135 4.1916 4.1928
TCL: Running 100000 steps at 60 kelvin.
TCL: Setting parameter langevinTemp to 60
TCL: Running for 100000 steps
ETITLE: TS BOND ANGLE DIHED IMPRP ELECT VDW BOUNDARY MISC KINETIC TOTAL TEMP POTENTIAL TOTAL3 TEMPAVG PRESSURE GPRESSURE VOLUME PRESSAVG GPRESSAVG
ENERGY: 100000 0.2594 0.5901 4.0499 0.0000 -13935.2559 2370.9568 0.0000 0.0000 176.1754 -11383.2242 30.4973 -11559.3997 -11382.8198 30.4973 -490.5172 -412.3166 28751.0135 -490.5172 -412.3166
ENERGY: 200000 0.5147 0.3768 4.0499 0.0000 -13748.7111 2280.8251 0.0000 0.0000 339.5244 -11123.4202 58.7742 -11462.9446 -11122.7933 59.9373 -1014.8279 -965.4035 29193.8313 3.3117 3.3023
TCL: Running 100000 steps at 90 kelvin.
TCL: Setting parameter langevinTemp to 90
TCL: Running for 100000 steps
ETITLE: TS BOND ANGLE DIHED IMPRP ELECT VDW BOUNDARY MISC KINETIC TOTAL TEMP POTENTIAL TOTAL3 TEMPAVG PRESSURE GPRESSURE VOLUME PRESSAVG GPRESSAVG
ENERGY: 200000 0.5147 0.3768 4.0499 0.0000 -13748.7111 2280.8251 0.0000 0.0000 339.3579 -11123.5868 58.7453 -11462.9447 -11122.8319 58.7453 -1025.3890 -965.5684 29193.8313 -1025.3890 -965.5684
ENERGY: 300000 0.4471 1.2078 4.0492 0.0000 -13804.5608 2429.3754 0.0000 0.0000 522.3772 -10847.1042 90.4273 -11369.4814 -10845.4403 90.0659 610.7009 649.0445 29071.6940 3.9927 4.0408
TCL: Running 100000 steps at 120 kelvin.
TCL: Setting parameter langevinTemp to 120
TCL: Running for 100000 steps
ETITLE: TS BOND ANGLE DIHED IMPRP ELECT VDW BOUNDARY MISC KINETIC TOTAL TEMP POTENTIAL TOTAL3 TEMPAVG PRESSURE GPRESSURE VOLUME PRESSAVG GPRESSAVG
ENERGY: 300000 0.4471 1.2078 4.0492 0.0000 -13804.5608 2429.3754 0.0000 0.0000 522.1221 -10847.3592 90.3831 -11369.4814 -10846.3611 90.3831 594.6759 649.7318 29071.6940 594.6759 649.7318
ENERGY: 400000 0.5934 1.3370 4.0498 0.0000 -13559.4627 2308.1096 0.0000 0.0000 700.9167 -10544.4561 121.3338 -11245.3729 -10542.7355 119.8543 53.9242 80.8424 29002.6546 4.0226 4.0759
TCL: Running 100000 steps at 150 kelvin.
TCL: Setting parameter langevinTemp to 150
TCL: Running for 100000 steps
ETITLE: TS BOND ANGLE DIHED IMPRP ELECT VDW BOUNDARY MISC KINETIC TOTAL TEMP POTENTIAL TOTAL3 TEMPAVG PRESSURE GPRESSURE VOLUME PRESSAVG GPRESSAVG
ENERGY: 400000 0.5934 1.3370 4.0498 0.0000 -13559.4627 2308.1096 0.0000 0.0000 700.5786 -10544.7943 121.2753 -11245.3729 -10543.5755 121.2753 47.8956 81.3221 29002.6546 47.8956 81.3221
ENERGY: 500000 0.5798 1.7314 4.0474 0.0000 -13360.6714 2245.0220 0.0000 0.0000 866.7488 -10242.5420 150.0405 -11109.2908 -10241.5537 150.3251 265.5152 294.6300 28675.5194 3.2807 3.4310
TCL: Running 100000 steps at 180 kelvin.
TCL: Setting parameter langevinTemp to 180
TCL: Running for 100000 steps
ETITLE: TS BOND ANGLE DIHED IMPRP ELECT VDW BOUNDARY MISC KINETIC TOTAL TEMP POTENTIAL TOTAL3 TEMPAVG PRESSURE GPRESSURE VOLUME PRESSAVG GPRESSAVG
ENERGY: 500000 0.5798 1.7314 4.0474 0.0000 -13360.6714 2245.0220 0.0000 0.0000 866.3295 -10242.9613 149.9680 -11109.2908 -10241.2416 149.9680 243.3735 293.6760 28675.5194 243.3735 293.6760
ENERGY: 600000 1.4895 2.0982 4.0488 0.0000 -12858.6252 2015.6788 0.0000 0.0000 1011.4239 -9823.8860 175.0848 -10835.3099 -9821.7968 179.8465 -544.3077 -470.9293 28458.3125 3.6762 3.7438
TCL: Running 100000 steps at 210 kelvin.
TCL: Setting parameter langevinTemp to 210
TCL: Running for 100000 steps
ETITLE: TS BOND ANGLE DIHED IMPRP ELECT VDW BOUNDARY MISC KINETIC TOTAL TEMP POTENTIAL TOTAL3 TEMPAVG PRESSURE GPRESSURE VOLUME PRESSAVG GPRESSAVG
ENERGY: 600000 1.4895 2.0982 4.0488 0.0000 -12858.6252 2015.6788 0.0000 0.0000 1010.8948 -9824.4152 174.9933 -10835.3099 -9822.6220 174.9933 -535.3228 -471.4814 28458.3125 -535.3228 -471.4814
ENERGY: 700000 2.7057 2.2741 4.0496 0.0000 -12207.4461 1884.9240 0.0000 0.0000 1207.3762 -9106.1165 209.0056 -10313.4927 -9105.2928 209.8952 340.8669 449.1699 28210.0570 3.8845 3.9570
TCL: Running 100000 steps at 240 kelvin.
TCL: Setting parameter langevinTemp to 240
TCL: Running for 100000 steps
ETITLE: TS BOND ANGLE DIHED IMPRP ELECT VDW BOUNDARY MISC KINETIC TOTAL TEMP POTENTIAL TOTAL3 TEMPAVG PRESSURE GPRESSURE VOLUME PRESSAVG GPRESSAVG
ENERGY: 700000 2.7057 2.2741 4.0496 0.0000 -12207.4461 1884.9240 0.0000 0.0000 1206.7754 -9106.7173 208.9016 -10313.4927 -9104.5116 208.9016 372.9425 447.6093 28210.0570 372.9425 447.6093
ENERGY: 800000 1.5881 3.5555 4.0493 0.0000 -11529.5081 1632.5492 0.0000 0.0000 1386.3029 -8501.4630 239.9791 -9887.7659 -8499.3133 239.9768 -477.0568 -327.7221 28782.0297 3.3067 3.0960
TCL: Running 100000 steps at 270 kelvin.
TCL: Setting parameter langevinTemp to 270
TCL: Running for 100000 steps
ETITLE: TS BOND ANGLE DIHED IMPRP ELECT VDW BOUNDARY MISC KINETIC TOTAL TEMP POTENTIAL TOTAL3 TEMPAVG PRESSURE GPRESSURE VOLUME PRESSAVG GPRESSAVG
ENERGY: 800000 1.5881 3.5555 4.0493 0.0000 -11529.5081 1632.5492 0.0000 0.0000 1385.6253 -8502.1406 239.8618 -9887.7659 -8499.9323 239.8618 -408.5981 -327.7756 28782.0297 -408.5981 -327.7756
ENERGY: 900000 2.0393 1.6996 4.0493 0.0000 -10982.7478 1452.4934 0.0000 0.0000 1524.9228 -7997.5434 263.9753 -9522.4662 -7991.9312 269.6581 -640.7159 -580.7614 29044.5986 1.8484 1.8661
TCL: Running 1000000 steps at 300 kelvin.
TCL: Setting parameter langevinTemp to 300
TCL: Running for 1000000 steps
ETITLE: TS BOND ANGLE DIHED IMPRP ELECT VDW BOUNDARY MISC KINETIC TOTAL TEMP POTENTIAL TOTAL3 TEMPAVG PRESSURE GPRESSURE VOLUME PRESSAVG GPRESSAVG
ENERGY: 900000 2.0393 1.6996 4.0493 0.0000 -10982.7478 1452.4934 0.0000 0.0000 1524.1462 -7998.3200 263.8408 -9522.4662 -7996.0157 263.8408 -664.0528 -578.5841 29044.5986 -664.0528 -578.5841
ENERGY: 1100000 1.5771 2.7999 4.0569 0.0000 -10498.8131 1355.3974 0.0000 0.0000 1761.5438 -7373.4380 304.9361 -9134.9818 -7369.7948 300.4978 -272.6826 -187.3758 29445.9111 2.1397 2.2033
ENERGY: 1300000 1.0804 4.1700 4.0472 0.0000 -10464.9918 1376.9324 0.0000 0.0000 1680.4801 -7398.2818 290.9034 -9078.7619 -7394.7439 300.1995 -286.3230 -147.4696 30201.1539 2.5129 2.7569
ENERGY: 1500000 3.5569 4.4921 4.0555 0.0000 -10630.2428 1466.0109 0.0000 0.0000 1747.4154 -7404.7122 302.4903 -9152.1276 -7400.2298 299.7057 328.4194 439.0855 29745.7367 2.0103 2.0875
ENERGY: 1700000 3.6301 2.1322 4.0501 0.0000 -10556.4683 1410.9013 0.0000 0.0000 1742.4151 -7393.3396 301.6248 -9135.7547 -7390.9032 299.5478 -406.8153 -333.5467 30661.2734 2.1484 2.1739
ENERGY: 1900000 3.6834 1.9707 4.0494 0.0000 -10360.7815 1260.3208 0.0000 0.0000 1697.0572 -7393.6999 293.7730 -9090.7572 -7389.5726 300.0349 -1183.6139 -1065.7268 30232.2928 4.2758 4.2727
TCL: Exiting due to exit command.
