Info: SIMULATION PARAMETERS:
Info: TIMESTEP               2
Info: NUMBER OF STEPS        0
Info: STEPS PER CYCLE        10
Info: PERIODIC CELL BASIS 1  38.861 0 0
Info: PERIODIC CELL BASIS 2  0 34.26 0
Info: PERIODIC CELL BASIS 3  0 0 33.152
Info: PERIODIC CELL CENTER   0 0 0
Info: WRAPPING WATERS AROUND PERIODIC BOUNDARIES ON OUTPUT.
Info: WRAPPING ALL CLUSTERS AROUND PERIODIC BOUNDARIES ON OUTPUT.
Info: FIRST LDB TIMESTEP     50
Info: LAST LDB TIMESTEP     -1
Info: HOM BACKGROUND SCALING 1
Info: PME BACKGROUND SCALING 1
Info: MIN ATOMS PER PATCH    40
Info: EMPTY PATCH LOAD       40 ATOMS
Info: INITIAL TEMPERATURE    300
Info: CENTER OF MASS MOVING INITIALLY? NO
Info: DIELECTRIC             1
Info: EXCLUDE                SCALED ONE-FOUR
Info: 1-4 ELECTROSTATICS SCALED BY 0.833333
Info: MODIFIED 1-4 VDW PARAMETERS WILL BE USED
Info: DCD FILENAME           mobley_2364370_equil.dcd
Info: DCD FREQUENCY          100000
Info: DCD FIRST STEP         100000
Info: DCD FILE WILL CONTAIN UNIT CELL DATA
Info: XST FILENAME           mobley_2364370_equil.xst
Info: XST FREQUENCY          100000
Info: NO VELOCITY DCD OUTPUT
Info: NO FORCE DCD OUTPUT
Info: OUTPUT FILENAME        mobley_2364370_equil
Info: BINARY OUTPUT FILES WILL BE USED
Info: RESTART FILENAME       mobley_2364370_equil.restart
Info: RESTART FREQUENCY      100000
Info: BINARY RESTART FILES WILL BE USED
Info: CUTOFF                 9
Info: PAIRLIST DISTANCE      11
Info: PAIRLIST SHRINK RATE   0.01
Info: PAIRLIST GROW RATE     0.01
Info: PAIRLIST TRIGGER       0.3
Info: PAIRLISTS PER CYCLE    2
Info: PAIRLISTS ENABLED
Info: MARGIN                 8
Info: HYDROGEN GROUP CUTOFF  2.5
Info: PATCH DIMENSION        21.5
Info: ENERGY OUTPUT STEPS    100000
Info: ENERGY EVALUATION STEPS    100000
Info: OUTPUT ENERGY PRECISION 4
Info: CROSSTERM ENERGY INCLUDED IN DIHEDRAL
Info: TIMING OUTPUT STEPS    1000000
Info: PRESSURE OUTPUT STEPS  100000
Info: LANGEVIN DYNAMICS ACTIVE
Info: LANGEVIN TEMPERATURE   30
Info: LANGEVIN USING BBK INTEGRATOR
Info: LANGEVIN DAMPING COEFFICIENT IS 1 INVERSE PS
Info: LANGEVIN DYNAMICS APPLIED TO HYDROGENS
Info: LANGEVIN PISTON PRESSURE CONTROL ACTIVE
Info:        TARGET PRESSURE IS 1.01325 BAR
Info:     OSCILLATION PERIOD IS 50 FS
Info:             DECAY TIME IS 25 FS
Info:     PISTON TEMPERATURE IS 300 K
Info:       PRESSURE CONTROL IS GROUP-BASED
Info:    INITIAL STRAIN RATE IS 0 0 0
Info:       CELL FLUCTUATION IS ISOTROPIC
Info: PARTICLE MESH EWALD (PME) ACTIVE
Info: PME TOLERANCE               1e-06
Info: PME EWALD COEFFICIENT       0.348832
Info: PME INTERPOLATION ORDER     4
Info: PME GRID DIMENSIONS         40 36 36
Info: PME MAXIMUM GRID SPACING    1
Info: FULL ELECTROSTATIC EVALUATION FREQUENCY      2
Info: USING VERLET I (r-RESPA) MTS SCHEME.
Info: C1 SPLITTING OF LONG RANGE ELECTROSTATICS
Info: PLACING ATOMS IN PATCHES BY HYDROGEN GROUPS
Info: RIGID BONDS TO HYDROGEN : ALL
Info:         ERROR TOLERANCE : 1e-08
Info:          MAX ITERATIONS : 100
Info: RIGID WATER USING SETTLE ALGORITHM
Info: RANDOM NUMBER SEED     1743250910
Info: USE HYDROGEN BONDS?    NO
Info: Using AMBER format force field!
Info: AMBER PARM FILE        mobley_2364370.prmtop
Info: COORDINATE PDB         mobley_2364370.pdb
Info: Exclusions will be read from PARM file!
Info: SCNB (VDW SCALING)     2
Info: USING ARITHMETIC MEAN TO COMBINE L-J SIGMA PARAMETERS
Info: BINARY COORDINATES     mobley_2364370_min.coor
Info: SUMMARY OF PARAMETERS:
Info: 9 BONDS
Info: 12 ANGLES
Info:   12 HARMONIC
Info:   0 COSINE-BASED
Info: 20 DIHEDRAL
Info: 0 IMPROPER
Info: 0 CROSSTERM
Info: 0 VDW
Info: 36 VDW_PAIRS
Info: 0 NBTHOLE_PAIRS
Info: STRUCTURE SUMMARY:
Info: 2948 ATOMS
Info: 2947 BONDS
Info: 34 ANGLES
Info: 53 DIHEDRALS
Info: 0 IMPROPERS
Info: 0 CROSSTERMS
Info: 3019 EXCLUSIONS
Info: 2940 RIGID BONDS
Info: 5904 DEGREES OF FREEDOM
Info: 984 HYDROGEN GROUPS
Info: 4 ATOMS IN LARGEST HYDROGEN GROUP
Info: 984 MIGRATION GROUPS
Info: 4 ATOMS IN LARGEST MIGRATION GROUP
Info: TOTAL MASS = 17699.8 amu
Info: TOTAL CHARGE = 0.000299968 e
Info: MASS DENSITY = 0.66591 g/cm^3
Info: ATOM DENSITY = 0.0667908 atoms/A^3
Info: ADDED 0 IMPLICIT EXCLUSIONS
Info: NONBONDED TABLE R-SQUARED SPACING: 0.0625
Info: NONBONDED TABLE SIZE: 705 POINTS
Info: REMOVING COM VELOCITY 0.00774948 -0.0334053 0.186083
TCL: Running for 100000 steps
ETITLE: TS BOND ANGLE DIHED IMPRP ELECT VDW BOUNDARY MISC KINETIC TOTAL TEMP POTENTIAL TOTAL3 TEMPAVG PRESSURE GPRESSURE VOLUME PRESSAVG GPRESSAVG
ENERGY: 0 0.0684 0.5973 5.4680 0.0000 -13622.5654 2367.3898 0.0000 0.0000 1746.9891 -9502.0528 297.8065 -11249.0419 -9501.7262 297.8065 329.8202 366.3777 44137.8388 329.8202 366.3777
ENERGY: 100000 0.1824 1.0758 5.4457 0.0000 -14204.6333 2459.9780 0.0000 0.0000 168.7646 -11569.1868 28.7690 -11737.9515 -11568.8509 30.9146 -29.6666 29.1879 28754.6153 3.9008 3.9133
TCL: Running 100000 steps at 60 kelvin.
TCL: Setting parameter langevinTemp to 60
TCL: Running for 100000 steps
ETITLE: TS BOND ANGLE DIHED IMPRP ELECT VDW BOUNDARY MISC KINETIC TOTAL TEMP POTENTIAL TOTAL3 TEMPAVG PRESSURE GPRESSURE VOLUME PRESSAVG GPRESSAVG
ENERGY: 100000 0.1824 1.0758 5.4457 0.0000 -14204.6333 2459.9780 0.0000 0.0000 168.6755 -11569.2760 28.7539 -11737.9515 -11568.8650 28.7539 -20.4264 29.1572 28754.6153 -20.4264 29.1572
ENERGY: 200000 0.4709 1.8045 5.7245 0.0000 -14182.6028 2503.9903 0.0000 0.0000 338.0980 -11332.5147 57.6350 -11670.6127 -11331.5747 59.9697 816.9759 834.4597 28629.6798 4.7027 4.7083
TCL: Running 100000 steps at 90 kelvin.
TCL: Setting parameter langevinTemp to 90
TCL: Running for 100000 steps
ETITLE: TS BOND ANGLE DIHED IMPRP ELECT VDW BOUNDARY MISC KINETIC TOTAL TEMP POTENTIAL TOTAL3 TEMPAVG PRESSURE GPRESSURE VOLUME PRESSAVG GPRESSAVG
ENERGY: 200000 0.4709 1.8045 5.7245 0.0000 -14182.6028 2503.9903 0.0000 0.0000 337.9263 -11332.6864 57.6058 -11670.6127 -11331.9546 57.6058 783.4279 834.0565 28629.6798 783.4279 834.0565
ENERGY: 300000 1.0919 2.4123 5.8483 0.0000 -13965.1238 2433.6215 0.0000 0.0000 529.6550 -10992.4949 90.2895 -11522.1499 -10991.5794 89.8196 736.4113 799.3101 28719.6363 4.8469 4.9913
TCL: Running 100000 steps at 120 kelvin.
TCL: Setting parameter langevinTemp to 120
TCL: Running for 100000 steps
ETITLE: TS BOND ANGLE DIHED IMPRP ELECT VDW BOUNDARY MISC KINETIC TOTAL TEMP POTENTIAL TOTAL3 TEMPAVG PRESSURE GPRESSURE VOLUME PRESSAVG GPRESSAVG
ENERGY: 300000 1.0919 2.4123 5.8483 0.0000 -13965.1238 2433.6215 0.0000 0.0000 529.4029 -10992.7470 90.2465 -11522.1499 -10991.7012 90.2465 762.3610 798.9028 28719.6363 762.3610 798.9028
ENERGY: 400000 0.8705 6.5262 6.2653 0.0000 -13848.6444 2404.3113 0.0000 0.0000 697.4353 -10733.2358 118.8907 -11430.6710 -10731.6525 119.9598 645.0790 712.9971 28942.5806 4.3863 4.3318
TCL: Running 100000 steps at 150 kelvin.
TCL: Setting parameter langevinTemp to 150
TCL: Running for 100000 steps
ETITLE: TS BOND ANGLE DIHED IMPRP ELECT VDW BOUNDARY MISC KINETIC TOTAL TEMP POTENTIAL TOTAL3 TEMPAVG PRESSURE GPRESSURE VOLUME PRESSAVG GPRESSAVG
ENERGY: 400000 0.8705 6.5262 6.2653 0.0000 -13848.6444 2404.3113 0.0000 0.0000 697.0918 -10733.5792 118.8322 -11430.6710 -10732.2968 118.8322 666.7235 713.1648 28942.5806 666.7235 713.1648
ENERGY: 500000 0.5249 5.8423 5.4250 0.0000 -13571.4246 2262.8438 0.0000 0.0000 880.1850 -10416.6036 150.0438 -11296.7886 -10413.4771 149.8642 -46.4092 43.4738 28856.2719 3.7617 3.7335
TCL: Running 100000 steps at 180 kelvin.
TCL: Setting parameter langevinTemp to 180
TCL: Running for 100000 steps
ETITLE: TS BOND ANGLE DIHED IMPRP ELECT VDW BOUNDARY MISC KINETIC TOTAL TEMP POTENTIAL TOTAL3 TEMPAVG PRESSURE GPRESSURE VOLUME PRESSAVG GPRESSAVG
ENERGY: 500000 0.5249 5.8423 5.4250 0.0000 -13571.4246 2262.8438 0.0000 0.0000 879.7344 -10417.0542 149.9670 -11296.7886 -10415.3083 149.9670 -11.5482 45.0199 28856.2719 -11.5482 45.0199
ENERGY: 600000 1.6177 3.7833 5.2639 0.0000 -12954.8021 2012.1733 0.0000 0.0000 1100.0351 -9831.9288 187.5213 -10931.9639 -9828.8804 180.3560 -831.1229 -740.0411 29153.4731 2.5108 2.6438
TCL: Running 100000 steps at 210 kelvin.
TCL: Setting parameter langevinTemp to 210
TCL: Running for 100000 steps
ETITLE: TS BOND ANGLE DIHED IMPRP ELECT VDW BOUNDARY MISC KINETIC TOTAL TEMP POTENTIAL TOTAL3 TEMPAVG PRESSURE GPRESSURE VOLUME PRESSAVG GPRESSAVG
ENERGY: 600000 1.6177 3.7833 5.2639 0.0000 -12954.8021 2012.1733 0.0000 0.0000 1099.5100 -9832.4539 187.4318 -10931.9639 -9829.7858 187.4318 -804.1144 -740.4514 29153.4731 -804.1144 -740.4514
ENERGY: 700000 0.1416 5.9978 6.2481 0.0000 -12518.8068 1914.5241 0.0000 0.0000 1254.9303 -9336.9649 213.9260 -10591.8952 -9334.6919 209.6424 -209.3965 -140.6841 29024.6780 3.6752 3.8504
TCL: Running 100000 steps at 240 kelvin.
TCL: Setting parameter langevinTemp to 240
TCL: Running for 100000 steps
ETITLE: TS BOND ANGLE DIHED IMPRP ELECT VDW BOUNDARY MISC KINETIC TOTAL TEMP POTENTIAL TOTAL3 TEMPAVG PRESSURE GPRESSURE VOLUME PRESSAVG GPRESSAVG
ENERGY: 700000 0.1416 5.9978 6.2481 0.0000 -12518.8068 1914.5241 0.0000 0.0000 1254.3264 -9337.5688 213.8231 -10591.8952 -9335.3582 213.8231 -214.3201 -140.7938 29024.6780 -214.3201 -140.7938
ENERGY: 800000 2.4255 4.0021 5.2114 0.0000 -11840.9551 1725.8536 0.0000 0.0000 1397.2169 -8706.2454 238.1814 -10103.4623 -8703.4084 239.9082 -12.2579 66.7547 29027.9718 3.0273 2.7731
TCL: Running 100000 steps at 270 kelvin.
TCL: Setting parameter langevinTemp to 270
TCL: Running for 100000 steps
ETITLE: TS BOND ANGLE DIHED IMPRP ELECT VDW BOUNDARY MISC KINETIC TOTAL TEMP POTENTIAL TOTAL3 TEMPAVG PRESSURE GPRESSURE VOLUME PRESSAVG GPRESSAVG
ENERGY: 800000 2.4255 4.0021 5.2114 0.0000 -11840.9551 1725.8536 0.0000 0.0000 1396.5128 -8706.9495 238.0614 -10103.4623 -8704.6657 238.0614 -17.6175 67.2276 29027.9718 -17.6175 67.2276
ENERGY: 900000 4.0915 8.4121 7.2915 0.0000 -11137.9946 1520.2286 0.0000 0.0000 1534.2692 -8063.7017 261.5445 -9597.9708 -8062.5750 269.7107 89.4888 127.6915 29423.0490 2.4370 2.4924
TCL: Running 1000000 steps at 300 kelvin.
TCL: Setting parameter langevinTemp to 300
TCL: Running for 1000000 steps
ETITLE: TS BOND ANGLE DIHED IMPRP ELECT VDW BOUNDARY MISC KINETIC TOTAL TEMP POTENTIAL TOTAL3 TEMPAVG PRESSURE GPRESSURE VOLUME PRESSAVG GPRESSAVG
ENERGY: 900000 4.0915 8.4121 7.2915 0.0000 -11137.9946 1520.2286 0.0000 0.0000 1533.4782 -8064.4926 261.4097 -9597.9708 -8062.5251 261.4097 34.8526 127.8638 29423.0490 34.8526 127.8638
ENERGY: 1100000 3.4329 6.8892 6.8251 0.0000 -10593.1488 1387.1528 0.0000 0.0000 1711.5939 -7477.2550 291.7728 -9188.8489 -7474.6284 299.9092 -42.3455 79.5165 29918.8875 4.8693 4.7671
ENERGY: 1300000 2.4586 7.2711 7.8791 0.0000 -10680.3298 1348.2446 0.0000 0.0000 1768.4973 -7545.9792 301.4730 -9314.4765 -7541.3649 300.3629 -1045.0408 -950.0565 30453.4714 2.5884 2.6587
ENERGY: 1500000 1.3173 7.7024 5.8128 0.0000 -10823.8126 1566.6582 0.0000 0.0000 1722.9823 -7519.3395 293.7141 -9242.3218 -7515.2506 300.1449 1024.3387 1084.1862 30263.6694 3.9122 3.7397
ENERGY: 1700000 1.8132 4.7179 5.0027 0.0000 -10627.9423 1402.1606 0.0000 0.0000 1757.6758 -7456.5720 299.6283 -9214.2478 -7453.6257 299.9352 -636.8902 -503.7497 31042.6924 3.2857 3.3323
ENERGY: 1900000 3.1517 14.9960 8.3003 0.0000 -10652.0957 1366.3500 0.0000 0.0000 1734.8349 -7524.4628 295.7346 -9259.2977 -7522.5006 300.3614 -713.1039 -633.1097 30563.4692 2.2048 2.1771
TCL: Exiting due to exit command.
