Info: SIMULATION PARAMETERS:
Info: TIMESTEP               2
Info: NUMBER OF STEPS        0
Info: STEPS PER CYCLE        10
Info: PERIODIC CELL BASIS 1  37.133 0 0
Info: PERIODIC CELL BASIS 2  0 36.451 0
Info: PERIODIC CELL BASIS 3  0 0 33.876
Info: PERIODIC CELL CENTER   0 0 0
Info: WRAPPING WATERS AROUND PERIODIC BOUNDARIES ON OUTPUT.
Info: WRAPPING ALL CLUSTERS AROUND PERIODIC BOUNDARIES ON OUTPUT.
Info: FIRST LDB TIMESTEP     50
Info: LAST LDB TIMESTEP     -1
Info: HOM BACKGROUND SCALING 1
Info: PME BACKGROUND SCALING 1
Info: MIN ATOMS PER PATCH    40
Info: EMPTY PATCH LOAD       40 ATOMS
Info: INITIAL TEMPERATURE    300
Info: CENTER OF MASS MOVING INITIALLY? NO
Info: DIELECTRIC             1
Info: EXCLUDE                SCALED ONE-FOUR
Info: 1-4 ELECTROSTATICS SCALED BY 0.833333
Info: MODIFIED 1-4 VDW PARAMETERS WILL BE USED
Info: DCD FILENAME           mobley_9414831_equil.dcd
Info: DCD FREQUENCY          100000
Info: DCD FIRST STEP         100000
Info: DCD FILE WILL CONTAIN UNIT CELL DATA
Info: XST FILENAME           mobley_9414831_equil.xst
Info: XST FREQUENCY          100000
Info: NO VELOCITY DCD OUTPUT
Info: NO FORCE DCD OUTPUT
Info: OUTPUT FILENAME        mobley_9414831_equil
Info: BINARY OUTPUT FILES WILL BE USED
Info: RESTART FILENAME       mobley_9414831_equil.restart
Info: RESTART FREQUENCY      100000
Info: BINARY RESTART FILES WILL BE USED
Info: CUTOFF                 9
Info: PAIRLIST DISTANCE      11
Info: PAIRLIST SHRINK RATE   0.01
Info: PAIRLIST GROW RATE     0.01
Info: PAIRLIST TRIGGER       0.3
Info: PAIRLISTS PER CYCLE    2
Info: PAIRLISTS ENABLED
Info: MARGIN                 8
Info: HYDROGEN GROUP CUTOFF  2.5
Info: PATCH DIMENSION        21.5
Info: ENERGY OUTPUT STEPS    100000
Info: ENERGY EVALUATION STEPS    100000
Info: OUTPUT ENERGY PRECISION 4
Info: CROSSTERM ENERGY INCLUDED IN DIHEDRAL
Info: TIMING OUTPUT STEPS    1000000
Info: PRESSURE OUTPUT STEPS  100000
Info: LANGEVIN DYNAMICS ACTIVE
Info: LANGEVIN TEMPERATURE   30
Info: LANGEVIN USING BBK INTEGRATOR
Info: LANGEVIN DAMPING COEFFICIENT IS 1 INVERSE PS
Info: LANGEVIN DYNAMICS APPLIED TO HYDROGENS
Info: LANGEVIN PISTON PRESSURE CONTROL ACTIVE
Info:        TARGET PRESSURE IS 1.01325 BAR
Info:     OSCILLATION PERIOD IS 50 FS
Info:             DECAY TIME IS 25 FS
Info:     PISTON TEMPERATURE IS 300 K
Info:       PRESSURE CONTROL IS GROUP-BASED
Info:    INITIAL STRAIN RATE IS 0 0 0
Info:       CELL FLUCTUATION IS ISOTROPIC
Info: PARTICLE MESH EWALD (PME) ACTIVE
Info: PME TOLERANCE               1e-06
Info: PME EWALD COEFFICIENT       0.348832
Info: PME INTERPOLATION ORDER     4
Info: PME GRID DIMENSIONS         40 40 36
Info: PME MAXIMUM GRID SPACING    1
Info: FULL ELECTROSTATIC EVALUATION FREQUENCY      2
Info: USING VERLET I (r-RESPA) MTS SCHEME.
Info: C1 SPLITTING OF LONG RANGE ELECTROSTATICS
Info: PLACING ATOMS IN PATCHES BY HYDROGEN GROUPS
Info: RIGID BONDS TO HYDROGEN : ALL
Info:         ERROR TOLERANCE : 1e-08
Info:          MAX ITERATIONS : 100
Info: RIGID WATER USING SETTLE ALGORITHM
Info: RANDOM NUMBER SEED     1743219124
Info: USE HYDROGEN BONDS?    NO
Info: Using AMBER format force field!
Info: AMBER PARM FILE        mobley_9414831.prmtop
Info: COORDINATE PDB         mobley_9414831.pdb
Info: Exclusions will be read from PARM file!
Info: SCNB (VDW SCALING)     2
Info: USING ARITHMETIC MEAN TO COMBINE L-J SIGMA PARAMETERS
Info: BINARY COORDINATES     mobley_9414831_min.coor
Info: SUMMARY OF PARAMETERS:
Info: 6 BONDS
Info: 5 ANGLES
Info:   5 HARMONIC
Info:   0 COSINE-BASED
Info: 3 DIHEDRAL
Info: 0 IMPROPER
Info: 0 CROSSTERM
Info: 0 VDW
Info: 21 VDW_PAIRS
Info: 0 NBTHOLE_PAIRS
Info: STRUCTURE SUMMARY:
Info: 2973 ATOMS
Info: 2974 BONDS
Info: 36 ANGLES
Info: 60 DIHEDRALS
Info: 0 IMPROPERS
Info: 0 CROSSTERMS
Info: 3054 EXCLUSIONS
Info: 2962 RIGID BONDS
Info: 5957 DEGREES OF FREEDOM
Info: 995 HYDROGEN GROUPS
Info: 4 ATOMS IN LARGEST HYDROGEN GROUP
Info: 995 MIGRATION GROUPS
Info: 4 ATOMS IN LARGEST MIGRATION GROUP
Info: TOTAL MASS = 17869.9 amu
Info: TOTAL CHARGE = 9.99738e-05 e
Info: MASS DENSITY = 0.647173 g/cm^3
Info: ATOM DENSITY = 0.0648386 atoms/A^3
Info: ADDED 0 IMPLICIT EXCLUSIONS
Info: NONBONDED TABLE R-SQUARED SPACING: 0.0625
Info: NONBONDED TABLE SIZE: 705 POINTS
Info: REMOVING COM VELOCITY -0.00694161 -0.173322 -0.134317
TCL: Running for 100000 steps
ETITLE: TS BOND ANGLE DIHED IMPRP ELECT VDW BOUNDARY MISC KINETIC TOTAL TEMP POTENTIAL TOTAL3 TEMPAVG PRESSURE GPRESSURE VOLUME PRESSAVG GPRESSAVG
ENERGY: 0 0.5244 0.4011 0.0101 0.0000 -13701.9374 2420.9528 0.0000 0.0000 1849.5456 -9430.5033 312.4840 -11280.0489 -9430.1414 312.4840 474.0769 512.8910 45852.3511 474.0769 512.8910
ENERGY: 100000 1.0136 1.2767 0.5577 0.0000 -14263.8005 2446.5356 0.0000 0.0000 173.1354 -11641.2816 29.2515 -11814.4170 -11640.7225 30.9010 -278.5275 -207.8685 28772.7963 4.2589 4.2529
TCL: Running 100000 steps at 60 kelvin.
TCL: Setting parameter langevinTemp to 60
TCL: Running for 100000 steps
ETITLE: TS BOND ANGLE DIHED IMPRP ELECT VDW BOUNDARY MISC KINETIC TOTAL TEMP POTENTIAL TOTAL3 TEMPAVG PRESSURE GPRESSURE VOLUME PRESSAVG GPRESSAVG
ENERGY: 100000 1.0136 1.2767 0.5577 0.0000 -14263.8005 2446.5356 0.0000 0.0000 173.0449 -11641.3721 29.2362 -11814.4170 -11641.0225 29.2362 -268.5575 -207.7370 28772.7963 -268.5575 -207.7370
ENERGY: 200000 1.6026 1.5777 0.6902 0.0000 -14140.6365 2401.7427 0.0000 0.0000 361.2122 -11373.8111 61.0274 -11735.0233 -11372.5893 60.0295 -175.2548 -129.2973 28518.5412 4.6620 4.6465
TCL: Running 100000 steps at 90 kelvin.
TCL: Setting parameter langevinTemp to 90
TCL: Running for 100000 steps
ETITLE: TS BOND ANGLE DIHED IMPRP ELECT VDW BOUNDARY MISC KINETIC TOTAL TEMP POTENTIAL TOTAL3 TEMPAVG PRESSURE GPRESSURE VOLUME PRESSAVG GPRESSAVG
ENERGY: 200000 1.6026 1.5777 0.6902 0.0000 -14140.6365 2401.7427 0.0000 0.0000 361.0410 -11373.9823 60.9985 -11735.0233 -11373.2215 60.9985 -185.4677 -129.0569 28518.5412 -185.4677 -129.0569
ENERGY: 300000 1.3348 1.5827 1.4053 0.0000 -14149.0611 2505.8794 0.0000 0.0000 553.3939 -11085.4650 93.4969 -11638.8589 -11083.8841 89.8094 994.5308 1053.0904 28598.9702 5.5715 5.5059
TCL: Running 100000 steps at 120 kelvin.
TCL: Setting parameter langevinTemp to 120
TCL: Running for 100000 steps
ETITLE: TS BOND ANGLE DIHED IMPRP ELECT VDW BOUNDARY MISC KINETIC TOTAL TEMP POTENTIAL TOTAL3 TEMPAVG PRESSURE GPRESSURE VOLUME PRESSAVG GPRESSAVG
ENERGY: 300000 1.3348 1.5827 1.4053 0.0000 -14149.0611 2505.8794 0.0000 0.0000 553.1321 -11085.7269 93.4526 -11638.8589 -11084.6541 93.4526 1010.8042 1052.9519 28598.9702 1010.8042 1052.9519
ENERGY: 400000 1.8212 2.8457 1.0446 0.0000 -14020.8126 2511.0520 0.0000 0.0000 688.7254 -10815.3237 116.3614 -11504.0491 -10813.8897 119.7790 1604.6684 1676.9287 28575.0743 2.5451 2.5682
TCL: Running 100000 steps at 150 kelvin.
TCL: Setting parameter langevinTemp to 150
TCL: Running for 100000 steps
ETITLE: TS BOND ANGLE DIHED IMPRP ELECT VDW BOUNDARY MISC KINETIC TOTAL TEMP POTENTIAL TOTAL3 TEMPAVG PRESSURE GPRESSURE VOLUME PRESSAVG GPRESSAVG
ENERGY: 400000 1.8212 2.8457 1.0446 0.0000 -14020.8126 2511.0520 0.0000 0.0000 688.3671 -10815.6820 116.3008 -11504.0491 -10814.4642 116.3008 1632.7386 1676.6714 28575.0743 1632.7386 1676.6714
ENERGY: 500000 3.1708 2.1854 1.4287 0.0000 -13683.5648 2314.8684 0.0000 0.0000 835.7841 -10526.1274 141.2072 -11361.9115 -10526.1729 150.1460 242.4590 285.5968 29151.8434 6.2579 6.2078
TCL: Running 100000 steps at 180 kelvin.
TCL: Setting parameter langevinTemp to 180
TCL: Running for 100000 steps
ETITLE: TS BOND ANGLE DIHED IMPRP ELECT VDW BOUNDARY MISC KINETIC TOTAL TEMP POTENTIAL TOTAL3 TEMPAVG PRESSURE GPRESSURE VOLUME PRESSAVG GPRESSAVG
ENERGY: 500000 3.1708 2.1854 1.4287 0.0000 -13683.5648 2314.8684 0.0000 0.0000 835.3414 -10526.5701 141.1324 -11361.9115 -10524.6958 141.1324 241.0194 284.6941 29151.8434 241.0194 284.6941
ENERGY: 600000 2.9014 2.9669 2.7536 0.0000 -13194.5874 2158.3457 0.0000 0.0000 1074.0040 -9953.6158 181.4549 -11027.6198 -9950.7954 179.9283 435.2670 534.2147 28715.0441 3.9990 3.9157
TCL: Running 100000 steps at 210 kelvin.
TCL: Setting parameter langevinTemp to 210
TCL: Running for 100000 steps
ETITLE: TS BOND ANGLE DIHED IMPRP ELECT VDW BOUNDARY MISC KINETIC TOTAL TEMP POTENTIAL TOTAL3 TEMPAVG PRESSURE GPRESSURE VOLUME PRESSAVG GPRESSAVG
ENERGY: 600000 2.9014 2.9669 2.7536 0.0000 -13194.5874 2158.3457 0.0000 0.0000 1073.4604 -9954.1594 181.3630 -11027.6198 -9952.0963 181.3630 481.6317 533.7430 28715.0441 481.6317 533.7430
ENERGY: 700000 2.0585 5.4545 1.6524 0.0000 -12574.3677 2009.3867 0.0000 0.0000 1238.1808 -9317.6347 209.1929 -10555.8155 -9314.6297 210.0411 939.6090 975.0199 28857.9563 2.5883 2.5487
TCL: Running 100000 steps at 240 kelvin.
TCL: Setting parameter langevinTemp to 240
TCL: Running for 100000 steps
ETITLE: TS BOND ANGLE DIHED IMPRP ELECT VDW BOUNDARY MISC KINETIC TOTAL TEMP POTENTIAL TOTAL3 TEMPAVG PRESSURE GPRESSURE VOLUME PRESSAVG GPRESSAVG
ENERGY: 700000 2.0585 5.4545 1.6524 0.0000 -12574.3677 2009.3867 0.0000 0.0000 1237.5705 -9318.2450 209.0897 -10555.8155 -9315.8046 209.0897 895.9606 973.6175 28857.9563 895.9606 973.6175
ENERGY: 800000 4.9038 7.2276 2.0967 0.0000 -11799.2032 1700.9252 0.0000 0.0000 1409.8977 -8674.1523 238.2047 -10084.0499 -8672.2089 239.7137 -280.1745 -215.9781 29070.2034 3.8255 3.8584
TCL: Running 100000 steps at 270 kelvin.
TCL: Setting parameter langevinTemp to 270
TCL: Running for 100000 steps
ETITLE: TS BOND ANGLE DIHED IMPRP ELECT VDW BOUNDARY MISC KINETIC TOTAL TEMP POTENTIAL TOTAL3 TEMPAVG PRESSURE GPRESSURE VOLUME PRESSAVG GPRESSAVG
ENERGY: 800000 4.9038 7.2276 2.0967 0.0000 -11799.2032 1700.9252 0.0000 0.0000 1409.2086 -8674.8414 238.0883 -10084.0499 -8672.3216 238.0883 -297.6465 -216.0699 29070.2034 -297.6465 -216.0699
ENERGY: 900000 2.8598 3.4126 3.4566 0.0000 -11257.3636 1548.7911 0.0000 0.0000 1578.6619 -8120.1817 266.7177 -9698.8436 -8117.4337 270.4093 -151.0585 -72.9502 29873.4811 3.6675 3.6279
TCL: Running 1000000 steps at 300 kelvin.
TCL: Setting parameter langevinTemp to 300
TCL: Running for 1000000 steps
ETITLE: TS BOND ANGLE DIHED IMPRP ELECT VDW BOUNDARY MISC KINETIC TOTAL TEMP POTENTIAL TOTAL3 TEMPAVG PRESSURE GPRESSURE VOLUME PRESSAVG GPRESSAVG
ENERGY: 900000 2.8598 3.4126 3.4566 0.0000 -11257.3636 1548.7911 0.0000 0.0000 1577.9032 -8120.9404 266.5896 -9698.8436 -8117.9673 266.5896 -168.7655 -74.1061 29873.4811 -168.7655 -74.1061
ENERGY: 1100000 3.6112 9.5377 4.8325 0.0000 -10842.6433 1518.8853 0.0000 0.0000 1794.7479 -7511.0287 303.2259 -9305.7766 -7509.0969 299.9256 257.0588 397.0969 30875.0387 1.9010 2.0073
ENERGY: 1300000 2.4213 6.5152 4.5365 0.0000 -10761.9659 1463.2440 0.0000 0.0000 1771.1958 -7514.0532 299.2467 -9285.2490 -7512.5035 300.4245 213.0647 227.7652 30771.9105 3.4809 3.4739
ENERGY: 1500000 2.7241 6.8179 6.7720 0.0000 -10639.9137 1381.3412 0.0000 0.0000 1704.8011 -7537.4574 288.0292 -9242.2585 -7533.2789 300.0740 -405.2446 -308.0658 30326.8548 1.6253 1.6653
ENERGY: 1700000 2.4038 5.8720 1.9900 0.0000 -10947.0804 1625.6153 0.0000 0.0000 1782.7432 -7528.4562 301.1976 -9311.1994 -7527.1829 300.9474 1365.3972 1461.4372 30556.7926 3.3627 3.1251
ENERGY: 1900000 4.5058 5.1941 5.3202 0.0000 -10815.2796 1506.6811 0.0000 0.0000 1804.2695 -7489.3089 304.8345 -9293.5784 -7487.1580 301.0108 323.7755 484.7667 30178.7164 3.8274 3.7978
TCL: Exiting due to exit command.
