Info: SIMULATION PARAMETERS:
Info: TIMESTEP               2
Info: NUMBER OF STEPS        0
Info: STEPS PER CYCLE        10
Info: PERIODIC CELL BASIS 1  35.89 0 0
Info: PERIODIC CELL BASIS 2  0 36.611 0
Info: PERIODIC CELL BASIS 3  0 0 34.68
Info: PERIODIC CELL CENTER   0 0 0
Info: WRAPPING WATERS AROUND PERIODIC BOUNDARIES ON OUTPUT.
Info: WRAPPING ALL CLUSTERS AROUND PERIODIC BOUNDARIES ON OUTPUT.
Info: FIRST LDB TIMESTEP     50
Info: LAST LDB TIMESTEP     -1
Info: HOM BACKGROUND SCALING 1
Info: PME BACKGROUND SCALING 1
Info: MIN ATOMS PER PATCH    40
Info: EMPTY PATCH LOAD       40 ATOMS
Info: INITIAL TEMPERATURE    300
Info: CENTER OF MASS MOVING INITIALLY? NO
Info: DIELECTRIC             1
Info: EXCLUDE                SCALED ONE-FOUR
Info: 1-4 ELECTROSTATICS SCALED BY 0.833333
Info: MODIFIED 1-4 VDW PARAMETERS WILL BE USED
Info: DCD FILENAME           mobley_8739734_equil.dcd
Info: DCD FREQUENCY          100000
Info: DCD FIRST STEP         100000
Info: DCD FILE WILL CONTAIN UNIT CELL DATA
Info: XST FILENAME           mobley_8739734_equil.xst
Info: XST FREQUENCY          100000
Info: NO VELOCITY DCD OUTPUT
Info: NO FORCE DCD OUTPUT
Info: OUTPUT FILENAME        mobley_8739734_equil
Info: BINARY OUTPUT FILES WILL BE USED
Info: RESTART FILENAME       mobley_8739734_equil.restart
Info: RESTART FREQUENCY      100000
Info: BINARY RESTART FILES WILL BE USED
Info: CUTOFF                 9
Info: PAIRLIST DISTANCE      11
Info: PAIRLIST SHRINK RATE   0.01
Info: PAIRLIST GROW RATE     0.01
Info: PAIRLIST TRIGGER       0.3
Info: PAIRLISTS PER CYCLE    2
Info: PAIRLISTS ENABLED
Info: MARGIN                 8
Info: HYDROGEN GROUP CUTOFF  2.5
Info: PATCH DIMENSION        21.5
Info: ENERGY OUTPUT STEPS    100000
Info: ENERGY EVALUATION STEPS    100000
Info: OUTPUT ENERGY PRECISION 4
Info: CROSSTERM ENERGY INCLUDED IN DIHEDRAL
Info: TIMING OUTPUT STEPS    1000000
Info: PRESSURE OUTPUT STEPS  100000
Info: LANGEVIN DYNAMICS ACTIVE
Info: LANGEVIN TEMPERATURE   30
Info: LANGEVIN USING BBK INTEGRATOR
Info: LANGEVIN DAMPING COEFFICIENT IS 1 INVERSE PS
Info: LANGEVIN DYNAMICS APPLIED TO HYDROGENS
Info: LANGEVIN PISTON PRESSURE CONTROL ACTIVE
Info:        TARGET PRESSURE IS 1.01325 BAR
Info:     OSCILLATION PERIOD IS 50 FS
Info:             DECAY TIME IS 25 FS
Info:     PISTON TEMPERATURE IS 300 K
Info:       PRESSURE CONTROL IS GROUP-BASED
Info:    INITIAL STRAIN RATE IS 0 0 0
Info:       CELL FLUCTUATION IS ISOTROPIC
Info: PARTICLE MESH EWALD (PME) ACTIVE
Info: PME TOLERANCE               1e-06
Info: PME EWALD COEFFICIENT       0.348832
Info: PME INTERPOLATION ORDER     4
Info: PME GRID DIMENSIONS         36 40 36
Info: PME MAXIMUM GRID SPACING    1
Info: FULL ELECTROSTATIC EVALUATION FREQUENCY      2
Info: USING VERLET I (r-RESPA) MTS SCHEME.
Info: C1 SPLITTING OF LONG RANGE ELECTROSTATICS
Info: PLACING ATOMS IN PATCHES BY HYDROGEN GROUPS
Info: RIGID BONDS TO HYDROGEN : ALL
Info:         ERROR TOLERANCE : 1e-08
Info:          MAX ITERATIONS : 100
Info: RIGID WATER USING SETTLE ALGORITHM
Info: RANDOM NUMBER SEED     1743230735
Info: USE HYDROGEN BONDS?    NO
Info: Using AMBER format force field!
Info: AMBER PARM FILE        mobley_8739734.prmtop
Info: COORDINATE PDB         mobley_8739734.pdb
Info: Exclusions will be read from PARM file!
Info: SCNB (VDW SCALING)     2
Info: USING ARITHMETIC MEAN TO COMBINE L-J SIGMA PARAMETERS
Info: BINARY COORDINATES     mobley_8739734_min.coor
Info: SUMMARY OF PARAMETERS:
Info: 6 BONDS
Info: 7 ANGLES
Info:   7 HARMONIC
Info:   0 COSINE-BASED
Info: 8 DIHEDRAL
Info: 0 IMPROPER
Info: 0 CROSSTERM
Info: 0 VDW
Info: 21 VDW_PAIRS
Info: 0 NBTHOLE_PAIRS
Info: STRUCTURE SUMMARY:
Info: 2923 ATOMS
Info: 2922 BONDS
Info: 27 ANGLES
Info: 39 DIHEDRALS
Info: 0 IMPROPERS
Info: 0 CROSSTERMS
Info: 2979 EXCLUSIONS
Info: 2917 RIGID BONDS
Info: 5852 DEGREES OF FREEDOM
Info: 975 HYDROGEN GROUPS
Info: 4 ATOMS IN LARGEST HYDROGEN GROUP
Info: 975 MIGRATION GROUPS
Info: 4 ATOMS IN LARGEST MIGRATION GROUP
Info: TOTAL MASS = 17543.6 amu
Info: TOTAL CHARGE = -0.000200074 e
Info: MASS DENSITY = 0.639315 g/cm^3
Info: ATOM DENSITY = 0.0641453 atoms/A^3
Info: ADDED 0 IMPLICIT EXCLUSIONS
Info: NONBONDED TABLE R-SQUARED SPACING: 0.0625
Info: NONBONDED TABLE SIZE: 705 POINTS
Info: REMOVING COM VELOCITY 0.105414 -0.118899 -0.0813226
TCL: Running for 100000 steps
ETITLE: TS BOND ANGLE DIHED IMPRP ELECT VDW BOUNDARY MISC KINETIC TOTAL TEMP POTENTIAL TOTAL3 TEMPAVG PRESSURE GPRESSURE VOLUME PRESSAVG GPRESSAVG
ENERGY: 0 0.1529 0.5730 2.6360 0.0000 -13546.1304 2410.4089 0.0000 0.0000 1803.3820 -9328.9775 310.1514 -11132.3595 -9328.5998 310.1514 613.3907 647.9294 45568.4376 613.3907 647.9294
ENERGY: 100000 0.2889 1.4557 2.7991 0.0000 -14017.2399 2370.4106 0.0000 0.0000 171.2088 -11471.0769 29.4450 -11642.2856 -11470.7219 30.8800 -521.1530 -477.6717 28609.4357 3.2719 3.2413
TCL: Running 100000 steps at 60 kelvin.
TCL: Setting parameter langevinTemp to 60
TCL: Running for 100000 steps
ETITLE: TS BOND ANGLE DIHED IMPRP ELECT VDW BOUNDARY MISC KINETIC TOTAL TEMP POTENTIAL TOTAL3 TEMPAVG PRESSURE GPRESSURE VOLUME PRESSAVG GPRESSAVG
ENERGY: 100000 0.2889 1.4557 2.7991 0.0000 -14017.2399 2370.4106 0.0000 0.0000 171.1250 -11471.1607 29.4306 -11642.2856 -11470.8310 29.4306 -526.5931 -477.7540 28609.4357 -526.5931 -477.7540
ENERGY: 200000 0.5143 2.3715 2.8372 0.0000 -13966.0158 2399.8645 0.0000 0.0000 355.2382 -11205.1901 61.0950 -11560.4283 -11203.9405 59.9590 -70.3151 -14.4214 28554.3618 4.4960 4.4885
TCL: Running 100000 steps at 90 kelvin.
TCL: Setting parameter langevinTemp to 90
TCL: Running for 100000 steps
ETITLE: TS BOND ANGLE DIHED IMPRP ELECT VDW BOUNDARY MISC KINETIC TOTAL TEMP POTENTIAL TOTAL3 TEMPAVG PRESSURE GPRESSURE VOLUME PRESSAVG GPRESSAVG
ENERGY: 200000 0.5143 2.3715 2.8372 0.0000 -13966.0158 2399.8645 0.0000 0.0000 355.0591 -11205.3692 61.0642 -11560.4283 -11204.5732 61.0642 -64.6689 -13.9559 28554.3618 -64.6689 -13.9559
ENERGY: 300000 0.1061 2.1298 2.8511 0.0000 -13912.9766 2454.8807 0.0000 0.0000 529.8001 -10923.2089 91.1167 -11453.0090 -10922.7529 89.9446 865.7775 897.7590 28305.0584 5.1586 5.0924
TCL: Running 100000 steps at 120 kelvin.
TCL: Setting parameter langevinTemp to 120
TCL: Running for 100000 steps
ETITLE: TS BOND ANGLE DIHED IMPRP ELECT VDW BOUNDARY MISC KINETIC TOTAL TEMP POTENTIAL TOTAL3 TEMPAVG PRESSURE GPRESSURE VOLUME PRESSAVG GPRESSAVG
ENERGY: 300000 0.1061 2.1298 2.8511 0.0000 -13912.9766 2454.8807 0.0000 0.0000 529.5459 -10923.4631 91.0730 -11453.0090 -10922.3404 91.0730 842.5436 896.3989 28305.0584 842.5436 896.3989
ENERGY: 400000 1.0118 3.3099 3.0237 0.0000 -13601.9522 2284.9247 0.0000 0.0000 701.6399 -10608.0422 120.6703 -11309.6821 -10605.1707 119.8574 -88.3834 -22.5312 28735.5216 2.8646 2.8350
TCL: Running 100000 steps at 150 kelvin.
TCL: Setting parameter langevinTemp to 150
TCL: Running for 100000 steps
ETITLE: TS BOND ANGLE DIHED IMPRP ELECT VDW BOUNDARY MISC KINETIC TOTAL TEMP POTENTIAL TOTAL3 TEMPAVG PRESSURE GPRESSURE VOLUME PRESSAVG GPRESSAVG
ENERGY: 400000 1.0118 3.3099 3.0237 0.0000 -13601.9522 2284.9247 0.0000 0.0000 701.3030 -10608.3791 120.6123 -11309.6821 -10606.7412 120.6123 -79.2032 -21.3718 28735.5216 -79.2032 -21.3718
ENERGY: 500000 0.5621 3.2929 2.6605 0.0000 -13448.4496 2272.5570 0.0000 0.0000 875.4512 -10293.9260 150.5629 -11169.3772 -10291.2146 150.0498 176.5381 234.3932 28740.2949 4.1942 4.2339
TCL: Running 100000 steps at 180 kelvin.
TCL: Setting parameter langevinTemp to 180
TCL: Running for 100000 steps
ETITLE: TS BOND ANGLE DIHED IMPRP ELECT VDW BOUNDARY MISC KINETIC TOTAL TEMP POTENTIAL TOTAL3 TEMPAVG PRESSURE GPRESSURE VOLUME PRESSAVG GPRESSAVG
ENERGY: 500000 0.5621 3.2929 2.6605 0.0000 -13448.4496 2272.5570 0.0000 0.0000 875.0197 -10294.3575 150.4887 -11169.3772 -10292.8890 150.4887 180.8174 234.3575 28740.2949 180.8174 234.3575
ENERGY: 600000 0.4865 4.0947 3.1511 0.0000 -12931.6376 2035.2850 0.0000 0.0000 1044.3114 -9844.3088 179.6040 -10888.6202 -9840.8257 180.3539 -517.1761 -489.4801 28824.5296 2.7114 2.7534
TCL: Running 100000 steps at 210 kelvin.
TCL: Setting parameter langevinTemp to 210
TCL: Running for 100000 steps
ETITLE: TS BOND ANGLE DIHED IMPRP ELECT VDW BOUNDARY MISC KINETIC TOTAL TEMP POTENTIAL TOTAL3 TEMPAVG PRESSURE GPRESSURE VOLUME PRESSAVG GPRESSAVG
ENERGY: 600000 0.4865 4.0947 3.1511 0.0000 -12931.6376 2035.2850 0.0000 0.0000 1043.7756 -9844.8446 179.5119 -10888.6202 -9842.9258 179.5119 -545.0199 -488.1827 28824.5296 -545.0199 -488.1827
ENERGY: 700000 1.2325 4.7480 2.9906 0.0000 -12215.3783 1795.0312 0.0000 0.0000 1235.0744 -9176.3017 212.4121 -10411.3761 -9173.7493 209.6721 -876.3512 -760.4597 28677.6183 5.4412 5.3721
TCL: Running 100000 steps at 240 kelvin.
TCL: Setting parameter langevinTemp to 240
TCL: Running for 100000 steps
ETITLE: TS BOND ANGLE DIHED IMPRP ELECT VDW BOUNDARY MISC KINETIC TOTAL TEMP POTENTIAL TOTAL3 TEMPAVG PRESSURE GPRESSURE VOLUME PRESSAVG GPRESSAVG
ENERGY: 700000 1.2325 4.7480 2.9906 0.0000 -12215.3783 1795.0312 0.0000 0.0000 1234.4936 -9176.8825 212.3122 -10411.3761 -9174.7926 212.3122 -853.5577 -760.9140 28677.6183 -853.5577 -760.9140
ENERGY: 800000 0.6298 5.9558 2.8075 0.0000 -11571.5219 1659.5873 0.0000 0.0000 1384.9113 -8517.6302 238.1815 -9902.5415 -8515.0860 240.0333 183.1485 257.3211 28465.4113 3.0660 2.9844
TCL: Running 100000 steps at 270 kelvin.
TCL: Setting parameter langevinTemp to 270
TCL: Running for 100000 steps
ETITLE: TS BOND ANGLE DIHED IMPRP ELECT VDW BOUNDARY MISC KINETIC TOTAL TEMP POTENTIAL TOTAL3 TEMPAVG PRESSURE GPRESSURE VOLUME PRESSAVG GPRESSAVG
ENERGY: 800000 0.6298 5.9558 2.8075 0.0000 -11571.5219 1659.5873 0.0000 0.0000 1384.2067 -8518.3348 238.0603 -9902.5415 -8516.1269 238.0603 181.4145 257.0984 28465.4113 181.4145 257.0984
ENERGY: 900000 0.6618 6.2907 4.0080 0.0000 -11142.1637 1588.0962 0.0000 0.0000 1562.9070 -7980.2001 268.7938 -9543.1070 -7976.0728 269.9339 227.8697 308.1573 29486.3046 3.4390 3.4037
TCL: Running 1000000 steps at 300 kelvin.
TCL: Setting parameter langevinTemp to 300
TCL: Running for 1000000 steps
ETITLE: TS BOND ANGLE DIHED IMPRP ELECT VDW BOUNDARY MISC KINETIC TOTAL TEMP POTENTIAL TOTAL3 TEMPAVG PRESSURE GPRESSURE VOLUME PRESSAVG GPRESSAVG
ENERGY: 900000 0.6618 6.2907 4.0080 0.0000 -11142.1637 1588.0962 0.0000 0.0000 1562.1409 -7980.9662 268.6620 -9543.1070 -7978.6697 268.6620 223.8511 310.5495 29486.3046 223.8511 310.5495
ENERGY: 1100000 4.3026 7.7459 3.3154 0.0000 -10461.7813 1327.0052 0.0000 0.0000 1763.9542 -7355.4579 303.3705 -9119.4121 -7349.5337 299.9926 -944.4998 -889.6027 30509.1671 3.2146 3.1755
ENERGY: 1300000 2.2380 8.5007 3.2461 0.0000 -10436.8058 1303.3213 0.0000 0.0000 1723.4836 -7396.0162 296.4102 -9119.4997 -7391.7554 300.4715 -773.5022 -704.6746 30215.8605 3.6197 3.5049
ENERGY: 1500000 0.7568 9.7221 3.2682 0.0000 -10607.1343 1417.0663 0.0000 0.0000 1744.0407 -7432.2802 299.9457 -9176.3209 -7430.8212 300.2905 -179.9066 -138.8293 30358.3926 2.0320 2.0623
ENERGY: 1700000 2.1498 10.0305 2.8619 0.0000 -10664.6910 1455.8208 0.0000 0.0000 1723.6021 -7470.2261 296.4306 -9193.8282 -7467.7281 300.2540 9.9626 73.9490 30165.1988 4.4450 4.4983
ENERGY: 1900000 1.1780 4.4732 2.8471 0.0000 -10570.4108 1408.2460 0.0000 0.0000 1766.6439 -7387.0227 303.8331 -9153.6666 -7381.4812 300.3229 -126.3465 -49.4516 30290.6771 4.0075 4.0879
TCL: Exiting due to exit command.
