Info: SIMULATION PARAMETERS:
Info: TIMESTEP               2
Info: NUMBER OF STEPS        0
Info: STEPS PER CYCLE        10
Info: PERIODIC CELL BASIS 1  36.005 0 0
Info: PERIODIC CELL BASIS 2  0 32.293 0
Info: PERIODIC CELL BASIS 3  0 0 37.451
Info: PERIODIC CELL CENTER   0 0 0
Info: WRAPPING WATERS AROUND PERIODIC BOUNDARIES ON OUTPUT.
Info: WRAPPING ALL CLUSTERS AROUND PERIODIC BOUNDARIES ON OUTPUT.
Info: FIRST LDB TIMESTEP     50
Info: LAST LDB TIMESTEP     -1
Info: HOM BACKGROUND SCALING 1
Info: PME BACKGROUND SCALING 1
Info: MIN ATOMS PER PATCH    40
Info: EMPTY PATCH LOAD       40 ATOMS
Info: INITIAL TEMPERATURE    300
Info: CENTER OF MASS MOVING INITIALLY? NO
Info: DIELECTRIC             1
Info: EXCLUDE                SCALED ONE-FOUR
Info: 1-4 ELECTROSTATICS SCALED BY 0.833333
Info: MODIFIED 1-4 VDW PARAMETERS WILL BE USED
Info: DCD FILENAME           mobley_3047364_equil.dcd
Info: DCD FREQUENCY          100000
Info: DCD FIRST STEP         100000
Info: DCD FILE WILL CONTAIN UNIT CELL DATA
Info: XST FILENAME           mobley_3047364_equil.xst
Info: XST FREQUENCY          100000
Info: NO VELOCITY DCD OUTPUT
Info: NO FORCE DCD OUTPUT
Info: OUTPUT FILENAME        mobley_3047364_equil
Info: BINARY OUTPUT FILES WILL BE USED
Info: RESTART FILENAME       mobley_3047364_equil.restart
Info: RESTART FREQUENCY      100000
Info: BINARY RESTART FILES WILL BE USED
Info: CUTOFF                 9
Info: PAIRLIST DISTANCE      11
Info: PAIRLIST SHRINK RATE   0.01
Info: PAIRLIST GROW RATE     0.01
Info: PAIRLIST TRIGGER       0.3
Info: PAIRLISTS PER CYCLE    2
Info: PAIRLISTS ENABLED
Info: MARGIN                 8
Info: HYDROGEN GROUP CUTOFF  2.5
Info: PATCH DIMENSION        21.5
Info: ENERGY OUTPUT STEPS    100000
Info: ENERGY EVALUATION STEPS    100000
Info: OUTPUT ENERGY PRECISION 4
Info: CROSSTERM ENERGY INCLUDED IN DIHEDRAL
Info: TIMING OUTPUT STEPS    1000000
Info: PRESSURE OUTPUT STEPS  100000
Info: LANGEVIN DYNAMICS ACTIVE
Info: LANGEVIN TEMPERATURE   30
Info: LANGEVIN USING BBK INTEGRATOR
Info: LANGEVIN DAMPING COEFFICIENT IS 1 INVERSE PS
Info: LANGEVIN DYNAMICS APPLIED TO HYDROGENS
Info: LANGEVIN PISTON PRESSURE CONTROL ACTIVE
Info:        TARGET PRESSURE IS 1.01325 BAR
Info:     OSCILLATION PERIOD IS 50 FS
Info:             DECAY TIME IS 25 FS
Info:     PISTON TEMPERATURE IS 300 K
Info:       PRESSURE CONTROL IS GROUP-BASED
Info:    INITIAL STRAIN RATE IS 0 0 0
Info:       CELL FLUCTUATION IS ISOTROPIC
Info: PARTICLE MESH EWALD (PME) ACTIVE
Info: PME TOLERANCE               1e-06
Info: PME EWALD COEFFICIENT       0.348832
Info: PME INTERPOLATION ORDER     4
Info: PME GRID DIMENSIONS         40 36 40
Info: PME MAXIMUM GRID SPACING    1
Info: FULL ELECTROSTATIC EVALUATION FREQUENCY      2
Info: USING VERLET I (r-RESPA) MTS SCHEME.
Info: C1 SPLITTING OF LONG RANGE ELECTROSTATICS
Info: PLACING ATOMS IN PATCHES BY HYDROGEN GROUPS
Info: RIGID BONDS TO HYDROGEN : ALL
Info:         ERROR TOLERANCE : 1e-08
Info:          MAX ITERATIONS : 100
Info: RIGID WATER USING SETTLE ALGORITHM
Info: RANDOM NUMBER SEED     1743260546
Info: USE HYDROGEN BONDS?    NO
Info: Using AMBER format force field!
Info: AMBER PARM FILE        mobley_3047364.prmtop
Info: COORDINATE PDB         mobley_3047364.pdb
Info: Exclusions will be read from PARM file!
Info: SCNB (VDW SCALING)     2
Info: USING ARITHMETIC MEAN TO COMBINE L-J SIGMA PARAMETERS
Info: BINARY COORDINATES     mobley_3047364_min.coor
Info: SUMMARY OF PARAMETERS:
Info: 11 BONDS
Info: 16 ANGLES
Info:   16 HARMONIC
Info:   0 COSINE-BASED
Info: 8 DIHEDRAL
Info: 0 IMPROPER
Info: 0 CROSSTERM
Info: 0 VDW
Info: 45 VDW_PAIRS
Info: 0 NBTHOLE_PAIRS
Info: STRUCTURE SUMMARY:
Info: 2924 ATOMS
Info: 2924 BONDS
Info: 55 ANGLES
Info: 69 DIHEDRALS
Info: 0 IMPROPERS
Info: 0 CROSSTERMS
Info: 3040 EXCLUSIONS
Info: 2909 RIGID BONDS
Info: 5863 DEGREES OF FREEDOM
Info: 979 HYDROGEN GROUPS
Info: 4 ATOMS IN LARGEST HYDROGEN GROUP
Info: 979 MIGRATION GROUPS
Info: 4 ATOMS IN LARGEST MIGRATION GROUP
Info: TOTAL MASS = 17594.8 amu
Info: TOTAL CHARGE = -1.11759e-07 e
Info: MASS DENSITY = 0.670978 g/cm^3
Info: ATOM DENSITY = 0.0671495 atoms/A^3
Info: ADDED 0 IMPLICIT EXCLUSIONS
Info: NONBONDED TABLE R-SQUARED SPACING: 0.0625
Info: NONBONDED TABLE SIZE: 705 POINTS
Info: REMOVING COM VELOCITY 0.0304863 0.118512 0.0208039
TCL: Running for 100000 steps
ETITLE: TS BOND ANGLE DIHED IMPRP ELECT VDW BOUNDARY MISC KINETIC TOTAL TEMP POTENTIAL TOTAL3 TEMPAVG PRESSURE GPRESSURE VOLUME PRESSAVG GPRESSAVG
ENERGY: 0 2.3008 4.7507 2.6519 0.0000 -13943.5462 2395.5537 0.0000 0.0000 1749.5671 -9788.7220 300.3316 -11538.2891 -9788.4005 300.3316 580.6704 615.3001 43544.6322 580.6704 615.3001
ENERGY: 100000 2.4240 6.2983 3.3126 0.0000 -14555.6408 2455.6226 0.0000 0.0000 176.9634 -11911.0200 30.3776 -12087.9835 -11910.7368 31.0097 233.3780 307.0462 27768.3399 4.2379 4.2087
TCL: Running 100000 steps at 60 kelvin.
TCL: Setting parameter langevinTemp to 60
TCL: Running for 100000 steps
ETITLE: TS BOND ANGLE DIHED IMPRP ELECT VDW BOUNDARY MISC KINETIC TOTAL TEMP POTENTIAL TOTAL3 TEMPAVG PRESSURE GPRESSURE VOLUME PRESSAVG GPRESSAVG
ENERGY: 100000 2.4240 6.2983 3.3126 0.0000 -14555.6408 2455.6226 0.0000 0.0000 176.8792 -11911.1042 30.3632 -12087.9835 -11910.6487 30.3632 251.1766 306.8923 27768.3399 251.1766 306.8923
ENERGY: 200000 3.9592 10.8061 6.7150 0.0000 -14395.4844 2399.3927 0.0000 0.0000 348.4338 -11626.1776 59.8123 -11974.6114 -11624.8954 60.0771 5.6011 39.9891 28242.1642 3.7693 3.8514
TCL: Running 100000 steps at 90 kelvin.
TCL: Setting parameter langevinTemp to 90
TCL: Running for 100000 steps
ETITLE: TS BOND ANGLE DIHED IMPRP ELECT VDW BOUNDARY MISC KINETIC TOTAL TEMP POTENTIAL TOTAL3 TEMPAVG PRESSURE GPRESSURE VOLUME PRESSAVG GPRESSAVG
ENERGY: 200000 3.9592 10.8061 6.7150 0.0000 -14395.4844 2399.3927 0.0000 0.0000 348.2563 -11626.3551 59.7819 -11974.6114 -11625.5330 59.7819 -11.3367 40.3383 28242.1642 -11.3367 40.3383
ENERGY: 300000 4.7055 7.1268 5.3257 0.0000 -14211.3720 2327.4867 0.0000 0.0000 526.0959 -11340.6315 90.3099 -11866.7274 -11338.8305 89.8833 -159.3042 -97.6589 28314.5846 3.6886 3.6449
TCL: Running 100000 steps at 120 kelvin.
TCL: Setting parameter langevinTemp to 120
TCL: Running for 100000 steps
ETITLE: TS BOND ANGLE DIHED IMPRP ELECT VDW BOUNDARY MISC KINETIC TOTAL TEMP POTENTIAL TOTAL3 TEMPAVG PRESSURE GPRESSURE VOLUME PRESSAVG GPRESSAVG
ENERGY: 300000 4.7055 7.1268 5.3257 0.0000 -14211.3720 2327.4867 0.0000 0.0000 525.8565 -11340.8709 90.2688 -11866.7274 -11339.5130 90.2688 -154.2953 -97.4071 28314.5846 -154.2953 -97.4071
ENERGY: 400000 5.0610 9.0204 7.2038 0.0000 -14034.3756 2295.1805 0.0000 0.0000 732.2219 -10985.6880 125.6936 -11717.9099 -10983.9516 120.0870 -123.7032 -92.0956 28673.9204 3.0306 3.1227
TCL: Running 100000 steps at 150 kelvin.
TCL: Setting parameter langevinTemp to 150
TCL: Running for 100000 steps
ETITLE: TS BOND ANGLE DIHED IMPRP ELECT VDW BOUNDARY MISC KINETIC TOTAL TEMP POTENTIAL TOTAL3 TEMPAVG PRESSURE GPRESSURE VOLUME PRESSAVG GPRESSAVG
ENERGY: 400000 5.0610 9.0204 7.2038 0.0000 -14034.3756 2295.1805 0.0000 0.0000 731.8743 -10986.0356 125.6339 -11717.9099 -10984.3853 125.6339 -141.0062 -92.8717 28673.9204 -141.0062 -92.8717
ENERGY: 500000 5.8716 14.1190 5.1182 0.0000 -13887.0770 2257.7680 0.0000 0.0000 893.7538 -10710.4464 153.4223 -11604.2002 -10709.2003 149.9228 210.6282 225.5744 28562.4989 3.2242 3.1449
TCL: Running 100000 steps at 180 kelvin.
TCL: Setting parameter langevinTemp to 180
TCL: Running for 100000 steps
ETITLE: TS BOND ANGLE DIHED IMPRP ELECT VDW BOUNDARY MISC KINETIC TOTAL TEMP POTENTIAL TOTAL3 TEMPAVG PRESSURE GPRESSURE VOLUME PRESSAVG GPRESSAVG
ENERGY: 500000 5.8716 14.1190 5.1182 0.0000 -13887.0770 2257.7680 0.0000 0.0000 893.3343 -10710.8659 153.3503 -11604.2002 -10708.8716 153.3503 184.7278 225.5075 28562.4989 184.7278 225.5075
ENERGY: 600000 6.8015 15.0812 6.8297 0.0000 -13441.9784 2090.1688 0.0000 0.0000 1096.4974 -10226.5999 188.2253 -11323.0972 -10224.2323 180.0048 -5.0471 26.9170 28488.2755 2.2770 2.2808
TCL: Running 100000 steps at 210 kelvin.
TCL: Setting parameter langevinTemp to 210
TCL: Running for 100000 steps
ETITLE: TS BOND ANGLE DIHED IMPRP ELECT VDW BOUNDARY MISC KINETIC TOTAL TEMP POTENTIAL TOTAL3 TEMPAVG PRESSURE GPRESSURE VOLUME PRESSAVG GPRESSAVG
ENERGY: 600000 6.8015 15.0812 6.8297 0.0000 -13441.9784 2090.1688 0.0000 0.0000 1095.9754 -10227.1219 188.1357 -11323.0972 -10224.9091 188.1357 -26.2491 26.7560 28488.2755 -26.2491 26.7560
ENERGY: 700000 3.3526 12.5650 4.4702 0.0000 -12669.7088 1825.7003 0.0000 0.0000 1206.3733 -9617.2473 207.0867 -10823.6206 -9614.5526 210.3565 -231.5310 -171.6902 28354.5984 2.5928 2.5635
TCL: Running 100000 steps at 240 kelvin.
TCL: Setting parameter langevinTemp to 240
TCL: Running for 100000 steps
ETITLE: TS BOND ANGLE DIHED IMPRP ELECT VDW BOUNDARY MISC KINETIC TOTAL TEMP POTENTIAL TOTAL3 TEMPAVG PRESSURE GPRESSURE VOLUME PRESSAVG GPRESSAVG
ENERGY: 700000 3.3526 12.5650 4.4702 0.0000 -12669.7088 1825.7003 0.0000 0.0000 1205.7695 -9617.8511 206.9830 -10823.6206 -9615.3787 206.9830 -250.8344 -171.5162 28354.5984 -250.8344 -171.5162
ENERGY: 800000 4.0818 20.6849 2.9645 0.0000 -11974.4769 1608.2290 0.0000 0.0000 1407.8244 -8930.6924 241.6679 -10338.5168 -8925.4992 239.8239 -676.2538 -676.0166 28879.5044 2.8577 2.9878
TCL: Running 100000 steps at 270 kelvin.
TCL: Setting parameter langevinTemp to 270
TCL: Running for 100000 steps
ETITLE: TS BOND ANGLE DIHED IMPRP ELECT VDW BOUNDARY MISC KINETIC TOTAL TEMP POTENTIAL TOTAL3 TEMPAVG PRESSURE GPRESSURE VOLUME PRESSAVG GPRESSAVG
ENERGY: 800000 4.0818 20.6849 2.9645 0.0000 -11974.4769 1608.2290 0.0000 0.0000 1407.1408 -8931.3760 241.5506 -10338.5168 -8928.1760 241.5506 -754.5888 -674.9514 28879.5044 -754.5888 -674.9514
ENERGY: 900000 2.2776 15.5048 8.4120 0.0000 -11429.4276 1449.6109 0.0000 0.0000 1582.9553 -8370.6671 271.7310 -9953.6223 -8367.8261 270.2701 -949.0453 -784.6398 29442.0453 1.6756 1.6081
TCL: Running 1000000 steps at 300 kelvin.
TCL: Setting parameter langevinTemp to 300
TCL: Running for 1000000 steps
ETITLE: TS BOND ANGLE DIHED IMPRP ELECT VDW BOUNDARY MISC KINETIC TOTAL TEMP POTENTIAL TOTAL3 TEMPAVG PRESSURE GPRESSURE VOLUME PRESSAVG GPRESSAVG
ENERGY: 900000 2.2776 15.5048 8.4120 0.0000 -11429.4276 1449.6109 0.0000 0.0000 1582.1484 -8371.4739 271.5925 -9953.6223 -8369.4505 271.5925 -857.6857 -785.8663 29442.0453 -857.6857 -785.8663
ENERGY: 1100000 7.1788 9.2150 3.6144 0.0000 -10878.9885 1315.8164 0.0000 0.0000 1800.6529 -7742.5110 309.1011 -9543.1639 -7737.7189 300.7884 -918.0003 -786.9879 30148.3647 3.5690 3.5612
ENERGY: 1300000 9.1047 12.4228 10.5265 0.0000 -11012.9842 1384.8572 0.0000 0.0000 1766.7060 -7829.3669 303.2737 -9596.0730 -7825.9314 299.6776 -125.1501 -81.4854 30111.6109 2.9661 2.9131
ENERGY: 1500000 5.1146 9.6890 8.1733 0.0000 -10899.3221 1311.8431 0.0000 0.0000 1813.5453 -7750.9569 311.3142 -9564.5021 -7749.0942 300.1229 -793.2420 -751.9496 30413.8378 4.1047 4.0246
ENERGY: 1700000 4.5352 12.9878 6.5444 0.0000 -11042.0357 1416.7576 0.0000 0.0000 1790.3041 -7810.9065 307.3246 -9601.2107 -7807.0962 300.7782 -5.3494 42.5383 29640.6254 4.8463 4.5049
ENERGY: 1900000 5.5092 14.5904 2.9523 0.0000 -10936.3493 1392.3240 0.0000 0.0000 1789.7813 -7731.1920 307.2348 -9520.9733 -7728.0553 300.1622 -90.7838 2.7646 29977.6972 2.8665 2.8087
TCL: Exiting due to exit command.
