Info: SIMULATION PARAMETERS:
Info: TIMESTEP               2
Info: NUMBER OF STEPS        0
Info: STEPS PER CYCLE        10
Info: PERIODIC CELL BASIS 1  37.38 0 0
Info: PERIODIC CELL BASIS 2  0 35.847 0
Info: PERIODIC CELL BASIS 3  0 0 33.088
Info: PERIODIC CELL CENTER   0 0 0
Info: WRAPPING WATERS AROUND PERIODIC BOUNDARIES ON OUTPUT.
Info: WRAPPING ALL CLUSTERS AROUND PERIODIC BOUNDARIES ON OUTPUT.
Info: FIRST LDB TIMESTEP     50
Info: LAST LDB TIMESTEP     -1
Info: HOM BACKGROUND SCALING 1
Info: PME BACKGROUND SCALING 1
Info: MIN ATOMS PER PATCH    40
Info: EMPTY PATCH LOAD       40 ATOMS
Info: INITIAL TEMPERATURE    300
Info: CENTER OF MASS MOVING INITIALLY? NO
Info: DIELECTRIC             1
Info: EXCLUDE                SCALED ONE-FOUR
Info: 1-4 ELECTROSTATICS SCALED BY 0.833333
Info: MODIFIED 1-4 VDW PARAMETERS WILL BE USED
Info: DCD FILENAME           mobley_7378987_equil.dcd
Info: DCD FREQUENCY          100000
Info: DCD FIRST STEP         100000
Info: DCD FILE WILL CONTAIN UNIT CELL DATA
Info: XST FILENAME           mobley_7378987_equil.xst
Info: XST FREQUENCY          100000
Info: NO VELOCITY DCD OUTPUT
Info: NO FORCE DCD OUTPUT
Info: OUTPUT FILENAME        mobley_7378987_equil
Info: BINARY OUTPUT FILES WILL BE USED
Info: RESTART FILENAME       mobley_7378987_equil.restart
Info: RESTART FREQUENCY      100000
Info: BINARY RESTART FILES WILL BE USED
Info: CUTOFF                 9
Info: PAIRLIST DISTANCE      11
Info: PAIRLIST SHRINK RATE   0.01
Info: PAIRLIST GROW RATE     0.01
Info: PAIRLIST TRIGGER       0.3
Info: PAIRLISTS PER CYCLE    2
Info: PAIRLISTS ENABLED
Info: MARGIN                 8
Info: HYDROGEN GROUP CUTOFF  2.5
Info: PATCH DIMENSION        21.5
Info: ENERGY OUTPUT STEPS    100000
Info: ENERGY EVALUATION STEPS    100000
Info: OUTPUT ENERGY PRECISION 4
Info: CROSSTERM ENERGY INCLUDED IN DIHEDRAL
Info: TIMING OUTPUT STEPS    1000000
Info: PRESSURE OUTPUT STEPS  100000
Info: LANGEVIN DYNAMICS ACTIVE
Info: LANGEVIN TEMPERATURE   30
Info: LANGEVIN USING BBK INTEGRATOR
Info: LANGEVIN DAMPING COEFFICIENT IS 1 INVERSE PS
Info: LANGEVIN DYNAMICS APPLIED TO HYDROGENS
Info: LANGEVIN PISTON PRESSURE CONTROL ACTIVE
Info:        TARGET PRESSURE IS 1.01325 BAR
Info:     OSCILLATION PERIOD IS 50 FS
Info:             DECAY TIME IS 25 FS
Info:     PISTON TEMPERATURE IS 300 K
Info:       PRESSURE CONTROL IS GROUP-BASED
Info:    INITIAL STRAIN RATE IS 0 0 0
Info:       CELL FLUCTUATION IS ISOTROPIC
Info: PARTICLE MESH EWALD (PME) ACTIVE
Info: PME TOLERANCE               1e-06
Info: PME EWALD COEFFICIENT       0.348832
Info: PME INTERPOLATION ORDER     4
Info: PME GRID DIMENSIONS         40 36 36
Info: PME MAXIMUM GRID SPACING    1
Info: FULL ELECTROSTATIC EVALUATION FREQUENCY      2
Info: USING VERLET I (r-RESPA) MTS SCHEME.
Info: C1 SPLITTING OF LONG RANGE ELECTROSTATICS
Info: PLACING ATOMS IN PATCHES BY HYDROGEN GROUPS
Info: RIGID BONDS TO HYDROGEN : ALL
Info:         ERROR TOLERANCE : 1e-08
Info:          MAX ITERATIONS : 100
Info: RIGID WATER USING SETTLE ALGORITHM
Info: RANDOM NUMBER SEED     1743221755
Info: USE HYDROGEN BONDS?    NO
Info: Using AMBER format force field!
Info: AMBER PARM FILE        mobley_7378987.prmtop
Info: COORDINATE PDB         mobley_7378987.pdb
Info: Exclusions will be read from PARM file!
Info: SCNB (VDW SCALING)     2
Info: USING ARITHMETIC MEAN TO COMBINE L-J SIGMA PARAMETERS
Info: BINARY COORDINATES     mobley_7378987_min.coor
Info: SUMMARY OF PARAMETERS:
Info: 14 BONDS
Info: 23 ANGLES
Info:   23 HARMONIC
Info:   0 COSINE-BASED
Info: 9 DIHEDRAL
Info: 0 IMPROPER
Info: 0 CROSSTERM
Info: 0 VDW
Info: 36 VDW_PAIRS
Info: 0 NBTHOLE_PAIRS
Info: STRUCTURE SUMMARY:
Info: 2937 ATOMS
Info: 2938 BONDS
Info: 43 ANGLES
Info: 62 DIHEDRALS
Info: 0 IMPROPERS
Info: 0 CROSSTERMS
Info: 3027 EXCLUSIONS
Info: 2923 RIGID BONDS
Info: 5888 DEGREES OF FREEDOM
Info: 985 HYDROGEN GROUPS
Info: 4 ATOMS IN LARGEST HYDROGEN GROUP
Info: 985 MIGRATION GROUPS
Info: 4 ATOMS IN LARGEST MIGRATION GROUP
Info: TOTAL MASS = 17687.7 amu
Info: TOTAL CHARGE = -0.000199961 e
Info: MASS DENSITY = 0.662474 g/cm^3
Info: ATOM DENSITY = 0.0662432 atoms/A^3
Info: ADDED 0 IMPLICIT EXCLUSIONS
Info: NONBONDED TABLE R-SQUARED SPACING: 0.0625
Info: NONBONDED TABLE SIZE: 705 POINTS
Info: REMOVING COM VELOCITY -0.0717277 0.0108141 -0.117936
TCL: Running for 100000 steps
ETITLE: TS BOND ANGLE DIHED IMPRP ELECT VDW BOUNDARY MISC KINETIC TOTAL TEMP POTENTIAL TOTAL3 TEMPAVG PRESSURE GPRESSURE VOLUME PRESSAVG GPRESSAVG
ENERGY: 0 0.7504 5.3554 0.4175 0.0000 -13691.9936 2388.6819 0.0000 0.0000 1765.5719 -9531.2164 301.7922 -11296.7883 -9530.8801 301.7922 450.6928 491.5194 44336.6249 450.6928 491.5194
ENERGY: 100000 1.2106 5.7252 0.4790 0.0000 -14318.9819 2503.0888 0.0000 0.0000 179.0357 -11629.4427 30.6029 -11808.4783 -11629.0332 30.8661 379.1590 446.3988 28729.6807 4.2196 4.1217
TCL: Running 100000 steps at 60 kelvin.
TCL: Setting parameter langevinTemp to 60
TCL: Running for 100000 steps
ETITLE: TS BOND ANGLE DIHED IMPRP ELECT VDW BOUNDARY MISC KINETIC TOTAL TEMP POTENTIAL TOTAL3 TEMPAVG PRESSURE GPRESSURE VOLUME PRESSAVG GPRESSAVG
ENERGY: 100000 1.2106 5.7252 0.4790 0.0000 -14318.9819 2503.0888 0.0000 0.0000 178.9477 -11629.5306 30.5878 -11808.4783 -11629.1269 30.5878 392.1793 446.5952 28729.6807 392.1793 446.5952
ENERGY: 200000 1.7649 6.1997 0.8641 0.0000 -14189.2146 2413.2717 0.0000 0.0000 347.1166 -11419.9976 59.3332 -11767.1142 -11418.9833 60.0753 -253.2872 -189.7090 29046.7063 4.9064 4.9685
TCL: Running 100000 steps at 90 kelvin.
TCL: Setting parameter langevinTemp to 90
TCL: Running for 100000 steps
ETITLE: TS BOND ANGLE DIHED IMPRP ELECT VDW BOUNDARY MISC KINETIC TOTAL TEMP POTENTIAL TOTAL3 TEMPAVG PRESSURE GPRESSURE VOLUME PRESSAVG GPRESSAVG
ENERGY: 200000 1.7649 6.1997 0.8641 0.0000 -14189.2146 2413.2717 0.0000 0.0000 346.9389 -11420.1752 59.3029 -11767.1142 -11419.2925 59.3029 -248.7760 -189.6935 29046.7063 -248.7760 -189.6935
ENERGY: 300000 1.9224 7.0675 0.8911 0.0000 -14110.0351 2462.6498 0.0000 0.0000 526.9337 -11110.5707 90.0697 -11637.5044 -11109.8256 89.8539 926.9244 934.5831 28786.2528 3.4776 3.4353
TCL: Running 100000 steps at 120 kelvin.
TCL: Setting parameter langevinTemp to 120
TCL: Running for 100000 steps
ETITLE: TS BOND ANGLE DIHED IMPRP ELECT VDW BOUNDARY MISC KINETIC TOTAL TEMP POTENTIAL TOTAL3 TEMPAVG PRESSURE GPRESSURE VOLUME PRESSAVG GPRESSAVG
ENERGY: 300000 1.9224 7.0675 0.8911 0.0000 -14110.0351 2462.6498 0.0000 0.0000 526.6745 -11110.8299 90.0254 -11637.5044 -11109.8601 90.0254 873.9623 933.7038 28786.2528 873.9623 933.7038
ENERGY: 400000 4.0720 8.0282 1.2538 0.0000 -13788.5077 2274.2672 0.0000 0.0000 709.5644 -10791.3221 121.2870 -11500.8864 -10789.2855 119.7023 -237.3674 -192.7240 28774.9289 4.2563 4.2044
TCL: Running 100000 steps at 150 kelvin.
TCL: Setting parameter langevinTemp to 150
TCL: Running for 100000 steps
ETITLE: TS BOND ANGLE DIHED IMPRP ELECT VDW BOUNDARY MISC KINETIC TOTAL TEMP POTENTIAL TOTAL3 TEMPAVG PRESSURE GPRESSURE VOLUME PRESSAVG GPRESSAVG
ENERGY: 400000 4.0720 8.0282 1.2538 0.0000 -13788.5077 2274.2672 0.0000 0.0000 709.1988 -10791.6877 121.2245 -11500.8864 -10790.0674 121.2245 -256.4725 -192.6184 28774.9289 -256.4725 -192.6184
ENERGY: 500000 4.3922 10.9548 1.9768 0.0000 -13660.6524 2252.0050 0.0000 0.0000 875.0667 -10516.2569 149.5766 -11391.3236 -10514.7340 150.0092 -8.6643 36.6895 28796.5476 3.8329 3.8942
TCL: Running 100000 steps at 180 kelvin.
TCL: Setting parameter langevinTemp to 180
TCL: Running for 100000 steps
ETITLE: TS BOND ANGLE DIHED IMPRP ELECT VDW BOUNDARY MISC KINETIC TOTAL TEMP POTENTIAL TOTAL3 TEMPAVG PRESSURE GPRESSURE VOLUME PRESSAVG GPRESSAVG
ENERGY: 500000 4.3922 10.9548 1.9768 0.0000 -13660.6524 2252.0050 0.0000 0.0000 874.6176 -10516.7061 149.4999 -11391.3236 -10514.6519 149.4999 -21.9986 35.2904 28796.5476 -21.9986 35.2904
ENERGY: 600000 2.0327 8.2862 3.0216 0.0000 -13168.7468 2119.1540 0.0000 0.0000 1019.1259 -10017.1263 174.2009 -11036.2522 -10012.9573 180.1958 305.4603 386.6225 28663.5714 3.4650 3.3719
TCL: Running 100000 steps at 210 kelvin.
TCL: Setting parameter langevinTemp to 210
TCL: Running for 100000 steps
ETITLE: TS BOND ANGLE DIHED IMPRP ELECT VDW BOUNDARY MISC KINETIC TOTAL TEMP POTENTIAL TOTAL3 TEMPAVG PRESSURE GPRESSURE VOLUME PRESSAVG GPRESSAVG
ENERGY: 600000 2.0327 8.2862 3.0216 0.0000 -13168.7468 2119.1540 0.0000 0.0000 1018.5993 -10017.6529 174.1109 -11036.2522 -10015.3751 174.1109 322.5700 386.8904 28663.5714 322.5700 386.8904
ENERGY: 700000 1.8577 9.6684 3.0227 0.0000 -12609.9588 1965.0045 0.0000 0.0000 1223.2106 -9407.1949 209.0855 -10630.4055 -9403.7427 209.9407 752.0526 888.2406 28159.6904 1.9124 1.9813
TCL: Running 100000 steps at 240 kelvin.
TCL: Setting parameter langevinTemp to 240
TCL: Running for 100000 steps
ETITLE: TS BOND ANGLE DIHED IMPRP ELECT VDW BOUNDARY MISC KINETIC TOTAL TEMP POTENTIAL TOTAL3 TEMPAVG PRESSURE GPRESSURE VOLUME PRESSAVG GPRESSAVG
ENERGY: 700000 1.8577 9.6684 3.0227 0.0000 -12609.9588 1965.0045 0.0000 0.0000 1222.6069 -9407.7986 208.9823 -10630.4055 -9405.6301 208.9823 823.8488 889.2042 28159.6904 823.8488 889.2042
ENERGY: 800000 3.0242 11.1851 3.8859 0.0000 -11852.5189 1734.2406 0.0000 0.0000 1362.7557 -8737.4274 232.9381 -10100.1831 -8734.0472 239.5906 145.6118 248.7506 29137.9036 3.6354 3.8672
TCL: Running 100000 steps at 270 kelvin.
TCL: Setting parameter langevinTemp to 270
TCL: Running for 100000 steps
ETITLE: TS BOND ANGLE DIHED IMPRP ELECT VDW BOUNDARY MISC KINETIC TOTAL TEMP POTENTIAL TOTAL3 TEMPAVG PRESSURE GPRESSURE VOLUME PRESSAVG GPRESSAVG
ENERGY: 800000 3.0242 11.1851 3.8859 0.0000 -11852.5189 1734.2406 0.0000 0.0000 1362.0494 -8738.1338 232.8174 -10100.1831 -8736.0910 232.8174 150.2489 248.3011 29137.9036 150.2489 248.3011
ENERGY: 900000 2.3636 8.0092 3.9951 0.0000 -11291.3860 1601.9279 0.0000 0.0000 1567.1691 -8107.9211 267.8789 -9675.0902 -8103.6530 270.0601 613.5370 773.5557 29372.0959 4.2027 4.2181
TCL: Running 1000000 steps at 300 kelvin.
TCL: Setting parameter langevinTemp to 300
TCL: Running for 1000000 steps
ETITLE: TS BOND ANGLE DIHED IMPRP ELECT VDW BOUNDARY MISC KINETIC TOTAL TEMP POTENTIAL TOTAL3 TEMPAVG PRESSURE GPRESSURE VOLUME PRESSAVG GPRESSAVG
ENERGY: 900000 2.3636 8.0092 3.9951 0.0000 -11291.3860 1601.9279 0.0000 0.0000 1566.3601 -8108.7301 267.7406 -9675.0902 -8106.3729 267.7406 668.1452 775.3895 29372.0959 668.1452 775.3895
ENERGY: 1100000 4.6513 7.6834 2.1548 0.0000 -10873.2125 1455.7385 0.0000 0.0000 1791.4337 -7611.5508 306.2128 -9402.9845 -7608.9868 300.2214 344.4208 482.3457 29953.8913 3.0137 3.0420
ENERGY: 1300000 6.5923 13.9678 2.5640 0.0000 -10867.7294 1466.0594 0.0000 0.0000 1740.3706 -7638.1753 297.4845 -9378.5460 -7636.0777 300.0282 334.1855 358.7887 30041.2779 2.5318 2.7023
ENERGY: 1500000 3.1952 12.1076 3.4278 0.0000 -10635.7476 1338.9326 0.0000 0.0000 1756.6269 -7521.4575 300.2632 -9278.0844 -7518.0910 299.9524 -783.9892 -736.5934 31124.9075 3.4902 3.6194
ENERGY: 1700000 3.0110 12.2305 6.8584 0.0000 -10765.3365 1387.7152 0.0000 0.0000 1781.9239 -7573.5974 304.5873 -9355.5214 -7567.6684 301.0783 -503.2711 -426.8267 30489.7479 2.3744 2.5497
ENERGY: 1900000 4.6984 13.7106 3.8509 0.0000 -10918.3427 1519.4986 0.0000 0.0000 1756.7858 -7619.7984 300.2904 -9376.5842 -7614.8728 299.9229 898.3529 973.3651 29836.5205 2.8020 2.8055
TCL: Exiting due to exit command.
