Info: SIMULATION PARAMETERS:
Info: TIMESTEP               2
Info: NUMBER OF STEPS        0
Info: STEPS PER CYCLE        10
Info: PERIODIC CELL BASIS 1  35.89 0 0
Info: PERIODIC CELL BASIS 2  0 33.542 0
Info: PERIODIC CELL BASIS 3  0 0 37.195
Info: PERIODIC CELL CENTER   0 0 0
Info: WRAPPING WATERS AROUND PERIODIC BOUNDARIES ON OUTPUT.
Info: WRAPPING ALL CLUSTERS AROUND PERIODIC BOUNDARIES ON OUTPUT.
Info: FIRST LDB TIMESTEP     50
Info: LAST LDB TIMESTEP     -1
Info: HOM BACKGROUND SCALING 1
Info: PME BACKGROUND SCALING 1
Info: MIN ATOMS PER PATCH    40
Info: EMPTY PATCH LOAD       40 ATOMS
Info: INITIAL TEMPERATURE    300
Info: CENTER OF MASS MOVING INITIALLY? NO
Info: DIELECTRIC             1
Info: EXCLUDE                SCALED ONE-FOUR
Info: 1-4 ELECTROSTATICS SCALED BY 0.833333
Info: MODIFIED 1-4 VDW PARAMETERS WILL BE USED
Info: DCD FILENAME           mobley_3169935_equil.dcd
Info: DCD FREQUENCY          100000
Info: DCD FIRST STEP         100000
Info: DCD FILE WILL CONTAIN UNIT CELL DATA
Info: XST FILENAME           mobley_3169935_equil.xst
Info: XST FREQUENCY          100000
Info: NO VELOCITY DCD OUTPUT
Info: NO FORCE DCD OUTPUT
Info: OUTPUT FILENAME        mobley_3169935_equil
Info: BINARY OUTPUT FILES WILL BE USED
Info: RESTART FILENAME       mobley_3169935_equil.restart
Info: RESTART FREQUENCY      100000
Info: BINARY RESTART FILES WILL BE USED
Info: CUTOFF                 9
Info: PAIRLIST DISTANCE      11
Info: PAIRLIST SHRINK RATE   0.01
Info: PAIRLIST GROW RATE     0.01
Info: PAIRLIST TRIGGER       0.3
Info: PAIRLISTS PER CYCLE    2
Info: PAIRLISTS ENABLED
Info: MARGIN                 8
Info: HYDROGEN GROUP CUTOFF  2.5
Info: PATCH DIMENSION        21.5
Info: ENERGY OUTPUT STEPS    100000
Info: ENERGY EVALUATION STEPS    100000
Info: OUTPUT ENERGY PRECISION 4
Info: CROSSTERM ENERGY INCLUDED IN DIHEDRAL
Info: TIMING OUTPUT STEPS    1000000
Info: PRESSURE OUTPUT STEPS  100000
Info: LANGEVIN DYNAMICS ACTIVE
Info: LANGEVIN TEMPERATURE   30
Info: LANGEVIN USING BBK INTEGRATOR
Info: LANGEVIN DAMPING COEFFICIENT IS 1 INVERSE PS
Info: LANGEVIN DYNAMICS APPLIED TO HYDROGENS
Info: LANGEVIN PISTON PRESSURE CONTROL ACTIVE
Info:        TARGET PRESSURE IS 1.01325 BAR
Info:     OSCILLATION PERIOD IS 50 FS
Info:             DECAY TIME IS 25 FS
Info:     PISTON TEMPERATURE IS 300 K
Info:       PRESSURE CONTROL IS GROUP-BASED
Info:    INITIAL STRAIN RATE IS 0 0 0
Info:       CELL FLUCTUATION IS ISOTROPIC
Info: PARTICLE MESH EWALD (PME) ACTIVE
Info: PME TOLERANCE               1e-06
Info: PME EWALD COEFFICIENT       0.348832
Info: PME INTERPOLATION ORDER     4
Info: PME GRID DIMENSIONS         36 36 40
Info: PME MAXIMUM GRID SPACING    1
Info: FULL ELECTROSTATIC EVALUATION FREQUENCY      2
Info: USING VERLET I (r-RESPA) MTS SCHEME.
Info: C1 SPLITTING OF LONG RANGE ELECTROSTATICS
Info: PLACING ATOMS IN PATCHES BY HYDROGEN GROUPS
Info: RIGID BONDS TO HYDROGEN : ALL
Info:         ERROR TOLERANCE : 1e-08
Info:          MAX ITERATIONS : 100
Info: RIGID WATER USING SETTLE ALGORITHM
Info: RANDOM NUMBER SEED     1743210232
Info: USE HYDROGEN BONDS?    NO
Info: Using AMBER format force field!
Info: AMBER PARM FILE        mobley_3169935.prmtop
Info: COORDINATE PDB         mobley_3169935.pdb
Info: Exclusions will be read from PARM file!
Info: SCNB (VDW SCALING)     2
Info: USING ARITHMETIC MEAN TO COMBINE L-J SIGMA PARAMETERS
Info: BINARY COORDINATES     mobley_3169935_min.coor
Info: SUMMARY OF PARAMETERS:
Info: 7 BONDS
Info: 6 ANGLES
Info:   6 HARMONIC
Info:   0 COSINE-BASED
Info: 3 DIHEDRAL
Info: 0 IMPROPER
Info: 0 CROSSTERM
Info: 0 VDW
Info: 28 VDW_PAIRS
Info: 0 NBTHOLE_PAIRS
Info: STRUCTURE SUMMARY:
Info: 2996 ATOMS
Info: 2996 BONDS
Info: 21 ANGLES
Info: 35 DIHEDRALS
Info: 0 IMPROPERS
Info: 0 CROSSTERMS
Info: 3042 EXCLUSIONS
Info: 2988 RIGID BONDS
Info: 6000 DEGREES OF FREEDOM
Info: 1002 HYDROGEN GROUPS
Info: 3 ATOMS IN LARGEST HYDROGEN GROUP
Info: 1002 MIGRATION GROUPS
Info: 3 ATOMS IN LARGEST MIGRATION GROUP
Info: TOTAL MASS = 18035.5 amu
Info: TOTAL CHARGE = 0.000100028 e
Info: MASS DENSITY = 0.668867 g/cm^3
Info: ATOM DENSITY = 0.0669106 atoms/A^3
Info: ADDED 0 IMPLICIT EXCLUSIONS
Info: NONBONDED TABLE R-SQUARED SPACING: 0.0625
Info: NONBONDED TABLE SIZE: 705 POINTS
Info: REMOVING COM VELOCITY 0.0275715 0.167993 -0.0369489
TCL: Running for 100000 steps
ETITLE: TS BOND ANGLE DIHED IMPRP ELECT VDW BOUNDARY MISC KINETIC TOTAL TEMP POTENTIAL TOTAL3 TEMPAVG PRESSURE GPRESSURE VOLUME PRESSAVG GPRESSAVG
ENERGY: 0 0.1570 0.2145 1.9537 0.0000 -13938.2335 2496.5787 0.0000 0.0000 1770.9450 -9668.3845 297.0600 -11439.3296 -9668.0398 297.0600 678.8439 711.0165 44776.1734 678.8439 711.0165
ENERGY: 100000 0.4864 0.6676 2.0045 0.0000 -14515.6114 2556.2191 0.0000 0.0000 175.6029 -11780.6308 29.4558 -11956.2337 -11780.3558 30.8969 171.8871 241.5219 29234.8611 3.8868 3.9016
TCL: Running 100000 steps at 60 kelvin.
TCL: Setting parameter langevinTemp to 60
TCL: Running for 100000 steps
ETITLE: TS BOND ANGLE DIHED IMPRP ELECT VDW BOUNDARY MISC KINETIC TOTAL TEMP POTENTIAL TOTAL3 TEMPAVG PRESSURE GPRESSURE VOLUME PRESSAVG GPRESSAVG
ENERGY: 100000 0.4864 0.6676 2.0045 0.0000 -14515.6114 2556.2191 0.0000 0.0000 175.5136 -11780.7201 29.4408 -11956.2337 -11780.3390 29.4408 184.6442 241.2948 29234.8611 184.6442 241.2948
ENERGY: 200000 0.5301 0.9999 2.4378 0.0000 -14308.3610 2422.7914 0.0000 0.0000 367.0090 -11514.5929 61.5624 -11881.6018 -11514.1664 59.7996 -504.7658 -456.9930 29202.0044 3.5627 3.6216
TCL: Running 100000 steps at 90 kelvin.
TCL: Setting parameter langevinTemp to 90
TCL: Running for 100000 steps
ETITLE: TS BOND ANGLE DIHED IMPRP ELECT VDW BOUNDARY MISC KINETIC TOTAL TEMP POTENTIAL TOTAL3 TEMPAVG PRESSURE GPRESSURE VOLUME PRESSAVG GPRESSAVG
ENERGY: 200000 0.5301 0.9999 2.4378 0.0000 -14308.3610 2422.7914 0.0000 0.0000 366.8285 -11514.7734 61.5322 -11881.6018 -11514.0080 61.5322 -507.8138 -456.9589 29202.0044 -507.8138 -456.9589
ENERGY: 300000 0.7274 0.7670 3.5450 0.0000 -14230.6258 2423.3246 0.0000 0.0000 549.6076 -11252.6542 92.1917 -11802.2618 -11250.5362 89.8995 -372.4708 -317.5496 29516.1820 3.3706 3.3919
TCL: Running 100000 steps at 120 kelvin.
TCL: Setting parameter langevinTemp to 120
TCL: Running for 100000 steps
ETITLE: TS BOND ANGLE DIHED IMPRP ELECT VDW BOUNDARY MISC KINETIC TOTAL TEMP POTENTIAL TOTAL3 TEMPAVG PRESSURE GPRESSURE VOLUME PRESSAVG GPRESSAVG
ENERGY: 300000 0.7274 0.7670 3.5450 0.0000 -14230.6258 2423.3246 0.0000 0.0000 549.3429 -11252.9190 92.1473 -11802.2618 -11251.8113 92.1473 -369.8293 -317.7419 29516.1820 -369.8293 -317.7419
ENERGY: 400000 0.7263 1.7195 1.5240 0.0000 -14145.8845 2490.3823 0.0000 0.0000 709.0663 -10942.4662 118.9395 -11651.5325 -10940.9429 119.9393 752.7031 831.4177 29541.8066 3.0437 2.9732
TCL: Running 100000 steps at 150 kelvin.
TCL: Setting parameter langevinTemp to 150
TCL: Running for 100000 steps
ETITLE: TS BOND ANGLE DIHED IMPRP ELECT VDW BOUNDARY MISC KINETIC TOTAL TEMP POTENTIAL TOTAL3 TEMPAVG PRESSURE GPRESSURE VOLUME PRESSAVG GPRESSAVG
ENERGY: 400000 0.7263 1.7195 1.5240 0.0000 -14145.8845 2490.3823 0.0000 0.0000 708.7161 -10942.8164 118.8807 -11651.5325 -10941.2169 118.8807 760.8537 830.9991 29541.8066 760.8537 830.9991
ENERGY: 500000 1.2449 1.3554 4.0835 0.0000 -13795.2494 2301.9682 0.0000 0.0000 903.3322 -10583.2651 151.5258 -11486.5973 -10580.2834 150.1431 -174.6595 -138.1786 29730.6814 2.8327 2.9175
TCL: Running 100000 steps at 180 kelvin.
TCL: Setting parameter langevinTemp to 180
TCL: Running for 100000 steps
ETITLE: TS BOND ANGLE DIHED IMPRP ELECT VDW BOUNDARY MISC KINETIC TOTAL TEMP POTENTIAL TOTAL3 TEMPAVG PRESSURE GPRESSURE VOLUME PRESSAVG GPRESSAVG
ENERGY: 500000 1.2449 1.3554 4.0835 0.0000 -13795.2494 2301.9682 0.0000 0.0000 902.8738 -10583.7236 151.4489 -11486.5973 -10581.4995 151.4489 -187.5820 -136.7641 29730.6814 -187.5820 -136.7641
ENERGY: 600000 0.7450 2.7244 5.2975 0.0000 -13422.0575 2244.3485 0.0000 0.0000 1062.6332 -10106.3089 178.2471 -11168.9420 -10103.6988 179.9555 473.7860 555.0240 29662.3109 3.5850 3.6238
TCL: Running 100000 steps at 210 kelvin.
TCL: Setting parameter langevinTemp to 210
TCL: Running for 100000 steps
ETITLE: TS BOND ANGLE DIHED IMPRP ELECT VDW BOUNDARY MISC KINETIC TOTAL TEMP POTENTIAL TOTAL3 TEMPAVG PRESSURE GPRESSURE VOLUME PRESSAVG GPRESSAVG
ENERGY: 600000 0.7450 2.7244 5.2975 0.0000 -13422.0575 2244.3485 0.0000 0.0000 1062.0810 -10106.8610 178.1545 -11168.9420 -10105.0840 178.1545 488.8817 555.6761 29662.3109 488.8817 555.6761
ENERGY: 700000 0.5355 1.5186 3.6902 0.0000 -12521.9874 1857.1880 0.0000 0.0000 1299.2261 -9359.8290 217.9334 -10659.0551 -9355.5200 210.2651 -394.0293 -333.9978 29310.3437 3.3825 3.5106
TCL: Running 100000 steps at 240 kelvin.
TCL: Setting parameter langevinTemp to 240
TCL: Running for 100000 steps
ETITLE: TS BOND ANGLE DIHED IMPRP ELECT VDW BOUNDARY MISC KINETIC TOTAL TEMP POTENTIAL TOTAL3 TEMPAVG PRESSURE GPRESSURE VOLUME PRESSAVG GPRESSAVG
ENERGY: 700000 0.5355 1.5186 3.6902 0.0000 -12521.9874 1857.1880 0.0000 0.0000 1298.6114 -9360.4437 217.8303 -10659.0551 -9358.5064 217.8303 -409.5135 -332.4215 29310.3437 -409.5135 -332.4215
ENERGY: 800000 1.9062 3.3551 4.8314 0.0000 -11914.5342 1676.0609 0.0000 0.0000 1410.8813 -8817.4994 236.6626 -10228.3807 -8814.3395 239.7416 -563.6723 -507.0249 29746.6268 2.3253 2.4324
TCL: Running 100000 steps at 270 kelvin.
TCL: Setting parameter langevinTemp to 270
TCL: Running for 100000 steps
ETITLE: TS BOND ANGLE DIHED IMPRP ELECT VDW BOUNDARY MISC KINETIC TOTAL TEMP POTENTIAL TOTAL3 TEMPAVG PRESSURE GPRESSURE VOLUME PRESSAVG GPRESSAVG
ENERGY: 800000 1.9062 3.3551 4.8314 0.0000 -11914.5342 1676.0609 0.0000 0.0000 1410.1730 -8818.2077 236.5438 -10228.3807 -8815.2937 236.5438 -584.5627 -507.5957 29746.6268 -584.5627 -507.5957
ENERGY: 900000 1.4897 3.5373 2.5115 0.0000 -11288.9045 1519.6003 0.0000 0.0000 1613.0568 -8148.7089 270.5757 -9761.7657 -8144.3668 270.5578 -194.5420 -151.8666 30016.0166 4.6003 4.5802
TCL: Running 1000000 steps at 300 kelvin.
TCL: Setting parameter langevinTemp to 300
TCL: Running for 1000000 steps
ETITLE: TS BOND ANGLE DIHED IMPRP ELECT VDW BOUNDARY MISC KINETIC TOTAL TEMP POTENTIAL TOTAL3 TEMPAVG PRESSURE GPRESSURE VOLUME PRESSAVG GPRESSAVG
ENERGY: 900000 1.4897 3.5373 2.5115 0.0000 -11288.9045 1519.6003 0.0000 0.0000 1612.2384 -8149.5272 270.4384 -9761.7657 -8146.9672 270.4384 -232.0401 -152.7271 30016.0166 -232.0401 -152.7271
ENERGY: 1100000 0.6737 3.4654 4.0981 0.0000 -10837.6518 1387.8682 0.0000 0.0000 1800.1675 -7641.3788 301.9618 -9441.5463 -7637.6577 300.3898 -844.7528 -670.5963 31001.2932 1.7291 1.8874
ENERGY: 1300000 2.9093 5.7907 5.6969 0.0000 -10898.8825 1487.8402 0.0000 0.0000 1833.7719 -7562.8734 307.5987 -9396.6453 -7556.4879 299.6986 253.7545 324.3002 30739.3942 3.4367 3.4413
ENERGY: 1500000 2.1545 2.6662 1.0558 0.0000 -10846.9885 1457.1031 0.0000 0.0000 1795.1661 -7588.8427 301.1229 -9384.0088 -7588.6723 300.4606 273.5534 366.6535 30625.5998 3.9708 3.9406
ENERGY: 1700000 2.7287 5.5866 8.5404 0.0000 -10894.3390 1464.7894 0.0000 0.0000 1795.7223 -7616.9716 301.2162 -9412.6939 -7613.2574 299.8929 -71.1970 48.8632 30932.2938 3.9672 3.8946
ENERGY: 1900000 5.4569 2.2168 2.5038 0.0000 -10714.4351 1337.6828 0.0000 0.0000 1850.9688 -7515.6060 310.4833 -9366.5748 -7513.0739 299.4818 -1252.3697 -1155.1002 31294.5441 3.4001 3.3388
TCL: Exiting due to exit command.
