Info: SIMULATION PARAMETERS:
Info: TIMESTEP               2
Info: NUMBER OF STEPS        0
Info: STEPS PER CYCLE        10
Info: PERIODIC CELL BASIS 1  34.207 0 0
Info: PERIODIC CELL BASIS 2  0 33.314 0
Info: PERIODIC CELL BASIS 3  0 0 38.379
Info: PERIODIC CELL CENTER   0 0 0
Info: WRAPPING WATERS AROUND PERIODIC BOUNDARIES ON OUTPUT.
Info: WRAPPING ALL CLUSTERS AROUND PERIODIC BOUNDARIES ON OUTPUT.
Info: FIRST LDB TIMESTEP     50
Info: LAST LDB TIMESTEP     -1
Info: HOM BACKGROUND SCALING 1
Info: PME BACKGROUND SCALING 1
Info: MIN ATOMS PER PATCH    40
Info: EMPTY PATCH LOAD       40 ATOMS
Info: INITIAL TEMPERATURE    300
Info: CENTER OF MASS MOVING INITIALLY? NO
Info: DIELECTRIC             1
Info: EXCLUDE                SCALED ONE-FOUR
Info: 1-4 ELECTROSTATICS SCALED BY 0.833333
Info: MODIFIED 1-4 VDW PARAMETERS WILL BE USED
Info: DCD FILENAME           mobley_2763835_equil.dcd
Info: DCD FREQUENCY          100000
Info: DCD FIRST STEP         100000
Info: DCD FILE WILL CONTAIN UNIT CELL DATA
Info: XST FILENAME           mobley_2763835_equil.xst
Info: XST FREQUENCY          100000
Info: NO VELOCITY DCD OUTPUT
Info: NO FORCE DCD OUTPUT
Info: OUTPUT FILENAME        mobley_2763835_equil
Info: BINARY OUTPUT FILES WILL BE USED
Info: RESTART FILENAME       mobley_2763835_equil.restart
Info: RESTART FREQUENCY      100000
Info: BINARY RESTART FILES WILL BE USED
Info: CUTOFF                 9
Info: PAIRLIST DISTANCE      11
Info: PAIRLIST SHRINK RATE   0.01
Info: PAIRLIST GROW RATE     0.01
Info: PAIRLIST TRIGGER       0.3
Info: PAIRLISTS PER CYCLE    2
Info: PAIRLISTS ENABLED
Info: MARGIN                 8
Info: HYDROGEN GROUP CUTOFF  2.5
Info: PATCH DIMENSION        21.5
Info: ENERGY OUTPUT STEPS    100000
Info: ENERGY EVALUATION STEPS    100000
Info: OUTPUT ENERGY PRECISION 4
Info: CROSSTERM ENERGY INCLUDED IN DIHEDRAL
Info: TIMING OUTPUT STEPS    1000000
Info: PRESSURE OUTPUT STEPS  100000
Info: LANGEVIN DYNAMICS ACTIVE
Info: LANGEVIN TEMPERATURE   30
Info: LANGEVIN USING BBK INTEGRATOR
Info: LANGEVIN DAMPING COEFFICIENT IS 1 INVERSE PS
Info: LANGEVIN DYNAMICS APPLIED TO HYDROGENS
Info: LANGEVIN PISTON PRESSURE CONTROL ACTIVE
Info:        TARGET PRESSURE IS 1.01325 BAR
Info:     OSCILLATION PERIOD IS 50 FS
Info:             DECAY TIME IS 25 FS
Info:     PISTON TEMPERATURE IS 300 K
Info:       PRESSURE CONTROL IS GROUP-BASED
Info:    INITIAL STRAIN RATE IS 0 0 0
Info:       CELL FLUCTUATION IS ISOTROPIC
Info: PARTICLE MESH EWALD (PME) ACTIVE
Info: PME TOLERANCE               1e-06
Info: PME EWALD COEFFICIENT       0.348832
Info: PME INTERPOLATION ORDER     4
Info: PME GRID DIMENSIONS         36 36 40
Info: PME MAXIMUM GRID SPACING    1
Info: FULL ELECTROSTATIC EVALUATION FREQUENCY      2
Info: USING VERLET I (r-RESPA) MTS SCHEME.
Info: C1 SPLITTING OF LONG RANGE ELECTROSTATICS
Info: PLACING ATOMS IN PATCHES BY HYDROGEN GROUPS
Info: RIGID BONDS TO HYDROGEN : ALL
Info:         ERROR TOLERANCE : 1e-08
Info:          MAX ITERATIONS : 100
Info: RIGID WATER USING SETTLE ALGORITHM
Info: RANDOM NUMBER SEED     1743242336
Info: USE HYDROGEN BONDS?    NO
Info: Using AMBER format force field!
Info: AMBER PARM FILE        mobley_2763835.prmtop
Info: COORDINATE PDB         mobley_2763835.pdb
Info: Exclusions will be read from PARM file!
Info: SCNB (VDW SCALING)     2
Info: USING ARITHMETIC MEAN TO COMBINE L-J SIGMA PARAMETERS
Info: BINARY COORDINATES     mobley_2763835_min.coor
Info: SUMMARY OF PARAMETERS:
Info: 9 BONDS
Info: 10 ANGLES
Info:   10 HARMONIC
Info:   0 COSINE-BASED
Info: 7 DIHEDRAL
Info: 0 IMPROPER
Info: 0 CROSSTERM
Info: 0 VDW
Info: 36 VDW_PAIRS
Info: 0 NBTHOLE_PAIRS
Info: STRUCTURE SUMMARY:
Info: 2953 ATOMS
Info: 2953 BONDS
Info: 31 ANGLES
Info: 47 DIHEDRALS
Info: 0 IMPROPERS
Info: 0 CROSSTERMS
Info: 3019 EXCLUSIONS
Info: 2944 RIGID BONDS
Info: 5915 DEGREES OF FREEDOM
Info: 987 HYDROGEN GROUPS
Info: 4 ATOMS IN LARGEST HYDROGEN GROUP
Info: 987 MIGRATION GROUPS
Info: 4 ATOMS IN LARGEST MIGRATION GROUP
Info: TOTAL MASS = 17741.8 amu
Info: TOTAL CHARGE = -0.000100017 e
Info: MASS DENSITY = 0.67363 g/cm^3
Info: ATOM DENSITY = 0.0675193 atoms/A^3
Info: ADDED 0 IMPLICIT EXCLUSIONS
Info: NONBONDED TABLE R-SQUARED SPACING: 0.0625
Info: NONBONDED TABLE SIZE: 705 POINTS
Info: REMOVING COM VELOCITY 0.00278097 -0.0109001 -0.127663
TCL: Running for 100000 steps
ETITLE: TS BOND ANGLE DIHED IMPRP ELECT VDW BOUNDARY MISC KINETIC TOTAL TEMP POTENTIAL TOTAL3 TEMPAVG PRESSURE GPRESSURE VOLUME PRESSAVG GPRESSAVG
ENERGY: 0 0.2246 0.8366 0.8186 0.0000 -13628.6898 2405.8435 0.0000 0.0000 1758.5700 -9462.3964 299.2232 -11220.9664 -9462.0425 299.2232 553.2022 599.9182 43735.6337 553.2022 599.9182
ENERGY: 100000 0.3742 1.3749 0.9829 0.0000 -14158.3169 2424.0907 0.0000 0.0000 173.8763 -11557.6179 29.5853 -11731.4941 -11557.0662 30.8233 -455.2532 -408.0488 28732.7275 5.4905 5.4925
TCL: Running 100000 steps at 60 kelvin.
TCL: Setting parameter langevinTemp to 60
TCL: Running for 100000 steps
ETITLE: TS BOND ANGLE DIHED IMPRP ELECT VDW BOUNDARY MISC KINETIC TOTAL TEMP POTENTIAL TOTAL3 TEMPAVG PRESSURE GPRESSURE VOLUME PRESSAVG GPRESSAVG
ENERGY: 100000 0.3742 1.3749 0.9829 0.0000 -14158.3169 2424.0907 0.0000 0.0000 173.7925 -11557.7016 29.5710 -11731.4941 -11557.2583 29.5710 -465.0377 -407.9592 28732.7275 -465.0377 -407.9592
ENERGY: 200000 0.4856 2.8430 1.1499 0.0000 -14057.1317 2379.3701 0.0000 0.0000 364.4522 -11308.8310 62.0121 -11673.2831 -11307.5203 59.9530 -431.6114 -373.2735 28646.8628 3.4632 3.5288
TCL: Running 100000 steps at 90 kelvin.
TCL: Setting parameter langevinTemp to 90
TCL: Running for 100000 steps
ETITLE: TS BOND ANGLE DIHED IMPRP ELECT VDW BOUNDARY MISC KINETIC TOTAL TEMP POTENTIAL TOTAL3 TEMPAVG PRESSURE GPRESSURE VOLUME PRESSAVG GPRESSAVG
ENERGY: 200000 0.4856 2.8430 1.1499 0.0000 -14057.1317 2379.3701 0.0000 0.0000 364.2768 -11309.0063 61.9822 -11673.2831 -11308.2341 61.9822 -434.5990 -373.4866 28646.8628 -434.5990 -373.4866
ENERGY: 300000 0.9642 1.7970 2.8545 0.0000 -14039.9309 2436.9743 0.0000 0.0000 539.1127 -11058.2281 91.7308 -11597.3408 -11056.6035 90.1921 509.7931 549.0885 28548.6177 4.0349 4.0542
TCL: Running 100000 steps at 120 kelvin.
TCL: Setting parameter langevinTemp to 120
TCL: Running for 100000 steps
ETITLE: TS BOND ANGLE DIHED IMPRP ELECT VDW BOUNDARY MISC KINETIC TOTAL TEMP POTENTIAL TOTAL3 TEMPAVG PRESSURE GPRESSURE VOLUME PRESSAVG GPRESSAVG
ENERGY: 300000 0.9642 1.7970 2.8545 0.0000 -14039.9309 2436.9743 0.0000 0.0000 538.8445 -11058.4964 91.6852 -11597.3408 -11057.3318 91.6852 500.6076 549.4995 28548.6177 500.6076 549.4995
ENERGY: 400000 1.1563 2.9780 1.9508 0.0000 -13777.8517 2356.3511 0.0000 0.0000 715.1130 -10700.3026 121.6775 -11415.4156 -10698.8353 119.9816 355.5395 396.2128 28847.1129 4.0301 4.0779
TCL: Running 100000 steps at 150 kelvin.
TCL: Setting parameter langevinTemp to 150
TCL: Running for 100000 steps
ETITLE: TS BOND ANGLE DIHED IMPRP ELECT VDW BOUNDARY MISC KINETIC TOTAL TEMP POTENTIAL TOTAL3 TEMPAVG PRESSURE GPRESSURE VOLUME PRESSAVG GPRESSAVG
ENERGY: 400000 1.1563 2.9780 1.9508 0.0000 -13777.8517 2356.3511 0.0000 0.0000 714.7689 -10700.6466 121.6190 -11415.4156 -10699.2403 121.6190 346.8935 396.5555 28847.1129 346.8935 396.5555
ENERGY: 500000 2.8502 3.4104 2.0951 0.0000 -13516.8432 2216.4413 0.0000 0.0000 902.3245 -10389.7217 153.5318 -11292.0462 -10386.5656 149.6801 -484.7369 -479.7892 29147.1009 4.8263 4.9478
TCL: Running 100000 steps at 180 kelvin.
TCL: Setting parameter langevinTemp to 180
TCL: Running for 100000 steps
ETITLE: TS BOND ANGLE DIHED IMPRP ELECT VDW BOUNDARY MISC KINETIC TOTAL TEMP POTENTIAL TOTAL3 TEMPAVG PRESSURE GPRESSURE VOLUME PRESSAVG GPRESSAVG
ENERGY: 500000 2.8502 3.4104 2.0951 0.0000 -13516.8432 2216.4413 0.0000 0.0000 901.8809 -10390.1653 153.4563 -11292.0462 -10388.4060 153.4563 -524.3659 -478.2940 29147.1009 -524.3659 -478.2940
ENERGY: 600000 0.9265 4.2524 1.9932 0.0000 -13092.5317 2150.5694 0.0000 0.0000 1069.2625 -9865.5277 181.9366 -10934.7903 -9862.5191 180.0636 676.5862 703.0139 28702.4168 2.8110 2.9704
TCL: Running 100000 steps at 210 kelvin.
TCL: Setting parameter langevinTemp to 210
TCL: Running for 100000 steps
ETITLE: TS BOND ANGLE DIHED IMPRP ELECT VDW BOUNDARY MISC KINETIC TOTAL TEMP POTENTIAL TOTAL3 TEMPAVG PRESSURE GPRESSURE VOLUME PRESSAVG GPRESSAVG
ENERGY: 600000 0.9265 4.2524 1.9932 0.0000 -13092.5317 2150.5694 0.0000 0.0000 1068.7406 -9866.0497 181.8478 -10934.7903 -9864.2115 181.8478 640.6304 704.0748 28702.4168 640.6304 704.0748
ENERGY: 700000 2.5369 3.7134 2.3178 0.0000 -12438.3582 1901.2388 0.0000 0.0000 1232.8925 -9295.6588 209.7784 -10528.5513 -9292.5937 209.7323 117.7375 167.3767 28876.1881 3.6832 3.5107
TCL: Running 100000 steps at 240 kelvin.
TCL: Setting parameter langevinTemp to 240
TCL: Running for 100000 steps
ETITLE: TS BOND ANGLE DIHED IMPRP ELECT VDW BOUNDARY MISC KINETIC TOTAL TEMP POTENTIAL TOTAL3 TEMPAVG PRESSURE GPRESSURE VOLUME PRESSAVG GPRESSAVG
ENERGY: 700000 2.5369 3.7134 2.3178 0.0000 -12438.3582 1901.2388 0.0000 0.0000 1232.2955 -9296.2558 209.6769 -10528.5513 -9294.1302 209.6769 100.0121 168.2199 28876.1881 100.0121 168.2199
ENERGY: 800000 2.4719 6.7067 4.5937 0.0000 -11801.6309 1722.6365 0.0000 0.0000 1432.6900 -8632.5321 243.7743 -10065.2222 -8631.2517 240.3100 -1.9492 68.8638 29186.4663 3.8784 3.8444
TCL: Running 100000 steps at 270 kelvin.
TCL: Setting parameter langevinTemp to 270
TCL: Running for 100000 steps
ETITLE: TS BOND ANGLE DIHED IMPRP ELECT VDW BOUNDARY MISC KINETIC TOTAL TEMP POTENTIAL TOTAL3 TEMPAVG PRESSURE GPRESSURE VOLUME PRESSAVG GPRESSAVG
ENERGY: 800000 2.4719 6.7067 4.5937 0.0000 -11801.6309 1722.6365 0.0000 0.0000 1431.9781 -8633.2441 243.6531 -10065.2222 -8631.3079 243.6531 -6.1872 68.9298 29186.4663 -6.1872 68.9298
ENERGY: 900000 2.1351 4.7007 7.3375 0.0000 -11179.2582 1520.7938 0.0000 0.0000 1585.5112 -8058.7800 269.7770 -9644.2911 -8056.4584 269.3634 -334.0880 -238.1942 29613.2612 4.4982 4.3354
TCL: Running 1000000 steps at 300 kelvin.
TCL: Setting parameter langevinTemp to 300
TCL: Running for 1000000 steps
ETITLE: TS BOND ANGLE DIHED IMPRP ELECT VDW BOUNDARY MISC KINETIC TOTAL TEMP POTENTIAL TOTAL3 TEMPAVG PRESSURE GPRESSURE VOLUME PRESSAVG GPRESSAVG
ENERGY: 900000 2.1351 4.7007 7.3375 0.0000 -11179.2582 1520.7938 0.0000 0.0000 1584.6929 -8059.5983 269.6378 -9644.2911 -8056.7484 269.6378 -325.8684 -239.8287 29613.2612 -325.8684 -239.8287
ENERGY: 1100000 2.5242 7.3107 7.4068 0.0000 -10689.7331 1425.8806 0.0000 0.0000 1732.7720 -7513.8389 294.8336 -9246.6108 -7510.5923 299.6804 -102.9188 -23.7506 30520.2905 4.3064 4.3818
ENERGY: 1300000 1.1758 6.9542 4.6793 0.0000 -10710.9212 1406.9151 0.0000 0.0000 1716.3717 -7574.8252 292.0431 -9291.1969 -7572.9488 299.4276 -182.1448 -109.3784 30405.9237 3.1807 3.0789
ENERGY: 1500000 5.8509 3.7993 2.5663 0.0000 -10785.5671 1451.6472 0.0000 0.0000 1816.9873 -7504.7160 309.1630 -9321.7033 -7501.5974 299.8355 -131.9336 -50.6434 30491.4973 2.6409 2.6626
ENERGY: 1700000 1.2609 1.9075 7.2132 0.0000 -10562.1019 1306.7347 0.0000 0.0000 1782.0511 -7462.9345 303.2186 -9244.9857 -7459.1999 300.4823 -974.2167 -873.2143 30344.0884 3.6681 3.6544
ENERGY: 1900000 4.7196 5.6511 4.9407 0.0000 -10486.0907 1362.1173 0.0000 0.0000 1765.9396 -7342.7223 300.4772 -9108.6619 -7340.6847 300.9361 -321.1746 -246.4999 30722.9704 3.7093 3.6620
TCL: Exiting due to exit command.
