Info: SIMULATION PARAMETERS:
Info: TIMESTEP               2
Info: NUMBER OF STEPS        0
Info: STEPS PER CYCLE        10
Info: PERIODIC CELL BASIS 1  36.005 0 0
Info: PERIODIC CELL BASIS 2  0 35.411 0
Info: PERIODIC CELL BASIS 3  0 0 34.68
Info: PERIODIC CELL CENTER   0 0 0
Info: WRAPPING WATERS AROUND PERIODIC BOUNDARIES ON OUTPUT.
Info: WRAPPING ALL CLUSTERS AROUND PERIODIC BOUNDARIES ON OUTPUT.
Info: FIRST LDB TIMESTEP     50
Info: LAST LDB TIMESTEP     -1
Info: HOM BACKGROUND SCALING 1
Info: PME BACKGROUND SCALING 1
Info: MIN ATOMS PER PATCH    40
Info: EMPTY PATCH LOAD       40 ATOMS
Info: INITIAL TEMPERATURE    300
Info: CENTER OF MASS MOVING INITIALLY? NO
Info: DIELECTRIC             1
Info: EXCLUDE                SCALED ONE-FOUR
Info: 1-4 ELECTROSTATICS SCALED BY 0.833333
Info: MODIFIED 1-4 VDW PARAMETERS WILL BE USED
Info: DCD FILENAME           mobley_4639255_equil.dcd
Info: DCD FREQUENCY          100000
Info: DCD FIRST STEP         100000
Info: DCD FILE WILL CONTAIN UNIT CELL DATA
Info: XST FILENAME           mobley_4639255_equil.xst
Info: XST FREQUENCY          100000
Info: NO VELOCITY DCD OUTPUT
Info: NO FORCE DCD OUTPUT
Info: OUTPUT FILENAME        mobley_4639255_equil
Info: BINARY OUTPUT FILES WILL BE USED
Info: RESTART FILENAME       mobley_4639255_equil.restart
Info: RESTART FREQUENCY      100000
Info: BINARY RESTART FILES WILL BE USED
Info: CUTOFF                 9
Info: PAIRLIST DISTANCE      11
Info: PAIRLIST SHRINK RATE   0.01
Info: PAIRLIST GROW RATE     0.01
Info: PAIRLIST TRIGGER       0.3
Info: PAIRLISTS PER CYCLE    2
Info: PAIRLISTS ENABLED
Info: MARGIN                 8
Info: HYDROGEN GROUP CUTOFF  2.5
Info: PATCH DIMENSION        21.5
Info: ENERGY OUTPUT STEPS    100000
Info: ENERGY EVALUATION STEPS    100000
Info: OUTPUT ENERGY PRECISION 4
Info: CROSSTERM ENERGY INCLUDED IN DIHEDRAL
Info: TIMING OUTPUT STEPS    1000000
Info: PRESSURE OUTPUT STEPS  100000
Info: LANGEVIN DYNAMICS ACTIVE
Info: LANGEVIN TEMPERATURE   30
Info: LANGEVIN USING BBK INTEGRATOR
Info: LANGEVIN DAMPING COEFFICIENT IS 1 INVERSE PS
Info: LANGEVIN DYNAMICS APPLIED TO HYDROGENS
Info: LANGEVIN PISTON PRESSURE CONTROL ACTIVE
Info:        TARGET PRESSURE IS 1.01325 BAR
Info:     OSCILLATION PERIOD IS 50 FS
Info:             DECAY TIME IS 25 FS
Info:     PISTON TEMPERATURE IS 300 K
Info:       PRESSURE CONTROL IS GROUP-BASED
Info:    INITIAL STRAIN RATE IS 0 0 0
Info:       CELL FLUCTUATION IS ISOTROPIC
Info: PARTICLE MESH EWALD (PME) ACTIVE
Info: PME TOLERANCE               1e-06
Info: PME EWALD COEFFICIENT       0.348832
Info: PME INTERPOLATION ORDER     4
Info: PME GRID DIMENSIONS         40 36 36
Info: PME MAXIMUM GRID SPACING    1
Info: FULL ELECTROSTATIC EVALUATION FREQUENCY      2
Info: USING VERLET I (r-RESPA) MTS SCHEME.
Info: C1 SPLITTING OF LONG RANGE ELECTROSTATICS
Info: PLACING ATOMS IN PATCHES BY HYDROGEN GROUPS
Info: RIGID BONDS TO HYDROGEN : ALL
Info:         ERROR TOLERANCE : 1e-08
Info:          MAX ITERATIONS : 100
Info: RIGID WATER USING SETTLE ALGORITHM
Info: RANDOM NUMBER SEED     1743224247
Info: USE HYDROGEN BONDS?    NO
Info: Using AMBER format force field!
Info: AMBER PARM FILE        mobley_4639255.prmtop
Info: COORDINATE PDB         mobley_4639255.pdb
Info: Exclusions will be read from PARM file!
Info: SCNB (VDW SCALING)     2
Info: USING ARITHMETIC MEAN TO COMBINE L-J SIGMA PARAMETERS
Info: BINARY COORDINATES     mobley_4639255_min.coor
Info: SUMMARY OF PARAMETERS:
Info: 6 BONDS
Info: 5 ANGLES
Info: 7 DIHEDRAL
Info: 0 IMPROPER
Info: 0 CROSSTERM
Info: 0 VDW
Info: 15 VDW_PAIRS
Info: 0 NBTHOLE_PAIRS
Info: STRUCTURE SUMMARY:
Info: 2923 ATOMS
Info: 2922 BONDS
Info: 14 ANGLES
Info: 22 DIHEDRALS
Info: 0 IMPROPERS
Info: 0 CROSSTERMS
Info: 2951 EXCLUSIONS
Info: 2919 RIGID BONDS
Info: 5850 DEGREES OF FREEDOM
Info: 975 HYDROGEN GROUPS
Info: 3 ATOMS IN LARGEST HYDROGEN GROUP
Info: 975 MIGRATION GROUPS
Info: 3 ATOMS IN LARGEST MIGRATION GROUP
Info: TOTAL MASS = 17555.6 amu
Info: TOTAL CHARGE = -0.000199959 e
Info: MASS DENSITY = 0.659318 g/cm^3
Info: ATOM DENSITY = 0.0661072 atoms/A^3
Info: ADDED 0 IMPLICIT EXCLUSIONS
Info: NONBONDED TABLE R-SQUARED SPACING: 0.0625
Info: NONBONDED TABLE SIZE: 705 POINTS
Info: REMOVING COM VELOCITY -0.0615106 0.101779 -0.0401446
TCL: Running for 100000 steps
ETITLE: TS BOND ANGLE DIHED IMPRP ELECT VDW BOUNDARY MISC KINETIC TOTAL TEMP POTENTIAL TOTAL3 TEMPAVG PRESSURE GPRESSURE VOLUME PRESSAVG GPRESSAVG
ENERGY: 0 0.0405 0.1110 2.2869 0.0000 -13564.1313 2394.8829 0.0000 0.0000 1711.4625 -9455.3474 294.4435 -11166.8099 -9455.0096 294.4435 473.1012 509.3603 44216.0655 473.1012 509.3603
ENERGY: 100000 0.2143 0.6722 2.2874 0.0000 -13927.7844 2329.3504 0.0000 0.0000 174.6715 -11420.5885 30.0508 -11595.2600 -11420.0831 30.8649 -1076.6410 -1013.5415 29343.3410 5.4582 5.4192
TCL: Running 100000 steps at 60 kelvin.
TCL: Setting parameter langevinTemp to 60
TCL: Running for 100000 steps
ETITLE: TS BOND ANGLE DIHED IMPRP ELECT VDW BOUNDARY MISC KINETIC TOTAL TEMP POTENTIAL TOTAL3 TEMPAVG PRESSURE GPRESSURE VOLUME PRESSAVG GPRESSAVG
ENERGY: 100000 0.2143 0.6722 2.2874 0.0000 -13927.7844 2329.3504 0.0000 0.0000 174.5846 -11420.6754 30.0359 -11595.2600 -11420.2941 30.0359 -1084.1652 -1013.5833 29343.3410 -1084.1652 -1013.5833
ENERGY: 200000 0.1181 0.6343 2.1994 0.0000 -13933.6095 2371.7225 0.0000 0.0000 338.3288 -11220.6065 58.2068 -11558.9353 -11219.8586 60.0267 -491.7478 -437.5079 28834.6891 3.6139 3.5354
TCL: Running 100000 steps at 90 kelvin.
TCL: Setting parameter langevinTemp to 90
TCL: Running for 100000 steps
ETITLE: TS BOND ANGLE DIHED IMPRP ELECT VDW BOUNDARY MISC KINETIC TOTAL TEMP POTENTIAL TOTAL3 TEMPAVG PRESSURE GPRESSURE VOLUME PRESSAVG GPRESSAVG
ENERGY: 200000 0.1181 0.6343 2.1994 0.0000 -13933.6095 2371.7225 0.0000 0.0000 338.1578 -11220.7775 58.1774 -11558.9353 -11220.1721 58.1774 -500.5009 -437.5224 28834.6891 -500.5009 -437.5224
ENERGY: 300000 0.1471 0.7922 2.2294 0.0000 -13796.1487 2305.1240 0.0000 0.0000 522.3141 -10965.5420 89.8600 -11487.8561 -10964.0232 89.7825 -699.0925 -614.9956 28735.1634 4.5816 4.6803
TCL: Running 100000 steps at 120 kelvin.
TCL: Setting parameter langevinTemp to 120
TCL: Running for 100000 steps
ETITLE: TS BOND ANGLE DIHED IMPRP ELECT VDW BOUNDARY MISC KINETIC TOTAL TEMP POTENTIAL TOTAL3 TEMPAVG PRESSURE GPRESSURE VOLUME PRESSAVG GPRESSAVG
ENERGY: 300000 0.1471 0.7922 2.2294 0.0000 -13796.1487 2305.1240 0.0000 0.0000 522.0631 -10965.7930 89.8168 -11487.8561 -10964.6514 89.8168 -665.4405 -614.9447 28735.1634 -665.4405 -614.9447
ENERGY: 400000 0.1813 2.2672 2.2175 0.0000 -13557.3632 2238.1566 0.0000 0.0000 682.6046 -10631.9360 117.4367 -11314.5406 -10629.8271 119.9523 -628.8160 -569.4963 28961.9987 4.1450 4.2931
TCL: Running 100000 steps at 150 kelvin.
TCL: Setting parameter langevinTemp to 150
TCL: Running for 100000 steps
ETITLE: TS BOND ANGLE DIHED IMPRP ELECT VDW BOUNDARY MISC KINETIC TOTAL TEMP POTENTIAL TOTAL3 TEMPAVG PRESSURE GPRESSURE VOLUME PRESSAVG GPRESSAVG
ENERGY: 400000 0.1813 2.2672 2.2175 0.0000 -13557.3632 2238.1566 0.0000 0.0000 682.2523 -10632.2883 117.3761 -11314.5406 -10631.0400 117.3761 -629.5789 -568.6093 28961.9987 -629.5789 -568.6093
ENERGY: 500000 0.2903 1.7005 1.9315 0.0000 -13387.9260 2266.1041 0.0000 0.0000 863.6099 -10254.2896 148.5772 -11117.8995 -10252.2946 149.9939 342.2934 409.1999 28703.7344 4.5247 4.4274
TCL: Running 100000 steps at 180 kelvin.
TCL: Setting parameter langevinTemp to 180
TCL: Running for 100000 steps
ETITLE: TS BOND ANGLE DIHED IMPRP ELECT VDW BOUNDARY MISC KINETIC TOTAL TEMP POTENTIAL TOTAL3 TEMPAVG PRESSURE GPRESSURE VOLUME PRESSAVG GPRESSAVG
ENERGY: 500000 0.2903 1.7005 1.9315 0.0000 -13387.9260 2266.1041 0.0000 0.0000 863.1810 -10254.7185 148.5034 -11117.8995 -10253.2570 148.5034 351.5743 408.8277 28703.7344 351.5743 408.8277
ENERGY: 600000 0.5670 1.4697 1.5393 0.0000 -13083.8834 2150.7095 0.0000 0.0000 1089.0260 -9840.5720 187.3582 -10929.5980 -9838.0665 180.1972 32.9705 133.9405 28884.7851 5.2723 5.1572
TCL: Running 100000 steps at 210 kelvin.
TCL: Setting parameter langevinTemp to 210
TCL: Running for 100000 steps
ETITLE: TS BOND ANGLE DIHED IMPRP ELECT VDW BOUNDARY MISC KINETIC TOTAL TEMP POTENTIAL TOTAL3 TEMPAVG PRESSURE GPRESSURE VOLUME PRESSAVG GPRESSAVG
ENERGY: 600000 0.5670 1.4697 1.5393 0.0000 -13083.8834 2150.7095 0.0000 0.0000 1088.5028 -9841.0952 187.2682 -10929.5980 -9838.8286 187.2682 77.6122 133.0649 28884.7851 77.6122 133.0649
ENERGY: 700000 0.6692 2.8756 3.5849 0.0000 -12368.1003 1933.6974 0.0000 0.0000 1202.1103 -9225.1628 206.8135 -10427.2732 -9223.3214 210.3519 287.3207 339.0398 28635.4515 4.4778 4.5288
TCL: Running 100000 steps at 240 kelvin.
TCL: Setting parameter langevinTemp to 240
TCL: Running for 100000 steps
ETITLE: TS BOND ANGLE DIHED IMPRP ELECT VDW BOUNDARY MISC KINETIC TOTAL TEMP POTENTIAL TOTAL3 TEMPAVG PRESSURE GPRESSURE VOLUME PRESSAVG GPRESSAVG
ENERGY: 700000 0.6692 2.8756 3.5849 0.0000 -12368.1003 1933.6974 0.0000 0.0000 1201.4917 -9225.7815 206.7071 -10427.2732 -9224.3936 206.7071 247.5440 339.9920 28635.4515 247.5440 339.9920
ENERGY: 800000 0.2384 2.7193 1.4803 0.0000 -11731.7823 1714.5214 0.0000 0.0000 1404.0407 -8608.7822 241.5540 -10012.8229 -8605.5745 240.3202 -1.4256 119.7765 28790.2418 4.0278 4.2193
TCL: Running 100000 steps at 270 kelvin.
TCL: Setting parameter langevinTemp to 270
TCL: Running for 100000 steps
ETITLE: TS BOND ANGLE DIHED IMPRP ELECT VDW BOUNDARY MISC KINETIC TOTAL TEMP POTENTIAL TOTAL3 TEMPAVG PRESSURE GPRESSURE VOLUME PRESSAVG GPRESSAVG
ENERGY: 800000 0.2384 2.7193 1.4803 0.0000 -11731.7823 1714.5214 0.0000 0.0000 1403.3738 -8609.4491 241.4392 -10012.8229 -8607.3643 241.4392 42.9178 120.7231 28790.2418 42.9178 120.7231
ENERGY: 900000 0.5758 4.2158 3.6033 0.0000 -11130.1156 1525.9255 0.0000 0.0000 1579.8452 -8015.9500 271.7998 -9595.7952 -8013.2384 269.3633 -478.3515 -399.0797 29443.9785 3.0442 3.1425
TCL: Running 1000000 steps at 300 kelvin.
TCL: Setting parameter langevinTemp to 300
TCL: Running for 1000000 steps
ETITLE: TS BOND ANGLE DIHED IMPRP ELECT VDW BOUNDARY MISC KINETIC TOTAL TEMP POTENTIAL TOTAL3 TEMPAVG PRESSURE GPRESSURE VOLUME PRESSAVG GPRESSAVG
ENERGY: 900000 0.5758 4.2158 3.6033 0.0000 -11130.1156 1525.9255 0.0000 0.0000 1579.0354 -8016.7598 271.6604 -9595.7952 -8014.2648 271.6604 -476.2533 -401.6680 29443.9785 -476.2533 -401.6680
ENERGY: 1100000 3.1182 2.6263 1.4930 0.0000 -10467.9864 1355.9376 0.0000 0.0000 1739.0618 -7365.7496 299.1917 -9104.8114 -7363.3807 300.1430 -280.5854 -175.4897 29966.2739 3.9653 3.8967
ENERGY: 1300000 2.2743 5.9245 2.6207 0.0000 -10575.9780 1435.4489 0.0000 0.0000 1725.6508 -7404.0587 296.8844 -9129.7095 -7401.5945 299.6850 -12.2907 92.4345 30359.1888 3.4084 3.4151
ENERGY: 1500000 0.1647 3.2553 4.5716 0.0000 -10763.7029 1501.7472 0.0000 0.0000 1792.8533 -7461.1108 308.4461 -9253.9641 -7458.7159 300.0489 721.9400 711.3001 29483.7244 4.1415 3.9246
ENERGY: 1700000 0.4410 4.9740 2.4762 0.0000 -10701.0578 1469.9602 0.0000 0.0000 1717.5578 -7505.6485 295.4921 -9223.2063 -7502.6590 300.0655 194.7226 238.1733 30186.1217 2.6754 2.8175
ENERGY: 1900000 0.9068 2.4940 2.2137 0.0000 -10639.8152 1437.1607 0.0000 0.0000 1726.0714 -7470.9685 296.9568 -9197.0400 -7468.6328 300.1659 -138.5884 -4.4103 30131.9885 4.0953 4.0233
TCL: Exiting due to exit command.
