Info: SIMULATION PARAMETERS:
Info: TIMESTEP               2
Info: NUMBER OF STEPS        0
Info: STEPS PER CYCLE        10
Info: PERIODIC CELL BASIS 1  35.89 0 0
Info: PERIODIC CELL BASIS 2  0 34.1 0
Info: PERIODIC CELL BASIS 3  0 0 36.199
Info: PERIODIC CELL CENTER   0 0 0
Info: WRAPPING WATERS AROUND PERIODIC BOUNDARIES ON OUTPUT.
Info: WRAPPING ALL CLUSTERS AROUND PERIODIC BOUNDARIES ON OUTPUT.
Info: FIRST LDB TIMESTEP     50
Info: LAST LDB TIMESTEP     -1
Info: HOM BACKGROUND SCALING 1
Info: PME BACKGROUND SCALING 1
Info: MIN ATOMS PER PATCH    40
Info: EMPTY PATCH LOAD       40 ATOMS
Info: INITIAL TEMPERATURE    300
Info: CENTER OF MASS MOVING INITIALLY? NO
Info: DIELECTRIC             1
Info: EXCLUDE                SCALED ONE-FOUR
Info: 1-4 ELECTROSTATICS SCALED BY 0.833333
Info: MODIFIED 1-4 VDW PARAMETERS WILL BE USED
Info: DCD FILENAME           mobley_852937_equil.dcd
Info: DCD FREQUENCY          100000
Info: DCD FIRST STEP         100000
Info: DCD FILE WILL CONTAIN UNIT CELL DATA
Info: XST FILENAME           mobley_852937_equil.xst
Info: XST FREQUENCY          100000
Info: NO VELOCITY DCD OUTPUT
Info: NO FORCE DCD OUTPUT
Info: OUTPUT FILENAME        mobley_852937_equil
Info: BINARY OUTPUT FILES WILL BE USED
Info: RESTART FILENAME       mobley_852937_equil.restart
Info: RESTART FREQUENCY      100000
Info: BINARY RESTART FILES WILL BE USED
Info: CUTOFF                 9
Info: PAIRLIST DISTANCE      11
Info: PAIRLIST SHRINK RATE   0.01
Info: PAIRLIST GROW RATE     0.01
Info: PAIRLIST TRIGGER       0.3
Info: PAIRLISTS PER CYCLE    2
Info: PAIRLISTS ENABLED
Info: MARGIN                 8
Info: HYDROGEN GROUP CUTOFF  2.5
Info: PATCH DIMENSION        21.5
Info: ENERGY OUTPUT STEPS    100000
Info: ENERGY EVALUATION STEPS    100000
Info: OUTPUT ENERGY PRECISION 4
Info: CROSSTERM ENERGY INCLUDED IN DIHEDRAL
Info: TIMING OUTPUT STEPS    1000000
Info: PRESSURE OUTPUT STEPS  100000
Info: LANGEVIN DYNAMICS ACTIVE
Info: LANGEVIN TEMPERATURE   30
Info: LANGEVIN USING BBK INTEGRATOR
Info: LANGEVIN DAMPING COEFFICIENT IS 1 INVERSE PS
Info: LANGEVIN DYNAMICS APPLIED TO HYDROGENS
Info: LANGEVIN PISTON PRESSURE CONTROL ACTIVE
Info:        TARGET PRESSURE IS 1.01325 BAR
Info:     OSCILLATION PERIOD IS 50 FS
Info:             DECAY TIME IS 25 FS
Info:     PISTON TEMPERATURE IS 300 K
Info:       PRESSURE CONTROL IS GROUP-BASED
Info:    INITIAL STRAIN RATE IS 0 0 0
Info:       CELL FLUCTUATION IS ISOTROPIC
Info: PARTICLE MESH EWALD (PME) ACTIVE
Info: PME TOLERANCE               1e-06
Info: PME EWALD COEFFICIENT       0.348832
Info: PME INTERPOLATION ORDER     4
Info: PME GRID DIMENSIONS         36 36 40
Info: PME MAXIMUM GRID SPACING    1
Info: FULL ELECTROSTATIC EVALUATION FREQUENCY      2
Info: USING VERLET I (r-RESPA) MTS SCHEME.
Info: C1 SPLITTING OF LONG RANGE ELECTROSTATICS
Info: PLACING ATOMS IN PATCHES BY HYDROGEN GROUPS
Info: RIGID BONDS TO HYDROGEN : ALL
Info:         ERROR TOLERANCE : 1e-08
Info:          MAX ITERATIONS : 100
Info: RIGID WATER USING SETTLE ALGORITHM
Info: RANDOM NUMBER SEED     1743208782
Info: USE HYDROGEN BONDS?    NO
Info: Using AMBER format force field!
Info: AMBER PARM FILE        mobley_852937.prmtop
Info: COORDINATE PDB         mobley_852937.pdb
Info: Exclusions will be read from PARM file!
Info: SCNB (VDW SCALING)     2
Info: USING ARITHMETIC MEAN TO COMBINE L-J SIGMA PARAMETERS
Info: BINARY COORDINATES     mobley_852937_min.coor
Info: SUMMARY OF PARAMETERS:
Info: 7 BONDS
Info: 5 ANGLES
Info:   5 HARMONIC
Info:   0 COSINE-BASED
Info: 3 DIHEDRAL
Info: 0 IMPROPER
Info: 0 CROSSTERM
Info: 0 VDW
Info: 21 VDW_PAIRS
Info: 0 NBTHOLE_PAIRS
Info: STRUCTURE SUMMARY:
Info: 2926 ATOMS
Info: 2926 BONDS
Info: 19 ANGLES
Info: 32 DIHEDRALS
Info: 0 IMPROPERS
Info: 0 CROSSTERMS
Info: 2968 EXCLUSIONS
Info: 2918 RIGID BONDS
Info: 5860 DEGREES OF FREEDOM
Info: 979 HYDROGEN GROUPS
Info: 3 ATOMS IN LARGEST HYDROGEN GROUP
Info: 979 MIGRATION GROUPS
Info: 3 ATOMS IN LARGEST MIGRATION GROUP
Info: TOTAL MASS = 17605.6 amu
Info: TOTAL CHARGE = 0.000199996 e
Info: MASS DENSITY = 0.659913 g/cm^3
Info: ATOM DENSITY = 0.0660465 atoms/A^3
Info: ADDED 0 IMPLICIT EXCLUSIONS
Info: NONBONDED TABLE R-SQUARED SPACING: 0.0625
Info: NONBONDED TABLE SIZE: 705 POINTS
Info: REMOVING COM VELOCITY 0.092391 0.0356295 -0.173989
TCL: Running for 100000 steps
ETITLE: TS BOND ANGLE DIHED IMPRP ELECT VDW BOUNDARY MISC KINETIC TOTAL TEMP POTENTIAL TOTAL3 TEMPAVG PRESSURE GPRESSURE VOLUME PRESSAVG GPRESSAVG
ENERGY: 0 0.1084 0.0973 0.0364 0.0000 -13550.9019 2409.5195 0.0000 0.0000 1767.4418 -9373.6985 303.5554 -11141.1403 -9373.3393 303.5554 651.1749 687.6283 44302.1100 651.1749 687.6283
ENERGY: 100000 0.1291 0.3851 0.5589 0.0000 -14194.3676 2536.9179 0.0000 0.0000 176.4352 -11479.9414 30.3025 -11656.3765 -11479.5086 30.9695 629.8918 694.1565 28607.5504 5.3937 5.3908
TCL: Running 100000 steps at 60 kelvin.
TCL: Setting parameter langevinTemp to 60
TCL: Running for 100000 steps
ETITLE: TS BOND ANGLE DIHED IMPRP ELECT VDW BOUNDARY MISC KINETIC TOTAL TEMP POTENTIAL TOTAL3 TEMPAVG PRESSURE GPRESSURE VOLUME PRESSAVG GPRESSAVG
ENERGY: 100000 0.1291 0.3851 0.5589 0.0000 -14194.3676 2536.9179 0.0000 0.0000 176.3525 -11480.0240 30.2883 -11656.3765 -11479.6907 30.2883 627.9695 694.2754 28607.5504 627.9695 694.2754
ENERGY: 200000 0.9503 0.7353 0.3920 0.0000 -13977.7357 2392.7937 0.0000 0.0000 348.4969 -11234.3676 59.8538 -11582.8644 -11232.8985 59.9779 -450.6544 -377.2133 28879.6865 4.0387 3.9719
TCL: Running 100000 steps at 90 kelvin.
TCL: Setting parameter langevinTemp to 90
TCL: Running for 100000 steps
ETITLE: TS BOND ANGLE DIHED IMPRP ELECT VDW BOUNDARY MISC KINETIC TOTAL TEMP POTENTIAL TOTAL3 TEMPAVG PRESSURE GPRESSURE VOLUME PRESSAVG GPRESSAVG
ENERGY: 200000 0.9503 0.7353 0.3920 0.0000 -13977.7357 2392.7937 0.0000 0.0000 348.3226 -11234.5419 59.8239 -11582.8644 -11233.7863 59.8239 -427.0628 -377.2001 28879.6865 -427.0628 -377.2001
ENERGY: 300000 0.6622 0.3214 1.0864 0.0000 -13894.1593 2427.7565 0.0000 0.0000 529.9708 -10934.3620 91.0216 -11464.3327 -10933.3833 89.8504 660.6347 697.8863 28529.4748 4.7357 4.6639
TCL: Running 100000 steps at 120 kelvin.
TCL: Setting parameter langevinTemp to 120
TCL: Running for 100000 steps
ETITLE: TS BOND ANGLE DIHED IMPRP ELECT VDW BOUNDARY MISC KINETIC TOTAL TEMP POTENTIAL TOTAL3 TEMPAVG PRESSURE GPRESSURE VOLUME PRESSAVG GPRESSAVG
ENERGY: 300000 0.6622 0.3214 1.0864 0.0000 -13894.1593 2427.7565 0.0000 0.0000 529.7126 -10934.6201 90.9773 -11464.3327 -10933.6563 90.9773 657.2615 698.2467 28529.4748 657.2615 698.2467
ENERGY: 400000 0.6796 1.4470 1.5290 0.0000 -13660.0954 2290.3970 0.0000 0.0000 692.5298 -10673.5130 118.9409 -11366.0428 -10671.8226 119.9774 -288.0653 -240.0636 28789.9482 3.7057 3.5849
TCL: Running 100000 steps at 150 kelvin.
TCL: Setting parameter langevinTemp to 150
TCL: Running for 100000 steps
ETITLE: TS BOND ANGLE DIHED IMPRP ELECT VDW BOUNDARY MISC KINETIC TOTAL TEMP POTENTIAL TOTAL3 TEMPAVG PRESSURE GPRESSURE VOLUME PRESSAVG GPRESSAVG
ENERGY: 400000 0.6796 1.4470 1.5290 0.0000 -13660.0954 2290.3970 0.0000 0.0000 692.1902 -10673.8526 118.8826 -11366.0428 -10672.1877 118.8826 -281.8072 -240.6247 28789.9482 -281.8072 -240.6247
ENERGY: 500000 0.4578 1.1843 1.8531 0.0000 -13415.0977 2202.6187 0.0000 0.0000 885.3059 -10323.6780 152.0499 -11208.9840 -10321.2213 150.3368 -449.1550 -365.0456 28773.4904 3.0319 2.8651
TCL: Running 100000 steps at 180 kelvin.
TCL: Setting parameter langevinTemp to 180
TCL: Running for 100000 steps
ETITLE: TS BOND ANGLE DIHED IMPRP ELECT VDW BOUNDARY MISC KINETIC TOTAL TEMP POTENTIAL TOTAL3 TEMPAVG PRESSURE GPRESSURE VOLUME PRESSAVG GPRESSAVG
ENERGY: 500000 0.4578 1.1843 1.8531 0.0000 -13415.0977 2202.6187 0.0000 0.0000 884.8937 -10324.0903 151.9791 -11208.9840 -10322.3000 151.9791 -413.6307 -365.2083 28773.4904 -413.6307 -365.2083
ENERGY: 600000 1.3282 0.7860 2.1854 0.0000 -13094.7271 2189.9803 0.0000 0.0000 1008.2322 -9892.2150 173.1623 -10900.4472 -9889.0130 180.0207 543.1198 600.7180 28712.4580 3.6897 3.7602
TCL: Running 100000 steps at 210 kelvin.
TCL: Setting parameter langevinTemp to 210
TCL: Running for 100000 steps
ETITLE: TS BOND ANGLE DIHED IMPRP ELECT VDW BOUNDARY MISC KINETIC TOTAL TEMP POTENTIAL TOTAL3 TEMPAVG PRESSURE GPRESSURE VOLUME PRESSAVG GPRESSAVG
ENERGY: 600000 1.3282 0.7860 2.1854 0.0000 -13094.7271 2189.9803 0.0000 0.0000 1007.7125 -9892.7347 173.0730 -10900.4472 -9890.8744 173.0730 536.9156 602.3512 28712.4580 536.9156 602.3512
ENERGY: 700000 1.6025 1.2941 2.6639 0.0000 -12334.5512 1900.6625 0.0000 0.0000 1202.4007 -9225.9276 206.5104 -10428.3283 -9224.1305 209.8184 -60.5385 -5.8655 28813.1771 3.5294 3.6820
TCL: Running 100000 steps at 240 kelvin.
TCL: Setting parameter langevinTemp to 240
TCL: Running for 100000 steps
ETITLE: TS BOND ANGLE DIHED IMPRP ELECT VDW BOUNDARY MISC KINETIC TOTAL TEMP POTENTIAL TOTAL3 TEMPAVG PRESSURE GPRESSURE VOLUME PRESSAVG GPRESSAVG
ENERGY: 700000 1.6025 1.2941 2.6639 0.0000 -12334.5512 1900.6625 0.0000 0.0000 1201.7871 -9226.5412 206.4050 -10428.3283 -9224.7796 206.4050 -62.2887 -6.5804 28813.1771 -62.2887 -6.5804
ENERGY: 800000 0.9059 3.2634 3.0030 0.0000 -11691.6473 1708.0388 0.0000 0.0000 1395.0285 -8581.4077 239.5939 -9976.4362 -8578.6202 239.9412 278.6173 346.1556 28722.8563 1.6182 1.7906
TCL: Running 100000 steps at 270 kelvin.
TCL: Setting parameter langevinTemp to 270
TCL: Running for 100000 steps
ETITLE: TS BOND ANGLE DIHED IMPRP ELECT VDW BOUNDARY MISC KINETIC TOTAL TEMP POTENTIAL TOTAL3 TEMPAVG PRESSURE GPRESSURE VOLUME PRESSAVG GPRESSAVG
ENERGY: 800000 0.9059 3.2634 3.0030 0.0000 -11691.6473 1708.0388 0.0000 0.0000 1394.3131 -8582.1230 239.4711 -9976.4362 -8579.6203 239.4711 262.5850 344.4074 28722.8563 262.5850 344.4074
ENERGY: 900000 0.4965 2.3586 2.2660 0.0000 -11260.8551 1572.7337 0.0000 0.0000 1561.4059 -8121.5944 268.1690 -9683.0004 -8119.9116 269.8248 -326.2662 -230.2652 29361.6917 2.9656 2.8691
TCL: Running 1000000 steps at 300 kelvin.
TCL: Setting parameter langevinTemp to 300
TCL: Running for 1000000 steps
ETITLE: TS BOND ANGLE DIHED IMPRP ELECT VDW BOUNDARY MISC KINETIC TOTAL TEMP POTENTIAL TOTAL3 TEMPAVG PRESSURE GPRESSURE VOLUME PRESSAVG GPRESSAVG
ENERGY: 900000 0.4965 2.3586 2.2660 0.0000 -11260.8551 1572.7337 0.0000 0.0000 1560.6266 -8122.3738 268.0352 -9683.0004 -8119.4160 268.0352 -315.5297 -231.5319 29361.6917 -315.5297 -231.5319
ENERGY: 1100000 1.5364 1.5551 3.3807 0.0000 -10411.7848 1293.9441 0.0000 0.0000 1774.1206 -7337.2478 304.7024 -9111.3684 -7330.5988 299.5628 -975.1196 -894.8447 30508.4992 3.0837 2.9623
ENERGY: 1300000 1.6912 5.4939 2.1031 0.0000 -10867.8796 1554.3760 0.0000 0.0000 1730.0121 -7574.2032 297.1269 -9304.2153 -7571.9556 300.5955 724.5474 805.9068 29913.2067 3.2889 3.1667
ENERGY: 1500000 3.3736 2.3378 1.7742 0.0000 -10534.6521 1346.7356 0.0000 0.0000 1779.2535 -7401.1773 305.5840 -9180.4308 -7397.2479 300.1634 -547.1771 -495.9760 30343.6354 2.6177 2.6397
ENERGY: 1700000 3.8040 1.3099 2.7967 0.0000 -10477.5460 1369.6933 0.0000 0.0000 1756.3104 -7343.6318 301.6435 -9099.9422 -7342.0969 300.6581 -306.7024 -219.3110 30460.4817 3.7177 3.6966
ENERGY: 1900000 1.4376 2.9397 4.1977 0.0000 -10444.2416 1352.0366 0.0000 0.0000 1762.8859 -7320.7441 302.7729 -9083.6300 -7316.8193 300.2039 -472.5139 -394.3484 30658.0169 3.0781 3.1224
TCL: Exiting due to exit command.
