Info: SIMULATION PARAMETERS:
Info: TIMESTEP               2
Info: NUMBER OF STEPS        0
Info: STEPS PER CYCLE        10
Info: PERIODIC CELL BASIS 1  34.986 0 0
Info: PERIODIC CELL BASIS 2  0 33.404 0
Info: PERIODIC CELL BASIS 3  0 0 37.195
Info: PERIODIC CELL CENTER   0 0 0
Info: WRAPPING WATERS AROUND PERIODIC BOUNDARIES ON OUTPUT.
Info: WRAPPING ALL CLUSTERS AROUND PERIODIC BOUNDARIES ON OUTPUT.
Info: FIRST LDB TIMESTEP     50
Info: LAST LDB TIMESTEP     -1
Info: HOM BACKGROUND SCALING 1
Info: PME BACKGROUND SCALING 1
Info: MIN ATOMS PER PATCH    40
Info: EMPTY PATCH LOAD       40 ATOMS
Info: INITIAL TEMPERATURE    300
Info: CENTER OF MASS MOVING INITIALLY? NO
Info: DIELECTRIC             1
Info: EXCLUDE                SCALED ONE-FOUR
Info: 1-4 ELECTROSTATICS SCALED BY 0.833333
Info: MODIFIED 1-4 VDW PARAMETERS WILL BE USED
Info: DCD FILENAME           mobley_4483973_equil.dcd
Info: DCD FREQUENCY          100000
Info: DCD FIRST STEP         100000
Info: DCD FILE WILL CONTAIN UNIT CELL DATA
Info: XST FILENAME           mobley_4483973_equil.xst
Info: XST FREQUENCY          100000
Info: NO VELOCITY DCD OUTPUT
Info: NO FORCE DCD OUTPUT
Info: OUTPUT FILENAME        mobley_4483973_equil
Info: BINARY OUTPUT FILES WILL BE USED
Info: RESTART FILENAME       mobley_4483973_equil.restart
Info: RESTART FREQUENCY      100000
Info: BINARY RESTART FILES WILL BE USED
Info: CUTOFF                 9
Info: PAIRLIST DISTANCE      11
Info: PAIRLIST SHRINK RATE   0.01
Info: PAIRLIST GROW RATE     0.01
Info: PAIRLIST TRIGGER       0.3
Info: PAIRLISTS PER CYCLE    2
Info: PAIRLISTS ENABLED
Info: MARGIN                 8
Info: HYDROGEN GROUP CUTOFF  2.5
Info: PATCH DIMENSION        21.5
Info: ENERGY OUTPUT STEPS    100000
Info: ENERGY EVALUATION STEPS    100000
Info: OUTPUT ENERGY PRECISION 4
Info: CROSSTERM ENERGY INCLUDED IN DIHEDRAL
Info: TIMING OUTPUT STEPS    1000000
Info: PRESSURE OUTPUT STEPS  100000
Info: LANGEVIN DYNAMICS ACTIVE
Info: LANGEVIN TEMPERATURE   30
Info: LANGEVIN USING BBK INTEGRATOR
Info: LANGEVIN DAMPING COEFFICIENT IS 1 INVERSE PS
Info: LANGEVIN DYNAMICS APPLIED TO HYDROGENS
Info: LANGEVIN PISTON PRESSURE CONTROL ACTIVE
Info:        TARGET PRESSURE IS 1.01325 BAR
Info:     OSCILLATION PERIOD IS 50 FS
Info:             DECAY TIME IS 25 FS
Info:     PISTON TEMPERATURE IS 300 K
Info:       PRESSURE CONTROL IS GROUP-BASED
Info:    INITIAL STRAIN RATE IS 0 0 0
Info:       CELL FLUCTUATION IS ISOTROPIC
Info: PARTICLE MESH EWALD (PME) ACTIVE
Info: PME TOLERANCE               1e-06
Info: PME EWALD COEFFICIENT       0.348832
Info: PME INTERPOLATION ORDER     4
Info: PME GRID DIMENSIONS         36 36 40
Info: PME MAXIMUM GRID SPACING    1
Info: FULL ELECTROSTATIC EVALUATION FREQUENCY      2
Info: USING VERLET I (r-RESPA) MTS SCHEME.
Info: C1 SPLITTING OF LONG RANGE ELECTROSTATICS
Info: PLACING ATOMS IN PATCHES BY HYDROGEN GROUPS
Info: RIGID BONDS TO HYDROGEN : ALL
Info:         ERROR TOLERANCE : 1e-08
Info:          MAX ITERATIONS : 100
Info: RIGID WATER USING SETTLE ALGORITHM
Info: RANDOM NUMBER SEED     1743163066
Info: USE HYDROGEN BONDS?    NO
Info: Using AMBER format force field!
Info: AMBER PARM FILE        mobley_4483973.prmtop
Info: COORDINATE PDB         mobley_4483973.pdb
Info: Exclusions will be read from PARM file!
Info: SCNB (VDW SCALING)     2
Info: USING ARITHMETIC MEAN TO COMBINE L-J SIGMA PARAMETERS
Info: BINARY COORDINATES     mobley_4483973_min.coor
Info: SUMMARY OF PARAMETERS:
Info: 5 BONDS
Info: 3 ANGLES
Info:   3 HARMONIC
Info:   0 COSINE-BASED
Info: 2 DIHEDRAL
Info: 0 IMPROPER
Info: 0 CROSSTERM
Info: 0 VDW
Info: 15 VDW_PAIRS
Info: 0 NBTHOLE_PAIRS
Info: STRUCTURE SUMMARY:
Info: 2943 ATOMS
Info: 2943 BONDS
Info: 18 ANGLES
Info: 30 DIHEDRALS
Info: 0 IMPROPERS
Info: 0 CROSSTERMS
Info: 2982 EXCLUSIONS
Info: 2936 RIGID BONDS
Info: 5893 DEGREES OF FREEDOM
Info: 984 HYDROGEN GROUPS
Info: 3 ATOMS IN LARGEST HYDROGEN GROUP
Info: 984 MIGRATION GROUPS
Info: 3 ATOMS IN LARGEST MIGRATION GROUP
Info: TOTAL MASS = 17697.7 amu
Info: TOTAL CHARGE = 0 e
Info: MASS DENSITY = 0.676082 g/cm^3
Info: ATOM DENSITY = 0.0677038 atoms/A^3
Info: ADDED 0 IMPLICIT EXCLUSIONS
Info: NONBONDED TABLE R-SQUARED SPACING: 0.0625
Info: NONBONDED TABLE SIZE: 705 POINTS
Info: REMOVING COM VELOCITY 0.287598 -0.0410951 -0.122594
TCL: Running for 100000 steps
ETITLE: TS BOND ANGLE DIHED IMPRP ELECT VDW BOUNDARY MISC KINETIC TOTAL TEMP POTENTIAL TOTAL3 TEMPAVG PRESSURE GPRESSURE VOLUME PRESSAVG GPRESSAVG
ENERGY: 0 0.1090 0.0539 0.0277 0.0000 -13617.6704 2421.5923 0.0000 0.0000 1757.2840 -9438.6035 300.1207 -11195.8875 -9438.2584 300.1207 665.3061 706.5070 43468.7678 665.3061 706.5070
ENERGY: 100000 0.2879 0.4006 0.1688 0.0000 -14168.5266 2442.4077 0.0000 0.0000 180.6528 -11544.6089 30.8531 -11725.2616 -11544.1722 30.9471 -302.3286 -216.6954 28793.5151 3.5329 3.5396
TCL: Running 100000 steps at 60 kelvin.
TCL: Setting parameter langevinTemp to 60
TCL: Running for 100000 steps
ETITLE: TS BOND ANGLE DIHED IMPRP ELECT VDW BOUNDARY MISC KINETIC TOTAL TEMP POTENTIAL TOTAL3 TEMPAVG PRESSURE GPRESSURE VOLUME PRESSAVG GPRESSAVG
ENERGY: 100000 0.2879 0.4006 0.1688 0.0000 -14168.5266 2442.4077 0.0000 0.0000 180.5621 -11544.6995 30.8376 -11725.2616 -11544.3541 30.8376 -285.6838 -216.5834 28793.5151 -285.6838 -216.5834
ENERGY: 200000 0.2443 0.5846 0.6194 0.0000 -14169.2139 2508.0548 0.0000 0.0000 348.7977 -11310.9131 59.5700 -11659.7108 -11310.0972 59.8911 590.8848 664.7072 28674.3784 3.1979 3.2056
TCL: Running 100000 steps at 90 kelvin.
TCL: Setting parameter langevinTemp to 90
TCL: Running for 100000 steps
ETITLE: TS BOND ANGLE DIHED IMPRP ELECT VDW BOUNDARY MISC KINETIC TOTAL TEMP POTENTIAL TOTAL3 TEMPAVG PRESSURE GPRESSURE VOLUME PRESSAVG GPRESSAVG
ENERGY: 200000 0.2443 0.5846 0.6194 0.0000 -14169.2139 2508.0548 0.0000 0.0000 348.6168 -11311.0941 59.5391 -11659.7108 -11310.3469 59.5391 604.2979 664.3952 28674.3784 604.2979 664.3952
ENERGY: 300000 0.1784 1.0251 1.2334 0.0000 -13853.4000 2311.5246 0.0000 0.0000 526.2774 -11013.1610 89.8812 -11539.4385 -11011.6591 89.8680 -556.9238 -510.9349 28879.1933 4.4753 4.4903
TCL: Running 100000 steps at 120 kelvin.
TCL: Setting parameter langevinTemp to 120
TCL: Running for 100000 steps
ETITLE: TS BOND ANGLE DIHED IMPRP ELECT VDW BOUNDARY MISC KINETIC TOTAL TEMP POTENTIAL TOTAL3 TEMPAVG PRESSURE GPRESSURE VOLUME PRESSAVG GPRESSAVG
ENERGY: 300000 0.1784 1.0251 1.2334 0.0000 -13853.4000 2311.5246 0.0000 0.0000 526.0035 -11013.4350 89.8344 -11539.4385 -11012.2409 89.8344 -556.3271 -510.7221 28879.1933 -556.3271 -510.7221
ENERGY: 400000 0.2612 0.9228 1.6092 0.0000 -13754.5660 2324.4966 0.0000 0.0000 692.7875 -10734.4887 118.3189 -11427.2762 -10732.8629 119.9343 -13.9799 10.6373 28687.8191 3.1889 3.0307
TCL: Running 100000 steps at 150 kelvin.
TCL: Setting parameter langevinTemp to 150
TCL: Running for 100000 steps
ETITLE: TS BOND ANGLE DIHED IMPRP ELECT VDW BOUNDARY MISC KINETIC TOTAL TEMP POTENTIAL TOTAL3 TEMPAVG PRESSURE GPRESSURE VOLUME PRESSAVG GPRESSAVG
ENERGY: 400000 0.2612 0.9228 1.6092 0.0000 -13754.5660 2324.4966 0.0000 0.0000 692.4327 -10734.8434 118.2583 -11427.2762 -10733.4542 118.2583 -39.0621 10.1804 28687.8191 -39.0621 10.1804
ENERGY: 500000 2.6393 1.4635 0.5745 0.0000 -13515.8426 2256.1256 0.0000 0.0000 893.3004 -10361.7393 152.5638 -11255.0397 -10360.0110 149.9921 -108.4478 -63.6879 28929.8189 4.4265 4.4010
TCL: Running 100000 steps at 180 kelvin.
TCL: Setting parameter langevinTemp to 180
TCL: Running for 100000 steps
ETITLE: TS BOND ANGLE DIHED IMPRP ELECT VDW BOUNDARY MISC KINETIC TOTAL TEMP POTENTIAL TOTAL3 TEMPAVG PRESSURE GPRESSURE VOLUME PRESSAVG GPRESSAVG
ENERGY: 500000 2.6393 1.4635 0.5745 0.0000 -13515.8426 2256.1256 0.0000 0.0000 892.8523 -10362.1874 152.4873 -11255.0397 -10360.4968 152.4873 -107.9986 -64.1900 28929.8189 -107.9986 -64.1900
ENERGY: 600000 0.7462 1.8549 0.3572 0.0000 -13012.1823 2067.1110 0.0000 0.0000 1044.5984 -9897.5145 178.4035 -10942.1130 -9893.7412 180.1929 -532.3149 -458.2943 29087.1568 4.8786 4.9243
TCL: Running 100000 steps at 210 kelvin.
TCL: Setting parameter langevinTemp to 210
TCL: Running for 100000 steps
ETITLE: TS BOND ANGLE DIHED IMPRP ELECT VDW BOUNDARY MISC KINETIC TOTAL TEMP POTENTIAL TOTAL3 TEMPAVG PRESSURE GPRESSURE VOLUME PRESSAVG GPRESSAVG
ENERGY: 600000 0.7462 1.8549 0.3572 0.0000 -13012.1823 2067.1110 0.0000 0.0000 1044.0816 -9898.0314 178.3152 -10942.1130 -9895.7534 178.3152 -521.3562 -457.4636 29087.1568 -521.3562 -457.4636
ENERGY: 700000 2.2026 1.8958 1.5434 0.0000 -12325.4086 1876.9502 0.0000 0.0000 1217.6809 -9225.1357 207.9637 -10442.8166 -9222.8515 210.0098 200.7957 239.0899 28647.9770 2.9649 2.8987
TCL: Running 100000 steps at 240 kelvin.
TCL: Setting parameter langevinTemp to 240
TCL: Running for 100000 steps
ETITLE: TS BOND ANGLE DIHED IMPRP ELECT VDW BOUNDARY MISC KINETIC TOTAL TEMP POTENTIAL TOTAL3 TEMPAVG PRESSURE GPRESSURE VOLUME PRESSAVG GPRESSAVG
ENERGY: 700000 2.2026 1.8958 1.5434 0.0000 -12325.4086 1876.9502 0.0000 0.0000 1217.0927 -9225.7239 207.8632 -10442.8166 -9223.8794 207.8632 147.8591 240.2370 28647.9770 147.8591 240.2370
ENERGY: 800000 1.9280 2.2355 0.7027 0.0000 -11698.6445 1651.9492 0.0000 0.0000 1366.0726 -8675.7565 233.3070 -10041.8291 -8673.1863 239.9451 -616.4862 -522.2838 29321.4357 3.7604 3.5958
TCL: Running 100000 steps at 270 kelvin.
TCL: Setting parameter langevinTemp to 270
TCL: Running for 100000 steps
ETITLE: TS BOND ANGLE DIHED IMPRP ELECT VDW BOUNDARY MISC KINETIC TOTAL TEMP POTENTIAL TOTAL3 TEMPAVG PRESSURE GPRESSURE VOLUME PRESSAVG GPRESSAVG
ENERGY: 800000 1.9280 2.2355 0.7027 0.0000 -11698.6445 1651.9492 0.0000 0.0000 1365.3208 -8676.5083 233.1786 -10041.8291 -8674.3634 233.1786 -600.2154 -522.0487 29321.4357 -600.2154 -522.0487
ENERGY: 900000 0.7149 1.0781 1.9315 0.0000 -11114.1751 1482.6427 0.0000 0.0000 1547.6574 -8080.1504 264.3192 -9627.8078 -8076.7060 270.4328 -580.5652 -515.8183 29492.4353 2.9623 3.0324
TCL: Running 1000000 steps at 300 kelvin.
TCL: Setting parameter langevinTemp to 300
TCL: Running for 1000000 steps
ETITLE: TS BOND ANGLE DIHED IMPRP ELECT VDW BOUNDARY MISC KINETIC TOTAL TEMP POTENTIAL TOTAL3 TEMPAVG PRESSURE GPRESSURE VOLUME PRESSAVG GPRESSAVG
ENERGY: 900000 0.7149 1.0781 1.9315 0.0000 -11114.1751 1482.6427 0.0000 0.0000 1546.8432 -8080.9646 264.1802 -9627.8078 -8078.0676 264.1802 -607.9871 -517.0258 29492.4353 -607.9871 -517.0258
ENERGY: 1100000 2.3654 2.6263 2.0373 0.0000 -10624.4553 1416.5748 0.0000 0.0000 1752.8650 -7447.9864 299.3660 -9200.8514 -7444.7244 300.8012 -152.4918 -20.9656 30568.1860 2.5593 2.5583
ENERGY: 1300000 5.3208 2.7975 2.5848 0.0000 -10637.5290 1488.4615 0.0000 0.0000 1705.3179 -7433.0465 291.2455 -9138.3644 -7430.8133 300.3068 454.5457 578.8148 30384.4881 3.7711 3.8172
ENERGY: 1500000 1.0973 1.6780 3.4183 0.0000 -10656.1730 1394.0505 0.0000 0.0000 1748.1008 -7507.8281 298.5523 -9255.9289 -7503.3451 300.1211 -283.1475 -263.0266 30344.9791 2.8209 2.8674
ENERGY: 1700000 2.6764 1.6080 5.1338 0.0000 -10671.3759 1395.7716 0.0000 0.0000 1723.2134 -7542.9728 294.3019 -9266.1862 -7539.1882 300.7333 -331.3186 -282.9659 30244.4809 2.8719 2.9025
ENERGY: 1900000 0.8368 5.9515 0.9784 0.0000 -10664.1079 1406.5165 0.0000 0.0000 1726.9392 -7522.8855 294.9382 -9249.8247 -7520.1333 300.2602 -341.9094 -252.5515 30075.0174 2.8853 2.7870
TCL: Exiting due to exit command.
