Info: SIMULATION PARAMETERS:
Info: TIMESTEP               2
Info: NUMBER OF STEPS        0
Info: STEPS PER CYCLE        10
Info: PERIODIC CELL BASIS 1  36.592 0 0
Info: PERIODIC CELL BASIS 2  0 35.267 0
Info: PERIODIC CELL BASIS 3  0 0 34.954
Info: PERIODIC CELL CENTER   0 0 0
Info: WRAPPING WATERS AROUND PERIODIC BOUNDARIES ON OUTPUT.
Info: WRAPPING ALL CLUSTERS AROUND PERIODIC BOUNDARIES ON OUTPUT.
Info: FIRST LDB TIMESTEP     50
Info: LAST LDB TIMESTEP     -1
Info: HOM BACKGROUND SCALING 1
Info: PME BACKGROUND SCALING 1
Info: MIN ATOMS PER PATCH    40
Info: EMPTY PATCH LOAD       40 ATOMS
Info: INITIAL TEMPERATURE    300
Info: CENTER OF MASS MOVING INITIALLY? NO
Info: DIELECTRIC             1
Info: EXCLUDE                SCALED ONE-FOUR
Info: 1-4 ELECTROSTATICS SCALED BY 0.833333
Info: MODIFIED 1-4 VDW PARAMETERS WILL BE USED
Info: DCD FILENAME           mobley_2316618_equil.dcd
Info: DCD FREQUENCY          100000
Info: DCD FIRST STEP         100000
Info: DCD FILE WILL CONTAIN UNIT CELL DATA
Info: XST FILENAME           mobley_2316618_equil.xst
Info: XST FREQUENCY          100000
Info: NO VELOCITY DCD OUTPUT
Info: NO FORCE DCD OUTPUT
Info: OUTPUT FILENAME        mobley_2316618_equil
Info: BINARY OUTPUT FILES WILL BE USED
Info: RESTART FILENAME       mobley_2316618_equil.restart
Info: RESTART FREQUENCY      100000
Info: BINARY RESTART FILES WILL BE USED
Info: CUTOFF                 9
Info: PAIRLIST DISTANCE      11
Info: PAIRLIST SHRINK RATE   0.01
Info: PAIRLIST GROW RATE     0.01
Info: PAIRLIST TRIGGER       0.3
Info: PAIRLISTS PER CYCLE    2
Info: PAIRLISTS ENABLED
Info: MARGIN                 8
Info: HYDROGEN GROUP CUTOFF  2.5
Info: PATCH DIMENSION        21.5
Info: ENERGY OUTPUT STEPS    100000
Info: ENERGY EVALUATION STEPS    100000
Info: OUTPUT ENERGY PRECISION 4
Info: CROSSTERM ENERGY INCLUDED IN DIHEDRAL
Info: TIMING OUTPUT STEPS    1000000
Info: PRESSURE OUTPUT STEPS  100000
Info: LANGEVIN DYNAMICS ACTIVE
Info: LANGEVIN TEMPERATURE   30
Info: LANGEVIN USING BBK INTEGRATOR
Info: LANGEVIN DAMPING COEFFICIENT IS 1 INVERSE PS
Info: LANGEVIN DYNAMICS APPLIED TO HYDROGENS
Info: LANGEVIN PISTON PRESSURE CONTROL ACTIVE
Info:        TARGET PRESSURE IS 1.01325 BAR
Info:     OSCILLATION PERIOD IS 50 FS
Info:             DECAY TIME IS 25 FS
Info:     PISTON TEMPERATURE IS 300 K
Info:       PRESSURE CONTROL IS GROUP-BASED
Info:    INITIAL STRAIN RATE IS 0 0 0
Info:       CELL FLUCTUATION IS ISOTROPIC
Info: PARTICLE MESH EWALD (PME) ACTIVE
Info: PME TOLERANCE               1e-06
Info: PME EWALD COEFFICIENT       0.348832
Info: PME INTERPOLATION ORDER     4
Info: PME GRID DIMENSIONS         40 36 36
Info: PME MAXIMUM GRID SPACING    1
Info: FULL ELECTROSTATIC EVALUATION FREQUENCY      2
Info: USING VERLET I (r-RESPA) MTS SCHEME.
Info: C1 SPLITTING OF LONG RANGE ELECTROSTATICS
Info: PLACING ATOMS IN PATCHES BY HYDROGEN GROUPS
Info: RIGID BONDS TO HYDROGEN : ALL
Info:         ERROR TOLERANCE : 1e-08
Info:          MAX ITERATIONS : 100
Info: RIGID WATER USING SETTLE ALGORITHM
Info: RANDOM NUMBER SEED     1743253190
Info: USE HYDROGEN BONDS?    NO
Info: Using AMBER format force field!
Info: AMBER PARM FILE        mobley_2316618.prmtop
Info: COORDINATE PDB         mobley_2316618.pdb
Info: Exclusions will be read from PARM file!
Info: SCNB (VDW SCALING)     2
Info: USING ARITHMETIC MEAN TO COMBINE L-J SIGMA PARAMETERS
Info: BINARY COORDINATES     mobley_2316618_min.coor
Info: SUMMARY OF PARAMETERS:
Info: 13 BONDS
Info: 16 ANGLES
Info:   16 HARMONIC
Info:   0 COSINE-BASED
Info: 11 DIHEDRAL
Info: 0 IMPROPER
Info: 0 CROSSTERM
Info: 0 VDW
Info: 55 VDW_PAIRS
Info: 0 NBTHOLE_PAIRS
Info: STRUCTURE SUMMARY:
Info: 2949 ATOMS
Info: 2951 BONDS
Info: 58 ANGLES
Info: 104 DIHEDRALS
Info: 0 IMPROPERS
Info: 0 CROSSTERMS
Info: 3086 EXCLUSIONS
Info: 2929 RIGID BONDS
Info: 5918 DEGREES OF FREEDOM
Info: 992 HYDROGEN GROUPS
Info: 3 ATOMS IN LARGEST HYDROGEN GROUP
Info: 992 MIGRATION GROUPS
Info: 3 ATOMS IN LARGEST MIGRATION GROUP
Info: TOTAL MASS = 17778.8 amu
Info: TOTAL CHARGE = -0.000299998 e
Info: MASS DENSITY = 0.654502 g/cm^3
Info: ATOM DENSITY = 0.0653767 atoms/A^3
Info: ADDED 0 IMPLICIT EXCLUSIONS
Info: NONBONDED TABLE R-SQUARED SPACING: 0.0625
Info: NONBONDED TABLE SIZE: 705 POINTS
Info: REMOVING COM VELOCITY 0.147572 -0.0301288 0.0580241
TCL: Running for 100000 steps
ETITLE: TS BOND ANGLE DIHED IMPRP ELECT VDW BOUNDARY MISC KINETIC TOTAL TEMP POTENTIAL TOTAL3 TEMPAVG PRESSURE GPRESSURE VOLUME PRESSAVG GPRESSAVG
ENERGY: 0 1.2860 1.9600 1.2385 0.0000 -13492.6146 2411.1405 0.0000 0.0000 1773.1600 -9303.8297 301.5528 -11076.9897 -9303.5263 301.5528 658.9796 698.6515 45107.7897 658.9796 698.6515
ENERGY: 100000 1.7497 2.9776 3.2114 0.0000 -14084.7396 2455.9704 0.0000 0.0000 176.3378 -11444.4927 29.9889 -11620.8306 -11443.9316 30.9324 -106.4474 -63.5874 29398.7685 5.0627 5.1372
TCL: Running 100000 steps at 60 kelvin.
TCL: Setting parameter langevinTemp to 60
TCL: Running for 100000 steps
ETITLE: TS BOND ANGLE DIHED IMPRP ELECT VDW BOUNDARY MISC KINETIC TOTAL TEMP POTENTIAL TOTAL3 TEMPAVG PRESSURE GPRESSURE VOLUME PRESSAVG GPRESSAVG
ENERGY: 100000 1.7497 2.9776 3.2114 0.0000 -14084.7396 2455.9704 0.0000 0.0000 176.2539 -11444.5767 29.9746 -11620.8306 -11444.1209 29.9746 -113.6063 -63.6393 29398.7685 -113.6063 -63.6393
ENERGY: 200000 3.3124 2.7978 3.9806 0.0000 -13992.7802 2399.5565 0.0000 0.0000 362.0449 -11221.0881 61.5712 -11583.1330 -11220.1367 60.0149 -514.5053 -463.5541 29373.6588 5.2128 5.0632
TCL: Running 100000 steps at 90 kelvin.
TCL: Setting parameter langevinTemp to 90
TCL: Running for 100000 steps
ETITLE: TS BOND ANGLE DIHED IMPRP ELECT VDW BOUNDARY MISC KINETIC TOTAL TEMP POTENTIAL TOTAL3 TEMPAVG PRESSURE GPRESSURE VOLUME PRESSAVG GPRESSAVG
ENERGY: 200000 3.3124 2.7978 3.9806 0.0000 -13992.7802 2399.5565 0.0000 0.0000 361.8703 -11221.2627 61.5415 -11583.1330 -11220.3745 61.5415 -523.3686 -463.7221 29373.6588 -523.3686 -463.7221
ENERGY: 300000 5.7221 5.0636 5.3580 0.0000 -13726.8478 2254.0331 0.0000 0.0000 522.0286 -10934.6424 88.7789 -11456.6710 -10933.3345 90.0652 -1081.4998 -1067.9925 29082.7177 6.0027 6.1472
TCL: Running 100000 steps at 120 kelvin.
TCL: Setting parameter langevinTemp to 120
TCL: Running for 100000 steps
ETITLE: TS BOND ANGLE DIHED IMPRP ELECT VDW BOUNDARY MISC KINETIC TOTAL TEMP POTENTIAL TOTAL3 TEMPAVG PRESSURE GPRESSURE VOLUME PRESSAVG GPRESSAVG
ENERGY: 300000 5.7221 5.0636 5.3580 0.0000 -13726.8478 2254.0331 0.0000 0.0000 521.7780 -10934.8930 88.7363 -11456.6710 -10933.6639 88.7363 -1116.3395 -1068.0561 29082.7177 -1116.3395 -1068.0561
ENERGY: 400000 4.7079 5.2175 6.6842 0.0000 -13800.3355 2406.5820 0.0000 0.0000 712.2386 -10664.9053 121.1270 -11377.1439 -10662.4957 120.0035 616.6051 703.0177 28701.9944 5.2074 5.3216
TCL: Running 100000 steps at 150 kelvin.
TCL: Setting parameter langevinTemp to 150
TCL: Running for 100000 steps
ETITLE: TS BOND ANGLE DIHED IMPRP ELECT VDW BOUNDARY MISC KINETIC TOTAL TEMP POTENTIAL TOTAL3 TEMPAVG PRESSURE GPRESSURE VOLUME PRESSAVG GPRESSAVG
ENERGY: 400000 4.7079 5.2175 6.6842 0.0000 -13800.3355 2406.5820 0.0000 0.0000 711.8849 -10665.2590 121.0668 -11377.1439 -10663.5784 121.0668 667.0914 703.8689 28701.9944 667.0914 703.8689
ENERGY: 500000 5.5415 5.7458 6.1425 0.0000 -13413.6067 2250.3470 0.0000 0.0000 869.4755 -10276.3543 147.8675 -11145.8299 -10274.4627 149.9148 131.9429 155.4386 28929.8182 6.1023 6.0809
TCL: Running 100000 steps at 180 kelvin.
TCL: Setting parameter langevinTemp to 180
TCL: Running for 100000 steps
ETITLE: TS BOND ANGLE DIHED IMPRP ELECT VDW BOUNDARY MISC KINETIC TOTAL TEMP POTENTIAL TOTAL3 TEMPAVG PRESSURE GPRESSURE VOLUME PRESSAVG GPRESSAVG
ENERGY: 500000 5.5415 5.7458 6.1425 0.0000 -13413.6067 2250.3470 0.0000 0.0000 869.0438 -10276.7861 147.7941 -11145.8299 -10275.2377 147.7941 98.1150 156.0336 28929.8182 98.1150 156.0336
ENERGY: 600000 8.8192 6.8512 4.8856 0.0000 -12955.0436 2036.6323 0.0000 0.0000 1034.6997 -9863.1556 175.9664 -10897.8553 -9861.4368 179.7605 -739.6514 -677.2170 28968.0996 3.7295 3.7020
TCL: Running 100000 steps at 210 kelvin.
TCL: Setting parameter langevinTemp to 210
TCL: Running for 100000 steps
ETITLE: TS BOND ANGLE DIHED IMPRP ELECT VDW BOUNDARY MISC KINETIC TOTAL TEMP POTENTIAL TOTAL3 TEMPAVG PRESSURE GPRESSURE VOLUME PRESSAVG GPRESSAVG
ENERGY: 600000 8.8192 6.8512 4.8856 0.0000 -12955.0436 2036.6323 0.0000 0.0000 1034.1818 -9863.6735 175.8783 -10897.8553 -9861.3731 175.8783 -745.4710 -677.6227 28968.0996 -745.4710 -677.6227
ENERGY: 700000 9.2585 11.0036 6.9945 0.0000 -12339.7872 1911.7495 0.0000 0.0000 1201.0939 -9199.6872 204.2643 -10400.7811 -9196.8462 209.6697 246.7857 283.0861 28645.2801 3.9494 3.9305
TCL: Running 100000 steps at 240 kelvin.
TCL: Setting parameter langevinTemp to 240
TCL: Running for 100000 steps
ETITLE: TS BOND ANGLE DIHED IMPRP ELECT VDW BOUNDARY MISC KINETIC TOTAL TEMP POTENTIAL TOTAL3 TEMPAVG PRESSURE GPRESSURE VOLUME PRESSAVG GPRESSAVG
ENERGY: 700000 9.2585 11.0036 6.9945 0.0000 -12339.7872 1911.7495 0.0000 0.0000 1200.4853 -9200.2958 204.1608 -10400.7811 -9198.1270 204.1608 210.8588 283.8223 28645.2801 210.8588 283.8223
ENERGY: 800000 5.8864 10.5868 10.3423 0.0000 -11562.5026 1619.9207 0.0000 0.0000 1384.7853 -8530.9812 235.5038 -9915.7665 -8527.6718 239.6686 -380.2055 -298.7638 29166.1384 3.3359 3.4152
TCL: Running 100000 steps at 270 kelvin.
TCL: Setting parameter langevinTemp to 270
TCL: Running for 100000 steps
ETITLE: TS BOND ANGLE DIHED IMPRP ELECT VDW BOUNDARY MISC KINETIC TOTAL TEMP POTENTIAL TOTAL3 TEMPAVG PRESSURE GPRESSURE VOLUME PRESSAVG GPRESSAVG
ENERGY: 800000 5.8864 10.5868 10.3423 0.0000 -11562.5026 1619.9207 0.0000 0.0000 1384.0749 -8531.6916 235.3830 -9915.7665 -8529.9198 235.3830 -372.1279 -298.8749 29166.1384 -372.1279 -298.8749
ENERGY: 900000 5.5185 6.9377 16.3989 0.0000 -11259.8981 1701.7964 0.0000 0.0000 1593.8304 -7935.4162 271.0551 -9529.2466 -7930.7722 270.1581 887.3393 958.0884 30018.2643 3.7237 3.7947
TCL: Running 1000000 steps at 300 kelvin.
TCL: Setting parameter langevinTemp to 300
TCL: Running for 1000000 steps
ETITLE: TS BOND ANGLE DIHED IMPRP ELECT VDW BOUNDARY MISC KINETIC TOTAL TEMP POTENTIAL TOTAL3 TEMPAVG PRESSURE GPRESSURE VOLUME PRESSAVG GPRESSAVG
ENERGY: 900000 5.5185 6.9377 16.3989 0.0000 -11259.8981 1701.7964 0.0000 0.0000 1593.0396 -7936.2070 270.9206 -9529.2466 -7933.1610 270.9206 893.1663 959.7776 30018.2643 893.1663 959.7776
ENERGY: 1100000 7.3704 13.7802 5.8616 0.0000 -10585.1792 1435.8823 0.0000 0.0000 1801.0547 -7321.2301 306.2967 -9122.2847 -7316.6973 300.2501 -19.1475 61.6423 30905.9427 2.8033 2.9128
ENERGY: 1300000 8.8726 10.4310 13.1856 0.0000 -10593.7951 1428.4028 0.0000 0.0000 1781.5210 -7351.3820 302.9747 -9132.9031 -7346.8184 300.3204 27.6542 72.7153 30095.8882 3.9350 3.6483
ENERGY: 1500000 11.8315 12.9540 10.5598 0.0000 -10679.2965 1446.0979 0.0000 0.0000 1749.8280 -7448.0253 297.5848 -9197.8533 -7444.9440 300.1797 13.6099 94.1873 30977.0769 3.4523 3.4716
ENERGY: 1700000 6.6084 12.5892 11.3742 0.0000 -10654.4219 1425.0718 0.0000 0.0000 1728.3210 -7470.4573 293.9272 -9198.7783 -7467.2153 300.0770 -305.8380 -203.0118 30489.8744 2.3837 2.3057
ENERGY: 1900000 4.6272 9.1848 8.6526 0.0000 -10678.9676 1445.8689 0.0000 0.0000 1783.8883 -7426.7458 303.3773 -9210.6341 -7423.3326 300.3758 236.4252 298.7860 29970.2963 2.6666 2.7553
TCL: Exiting due to exit command.
