Info: SIMULATION PARAMETERS:
Info: TIMESTEP               2
Info: NUMBER OF STEPS        0
Info: STEPS PER CYCLE        10
Info: PERIODIC CELL BASIS 1  36.592 0 0
Info: PERIODIC CELL BASIS 2  0 34.26 0
Info: PERIODIC CELL BASIS 3  0 0 35.723
Info: PERIODIC CELL CENTER   0 0 0
Info: WRAPPING WATERS AROUND PERIODIC BOUNDARIES ON OUTPUT.
Info: WRAPPING ALL CLUSTERS AROUND PERIODIC BOUNDARIES ON OUTPUT.
Info: FIRST LDB TIMESTEP     50
Info: LAST LDB TIMESTEP     -1
Info: HOM BACKGROUND SCALING 1
Info: PME BACKGROUND SCALING 1
Info: MIN ATOMS PER PATCH    40
Info: EMPTY PATCH LOAD       40 ATOMS
Info: INITIAL TEMPERATURE    300
Info: CENTER OF MASS MOVING INITIALLY? NO
Info: DIELECTRIC             1
Info: EXCLUDE                SCALED ONE-FOUR
Info: 1-4 ELECTROSTATICS SCALED BY 0.833333
Info: MODIFIED 1-4 VDW PARAMETERS WILL BE USED
Info: DCD FILENAME           mobley_4620651_equil.dcd
Info: DCD FREQUENCY          100000
Info: DCD FIRST STEP         100000
Info: DCD FILE WILL CONTAIN UNIT CELL DATA
Info: XST FILENAME           mobley_4620651_equil.xst
Info: XST FREQUENCY          100000
Info: NO VELOCITY DCD OUTPUT
Info: NO FORCE DCD OUTPUT
Info: OUTPUT FILENAME        mobley_4620651_equil
Info: BINARY OUTPUT FILES WILL BE USED
Info: RESTART FILENAME       mobley_4620651_equil.restart
Info: RESTART FREQUENCY      100000
Info: BINARY RESTART FILES WILL BE USED
Info: CUTOFF                 9
Info: PAIRLIST DISTANCE      11
Info: PAIRLIST SHRINK RATE   0.01
Info: PAIRLIST GROW RATE     0.01
Info: PAIRLIST TRIGGER       0.3
Info: PAIRLISTS PER CYCLE    2
Info: PAIRLISTS ENABLED
Info: MARGIN                 8
Info: HYDROGEN GROUP CUTOFF  2.5
Info: PATCH DIMENSION        21.5
Info: ENERGY OUTPUT STEPS    100000
Info: ENERGY EVALUATION STEPS    100000
Info: OUTPUT ENERGY PRECISION 4
Info: CROSSTERM ENERGY INCLUDED IN DIHEDRAL
Info: TIMING OUTPUT STEPS    1000000
Info: PRESSURE OUTPUT STEPS  100000
Info: LANGEVIN DYNAMICS ACTIVE
Info: LANGEVIN TEMPERATURE   30
Info: LANGEVIN USING BBK INTEGRATOR
Info: LANGEVIN DAMPING COEFFICIENT IS 1 INVERSE PS
Info: LANGEVIN DYNAMICS APPLIED TO HYDROGENS
Info: LANGEVIN PISTON PRESSURE CONTROL ACTIVE
Info:        TARGET PRESSURE IS 1.01325 BAR
Info:     OSCILLATION PERIOD IS 50 FS
Info:             DECAY TIME IS 25 FS
Info:     PISTON TEMPERATURE IS 300 K
Info:       PRESSURE CONTROL IS GROUP-BASED
Info:    INITIAL STRAIN RATE IS 0 0 0
Info:       CELL FLUCTUATION IS ISOTROPIC
Info: PARTICLE MESH EWALD (PME) ACTIVE
Info: PME TOLERANCE               1e-06
Info: PME EWALD COEFFICIENT       0.348832
Info: PME INTERPOLATION ORDER     4
Info: PME GRID DIMENSIONS         40 36 36
Info: PME MAXIMUM GRID SPACING    1
Info: FULL ELECTROSTATIC EVALUATION FREQUENCY      2
Info: USING VERLET I (r-RESPA) MTS SCHEME.
Info: C1 SPLITTING OF LONG RANGE ELECTROSTATICS
Info: PLACING ATOMS IN PATCHES BY HYDROGEN GROUPS
Info: RIGID BONDS TO HYDROGEN : ALL
Info:         ERROR TOLERANCE : 1e-08
Info:          MAX ITERATIONS : 100
Info: RIGID WATER USING SETTLE ALGORITHM
Info: RANDOM NUMBER SEED     1743229925
Info: USE HYDROGEN BONDS?    NO
Info: Using AMBER format force field!
Info: AMBER PARM FILE        mobley_4620651.prmtop
Info: COORDINATE PDB         mobley_4620651.pdb
Info: Exclusions will be read from PARM file!
Info: SCNB (VDW SCALING)     2
Info: USING ARITHMETIC MEAN TO COMBINE L-J SIGMA PARAMETERS
Info: BINARY COORDINATES     mobley_4620651_min.coor
Info: SUMMARY OF PARAMETERS:
Info: 9 BONDS
Info: 11 ANGLES
Info:   11 HARMONIC
Info:   0 COSINE-BASED
Info: 6 DIHEDRAL
Info: 0 IMPROPER
Info: 0 CROSSTERM
Info: 0 VDW
Info: 36 VDW_PAIRS
Info: 0 NBTHOLE_PAIRS
Info: STRUCTURE SUMMARY:
Info: 2970 ATOMS
Info: 2970 BONDS
Info: 28 ANGLES
Info: 37 DIHEDRALS
Info: 0 IMPROPERS
Info: 0 CROSSTERMS
Info: 3018 EXCLUSIONS
Info: 2963 RIGID BONDS
Info: 5947 DEGREES OF FREEDOM
Info: 992 HYDROGEN GROUPS
Info: 4 ATOMS IN LARGEST HYDROGEN GROUP
Info: 992 MIGRATION GROUPS
Info: 4 ATOMS IN LARGEST MIGRATION GROUP
Info: TOTAL MASS = 17845.9 amu
Info: TOTAL CHARGE = 9.9916e-05 e
Info: MASS DENSITY = 0.661722 g/cm^3
Info: ATOM DENSITY = 0.0663185 atoms/A^3
Info: ADDED 0 IMPLICIT EXCLUSIONS
Info: NONBONDED TABLE R-SQUARED SPACING: 0.0625
Info: NONBONDED TABLE SIZE: 705 POINTS
Info: REMOVING COM VELOCITY -0.151174 0.109109 -0.0422125
TCL: Running for 100000 steps
ETITLE: TS BOND ANGLE DIHED IMPRP ELECT VDW BOUNDARY MISC KINETIC TOTAL TEMP POTENTIAL TOTAL3 TEMPAVG PRESSURE GPRESSURE VOLUME PRESSAVG GPRESSAVG
ENERGY: 0 0.0959 0.2241 6.6615 0.0000 -13689.5867 2370.3490 0.0000 0.0000 1716.8820 -9595.3742 290.5580 -11312.2562 -9595.0719 290.5580 185.8968 212.4444 44783.8503 185.8968 212.4444
ENERGY: 100000 0.1723 1.1492 6.6529 0.0000 -14439.0271 2673.9344 0.0000 0.0000 188.8204 -11568.2980 31.9552 -11757.1183 -11567.8863 30.9209 1760.3545 1821.5415 29426.8555 4.2863 4.3466
TCL: Running 100000 steps at 60 kelvin.
TCL: Setting parameter langevinTemp to 60
TCL: Running for 100000 steps
ETITLE: TS BOND ANGLE DIHED IMPRP ELECT VDW BOUNDARY MISC KINETIC TOTAL TEMP POTENTIAL TOTAL3 TEMPAVG PRESSURE GPRESSURE VOLUME PRESSAVG GPRESSAVG
ENERGY: 100000 0.1723 1.1492 6.6529 0.0000 -14439.0271 2673.9344 0.0000 0.0000 188.7330 -11568.3854 31.9404 -11757.1183 -11568.0627 31.9404 1759.0643 1821.6266 29426.8555 1759.0643 1821.6266
ENERGY: 200000 0.7209 2.8506 6.4156 0.0000 -14139.1892 2380.2184 0.0000 0.0000 354.7356 -11394.2481 60.0340 -11748.9837 -11393.6373 60.0435 -579.4471 -510.9456 29055.4410 3.4067 3.4474
TCL: Running 100000 steps at 90 kelvin.
TCL: Setting parameter langevinTemp to 90
TCL: Running for 100000 steps
ETITLE: TS BOND ANGLE DIHED IMPRP ELECT VDW BOUNDARY MISC KINETIC TOTAL TEMP POTENTIAL TOTAL3 TEMPAVG PRESSURE GPRESSURE VOLUME PRESSAVG GPRESSAVG
ENERGY: 200000 0.7209 2.8506 6.4156 0.0000 -14139.1892 2380.2184 0.0000 0.0000 354.5491 -11394.4345 60.0024 -11748.9837 -11393.5835 60.0024 -564.5543 -511.4604 29055.4410 -564.5543 -511.4604
ENERGY: 300000 0.8865 1.5876 6.5171 0.0000 -13847.3966 2196.7237 0.0000 0.0000 538.3092 -11103.3725 91.1012 -11641.6817 -11101.7001 90.0322 -1598.5460 -1527.3921 29112.4136 3.6332 3.5275
TCL: Running 100000 steps at 120 kelvin.
TCL: Setting parameter langevinTemp to 120
TCL: Running for 100000 steps
ETITLE: TS BOND ANGLE DIHED IMPRP ELECT VDW BOUNDARY MISC KINETIC TOTAL TEMP POTENTIAL TOTAL3 TEMPAVG PRESSURE GPRESSURE VOLUME PRESSAVG GPRESSAVG
ENERGY: 300000 0.8865 1.5876 6.5171 0.0000 -13847.3966 2196.7237 0.0000 0.0000 538.0544 -11103.6273 91.0581 -11641.6817 -11102.3758 91.0581 -1588.0106 -1527.5056 29112.4136 -1588.0106 -1527.5056
ENERGY: 400000 1.6286 3.0453 6.6201 0.0000 -13854.5352 2354.7216 0.0000 0.0000 718.7313 -10769.7884 121.6351 -11488.5196 -10768.5697 120.0238 369.0066 412.3728 28662.7665 4.2699 4.3010
TCL: Running 100000 steps at 150 kelvin.
TCL: Setting parameter langevinTemp to 150
TCL: Running for 100000 steps
ETITLE: TS BOND ANGLE DIHED IMPRP ELECT VDW BOUNDARY MISC KINETIC TOTAL TEMP POTENTIAL TOTAL3 TEMPAVG PRESSURE GPRESSURE VOLUME PRESSAVG GPRESSAVG
ENERGY: 400000 1.6286 3.0453 6.6201 0.0000 -13854.5352 2354.7216 0.0000 0.0000 718.3710 -10770.1487 121.5741 -11488.5196 -10768.8803 121.5741 351.7606 412.0851 28662.7665 351.7606 412.0851
ENERGY: 500000 1.2926 3.7707 7.0566 0.0000 -13715.7244 2374.3936 0.0000 0.0000 920.0256 -10409.1853 155.7013 -11329.2109 -10406.2779 150.2799 1156.6958 1220.0680 28518.3790 4.3331 4.4218
TCL: Running 100000 steps at 180 kelvin.
TCL: Setting parameter langevinTemp to 180
TCL: Running for 100000 steps
ETITLE: TS BOND ANGLE DIHED IMPRP ELECT VDW BOUNDARY MISC KINETIC TOTAL TEMP POTENTIAL TOTAL3 TEMPAVG PRESSURE GPRESSURE VOLUME PRESSAVG GPRESSAVG
ENERGY: 500000 1.2926 3.7707 7.0566 0.0000 -13715.7244 2374.3936 0.0000 0.0000 919.5776 -10409.6333 155.6255 -11329.2109 -10408.0133 155.6255 1153.0299 1220.5589 28518.3790 1153.0299 1220.5589
ENERGY: 600000 1.6709 3.0758 7.7634 0.0000 -13252.5904 2232.6247 0.0000 0.0000 1042.9174 -9964.5382 176.4990 -11007.4556 -9961.8624 179.7666 824.0788 929.9440 28960.9173 2.2223 2.2497
TCL: Running 100000 steps at 210 kelvin.
TCL: Setting parameter langevinTemp to 210
TCL: Running for 100000 steps
ETITLE: TS BOND ANGLE DIHED IMPRP ELECT VDW BOUNDARY MISC KINETIC TOTAL TEMP POTENTIAL TOTAL3 TEMPAVG PRESSURE GPRESSURE VOLUME PRESSAVG GPRESSAVG
ENERGY: 600000 1.6709 3.0758 7.7634 0.0000 -13252.5904 2232.6247 0.0000 0.0000 1042.4119 -9965.0436 176.4135 -11007.4556 -9963.4789 176.4135 876.2816 928.9930 28960.9173 876.2816 928.9930
ENERGY: 700000 2.2677 4.2670 6.3293 0.0000 -12569.1315 1924.1345 0.0000 0.0000 1243.3250 -9388.8080 210.4152 -10632.1330 -9386.7439 209.7339 187.7781 224.7625 28585.4395 4.8269 4.6922
TCL: Running 100000 steps at 240 kelvin.
TCL: Setting parameter langevinTemp to 240
TCL: Running for 100000 steps
ETITLE: TS BOND ANGLE DIHED IMPRP ELECT VDW BOUNDARY MISC KINETIC TOTAL TEMP POTENTIAL TOTAL3 TEMPAVG PRESSURE GPRESSURE VOLUME PRESSAVG GPRESSAVG
ENERGY: 700000 2.2677 4.2670 6.3293 0.0000 -12569.1315 1924.1345 0.0000 0.0000 1242.7048 -9389.4282 210.3102 -10632.1330 -9386.9017 210.3102 147.6213 225.4739 28585.4395 147.6213 225.4739
ENERGY: 800000 3.6132 4.5245 7.1620 0.0000 -11842.4517 1666.8414 0.0000 0.0000 1397.3835 -8762.9270 236.4874 -10160.3105 -8758.8573 239.8870 -489.8263 -412.4964 29034.4675 4.2859 4.1522
TCL: Running 100000 steps at 270 kelvin.
TCL: Setting parameter langevinTemp to 270
TCL: Running for 100000 steps
ETITLE: TS BOND ANGLE DIHED IMPRP ELECT VDW BOUNDARY MISC KINETIC TOTAL TEMP POTENTIAL TOTAL3 TEMPAVG PRESSURE GPRESSURE VOLUME PRESSAVG GPRESSAVG
ENERGY: 800000 3.6132 4.5245 7.1620 0.0000 -11842.4517 1666.8414 0.0000 0.0000 1396.6733 -8763.6372 236.3672 -10160.3105 -8761.4014 236.3672 -498.9144 -413.2458 29034.4675 -498.9144 -413.2458
ENERGY: 900000 1.3161 3.6639 8.2740 0.0000 -11361.3908 1616.7831 0.0000 0.0000 1614.0546 -8117.2990 273.1560 -9731.3536 -8115.0105 270.1665 273.8069 323.6383 29724.2108 2.9434 2.9509
TCL: Running 1000000 steps at 300 kelvin.
TCL: Setting parameter langevinTemp to 300
TCL: Running for 1000000 steps
ETITLE: TS BOND ANGLE DIHED IMPRP ELECT VDW BOUNDARY MISC KINETIC TOTAL TEMP POTENTIAL TOTAL3 TEMPAVG PRESSURE GPRESSURE VOLUME PRESSAVG GPRESSAVG
ENERGY: 900000 1.3161 3.6639 8.2740 0.0000 -11361.3908 1616.7831 0.0000 0.0000 1613.2655 -8118.0881 273.0224 -9731.3536 -8115.5182 273.0224 233.9227 321.0075 29724.2108 233.9227 321.0075
ENERGY: 1100000 2.9275 5.7000 6.5592 0.0000 -10787.1990 1454.4902 0.0000 0.0000 1725.1016 -7592.4205 291.9491 -9317.5222 -7587.3808 300.3936 86.8104 213.5070 30321.2441 1.7144 1.8303
ENERGY: 1300000 1.2184 6.1047 6.7797 0.0000 -10752.8504 1432.7297 0.0000 0.0000 1767.9205 -7538.0973 299.1956 -9306.0179 -7533.3075 299.1791 -23.7789 90.9954 30435.1003 3.2808 3.0979
ENERGY: 1500000 1.3182 4.5558 6.9298 0.0000 -10703.6780 1395.9220 0.0000 0.0000 1817.7214 -7477.2307 307.6237 -9294.9521 -7471.2041 299.7689 -568.0049 -451.3621 31170.2243 2.4691 2.3809
ENERGY: 1700000 0.6571 9.7493 7.1690 0.0000 -10795.4542 1518.5573 0.0000 0.0000 1730.2314 -7529.0902 292.8172 -9259.3216 -7524.1637 299.9797 777.6529 874.2009 30391.6666 3.2090 3.3302
ENERGY: 1900000 3.8582 11.9528 8.0067 0.0000 -10625.0213 1390.7409 0.0000 0.0000 1799.4946 -7410.9681 304.5391 -9210.4627 -7408.0290 300.1378 -184.4302 -156.9989 30860.1446 2.6617 2.4114
TCL: Exiting due to exit command.
