Info: SIMULATION PARAMETERS:
Info: TIMESTEP               2
Info: NUMBER OF STEPS        0
Info: STEPS PER CYCLE        10
Info: PERIODIC CELL BASIS 1  35.89 0 0
Info: PERIODIC CELL BASIS 2  0 34.26 0
Info: PERIODIC CELL BASIS 3  0 0 35.897
Info: PERIODIC CELL CENTER   0 0 0
Info: WRAPPING WATERS AROUND PERIODIC BOUNDARIES ON OUTPUT.
Info: WRAPPING ALL CLUSTERS AROUND PERIODIC BOUNDARIES ON OUTPUT.
Info: FIRST LDB TIMESTEP     50
Info: LAST LDB TIMESTEP     -1
Info: HOM BACKGROUND SCALING 1
Info: PME BACKGROUND SCALING 1
Info: MIN ATOMS PER PATCH    40
Info: EMPTY PATCH LOAD       40 ATOMS
Info: INITIAL TEMPERATURE    300
Info: CENTER OF MASS MOVING INITIALLY? NO
Info: DIELECTRIC             1
Info: EXCLUDE                SCALED ONE-FOUR
Info: 1-4 ELECTROSTATICS SCALED BY 0.833333
Info: MODIFIED 1-4 VDW PARAMETERS WILL BE USED
Info: DCD FILENAME           mobley_63712_equil.dcd
Info: DCD FREQUENCY          100000
Info: DCD FIRST STEP         100000
Info: DCD FILE WILL CONTAIN UNIT CELL DATA
Info: XST FILENAME           mobley_63712_equil.xst
Info: XST FREQUENCY          100000
Info: NO VELOCITY DCD OUTPUT
Info: NO FORCE DCD OUTPUT
Info: OUTPUT FILENAME        mobley_63712_equil
Info: BINARY OUTPUT FILES WILL BE USED
Info: RESTART FILENAME       mobley_63712_equil.restart
Info: RESTART FREQUENCY      100000
Info: BINARY RESTART FILES WILL BE USED
Info: CUTOFF                 9
Info: PAIRLIST DISTANCE      11
Info: PAIRLIST SHRINK RATE   0.01
Info: PAIRLIST GROW RATE     0.01
Info: PAIRLIST TRIGGER       0.3
Info: PAIRLISTS PER CYCLE    2
Info: PAIRLISTS ENABLED
Info: MARGIN                 8
Info: HYDROGEN GROUP CUTOFF  2.5
Info: PATCH DIMENSION        21.5
Info: ENERGY OUTPUT STEPS    100000
Info: ENERGY EVALUATION STEPS    100000
Info: OUTPUT ENERGY PRECISION 4
Info: CROSSTERM ENERGY INCLUDED IN DIHEDRAL
Info: TIMING OUTPUT STEPS    1000000
Info: PRESSURE OUTPUT STEPS  100000
Info: LANGEVIN DYNAMICS ACTIVE
Info: LANGEVIN TEMPERATURE   30
Info: LANGEVIN USING BBK INTEGRATOR
Info: LANGEVIN DAMPING COEFFICIENT IS 1 INVERSE PS
Info: LANGEVIN DYNAMICS APPLIED TO HYDROGENS
Info: LANGEVIN PISTON PRESSURE CONTROL ACTIVE
Info:        TARGET PRESSURE IS 1.01325 BAR
Info:     OSCILLATION PERIOD IS 50 FS
Info:             DECAY TIME IS 25 FS
Info:     PISTON TEMPERATURE IS 300 K
Info:       PRESSURE CONTROL IS GROUP-BASED
Info:    INITIAL STRAIN RATE IS 0 0 0
Info:       CELL FLUCTUATION IS ISOTROPIC
Info: PARTICLE MESH EWALD (PME) ACTIVE
Info: PME TOLERANCE               1e-06
Info: PME EWALD COEFFICIENT       0.348832
Info: PME INTERPOLATION ORDER     4
Info: PME GRID DIMENSIONS         36 36 36
Info: PME MAXIMUM GRID SPACING    1
Info: FULL ELECTROSTATIC EVALUATION FREQUENCY      2
Info: USING VERLET I (r-RESPA) MTS SCHEME.
Info: C1 SPLITTING OF LONG RANGE ELECTROSTATICS
Info: PLACING ATOMS IN PATCHES BY HYDROGEN GROUPS
Info: RIGID BONDS TO HYDROGEN : ALL
Info:         ERROR TOLERANCE : 1e-08
Info:          MAX ITERATIONS : 100
Info: RIGID WATER USING SETTLE ALGORITHM
Info: RANDOM NUMBER SEED     1743217984
Info: USE HYDROGEN BONDS?    NO
Info: Using AMBER format force field!
Info: AMBER PARM FILE        mobley_63712.prmtop
Info: COORDINATE PDB         mobley_63712.pdb
Info: Exclusions will be read from PARM file!
Info: SCNB (VDW SCALING)     2
Info: USING ARITHMETIC MEAN TO COMBINE L-J SIGMA PARAMETERS
Info: BINARY COORDINATES     mobley_63712_min.coor
Info: SUMMARY OF PARAMETERS:
Info: 6 BONDS
Info: 8 ANGLES
Info: 8 DIHEDRAL
Info: 0 IMPROPER
Info: 0 CROSSTERM
Info: 0 VDW
Info: 21 VDW_PAIRS
Info: 0 NBTHOLE_PAIRS
Info: STRUCTURE SUMMARY:
Info: 2954 ATOMS
Info: 2954 BONDS
Info: 39 ANGLES
Info: 62 DIHEDRALS
Info: 0 IMPROPERS
Info: 0 CROSSTERMS
Info: 3044 EXCLUSIONS
Info: 2947 RIGID BONDS
Info: 5915 DEGREES OF FREEDOM
Info: 985 HYDROGEN GROUPS
Info: 4 ATOMS IN LARGEST HYDROGEN GROUP
Info: 985 MIGRATION GROUPS
Info: 4 ATOMS IN LARGEST MIGRATION GROUP
Info: TOTAL MASS = 17718.8 amu
Info: TOTAL CHARGE = -1.11759e-08 e
Info: MASS DENSITY = 0.666615 g/cm^3
Info: ATOM DENSITY = 0.0669255 atoms/A^3
Info: ADDED 0 IMPLICIT EXCLUSIONS
Info: NONBONDED TABLE R-SQUARED SPACING: 0.0625
Info: NONBONDED TABLE SIZE: 705 POINTS
Info: REMOVING COM VELOCITY 0.0285146 -0.171926 0.0451195
TCL: Running for 100000 steps
ETITLE: TS BOND ANGLE DIHED IMPRP ELECT VDW BOUNDARY MISC KINETIC TOTAL TEMP POTENTIAL TOTAL3 TEMPAVG PRESSURE GPRESSURE VOLUME PRESSAVG GPRESSAVG
ENERGY: 0 0.2941 0.2154 2.5412 0.0000 -13663.0349 2409.3571 0.0000 0.0000 1737.2467 -9513.3805 295.5950 -11250.6271 -9513.0275 295.5950 290.6466 320.9678 44138.6425 290.6466 320.9678
ENERGY: 100000 0.4849 1.0370 2.5065 0.0000 -14301.4508 2544.7621 0.0000 0.0000 176.1563 -11576.5040 29.9733 -11752.6603 -11576.1143 30.9009 667.9076 733.2547 28552.0878 3.2465 3.2657
TCL: Running 100000 steps at 60 kelvin.
TCL: Setting parameter langevinTemp to 60
TCL: Running for 100000 steps
ETITLE: TS BOND ANGLE DIHED IMPRP ELECT VDW BOUNDARY MISC KINETIC TOTAL TEMP POTENTIAL TOTAL3 TEMPAVG PRESSURE GPRESSURE VOLUME PRESSAVG GPRESSAVG
ENERGY: 100000 0.4849 1.0370 2.5065 0.0000 -14301.4508 2544.7621 0.0000 0.0000 176.0699 -11576.5904 29.9586 -11752.6603 -11576.2708 29.9586 679.5796 733.2911 28552.0878 679.5796 733.2911
ENERGY: 200000 0.5497 1.4949 2.7456 0.0000 -14089.9867 2429.7273 0.0000 0.0000 348.8095 -11306.6598 59.3504 -11655.4692 -11305.4166 59.9038 104.9740 156.6798 28643.6698 3.5472 3.5176
TCL: Running 100000 steps at 90 kelvin.
TCL: Setting parameter langevinTemp to 90
TCL: Running for 100000 steps
ETITLE: TS BOND ANGLE DIHED IMPRP ELECT VDW BOUNDARY MISC KINETIC TOTAL TEMP POTENTIAL TOTAL3 TEMPAVG PRESSURE GPRESSURE VOLUME PRESSAVG GPRESSAVG
ENERGY: 200000 0.5497 1.4949 2.7456 0.0000 -14089.9867 2429.7273 0.0000 0.0000 348.6276 -11306.8416 59.3195 -11655.4692 -11306.0432 59.3195 105.0787 156.7928 28643.6698 105.0787 156.7928
ENERGY: 300000 0.8589 2.4796 2.6490 0.0000 -14140.7091 2530.9480 0.0000 0.0000 533.4827 -11070.2909 90.7728 -11603.7736 -11069.0476 89.9958 978.1490 1027.4804 28566.9163 3.5452 3.6221
TCL: Running 100000 steps at 120 kelvin.
TCL: Setting parameter langevinTemp to 120
TCL: Running for 100000 steps
ETITLE: TS BOND ANGLE DIHED IMPRP ELECT VDW BOUNDARY MISC KINETIC TOTAL TEMP POTENTIAL TOTAL3 TEMPAVG PRESSURE GPRESSURE VOLUME PRESSAVG GPRESSAVG
ENERGY: 300000 0.8589 2.4796 2.6490 0.0000 -14140.7091 2530.9480 0.0000 0.0000 533.2208 -11070.5528 90.7283 -11603.7736 -11069.5062 90.7283 982.3680 1027.5925 28566.9163 982.3680 1027.5925
ENERGY: 400000 1.9173 3.7916 2.9822 0.0000 -13690.5682 2258.7499 0.0000 0.0000 715.6515 -10707.4757 121.7691 -11423.1272 -10705.9171 120.0230 -639.6060 -566.3506 28824.4568 3.4470 3.4477
TCL: Running 100000 steps at 150 kelvin.
TCL: Setting parameter langevinTemp to 150
TCL: Running for 100000 steps
ETITLE: TS BOND ANGLE DIHED IMPRP ELECT VDW BOUNDARY MISC KINETIC TOTAL TEMP POTENTIAL TOTAL3 TEMPAVG PRESSURE GPRESSURE VOLUME PRESSAVG GPRESSAVG
ENERGY: 400000 1.9173 3.7916 2.9822 0.0000 -13690.5682 2258.7499 0.0000 0.0000 715.3113 -10707.8159 121.7113 -11423.1272 -10706.6004 121.7113 -619.1668 -566.8315 28824.4568 -619.1668 -566.8315
ENERGY: 500000 1.4942 3.8556 3.1031 0.0000 -13537.6434 2252.5088 0.0000 0.0000 879.2005 -10397.4812 149.5972 -11276.6817 -10395.7699 150.0636 -120.4090 -77.5245 28902.3485 2.9160 2.9634
TCL: Running 100000 steps at 180 kelvin.
TCL: Setting parameter langevinTemp to 180
TCL: Running for 100000 steps
ETITLE: TS BOND ANGLE DIHED IMPRP ELECT VDW BOUNDARY MISC KINETIC TOTAL TEMP POTENTIAL TOTAL3 TEMPAVG PRESSURE GPRESSURE VOLUME PRESSAVG GPRESSAVG
ENERGY: 500000 1.4942 3.8556 3.1031 0.0000 -13537.6434 2252.5088 0.0000 0.0000 878.7454 -10397.9363 149.5198 -11276.6817 -10395.6193 149.5198 -135.3619 -78.6235 28902.3485 -135.3619 -78.6235
ENERGY: 600000 1.8636 5.6383 3.2252 0.0000 -12948.4240 1997.1384 0.0000 0.0000 1082.8226 -9857.7359 184.2438 -10940.5585 -9854.4107 180.0800 -997.4513 -962.6515 29143.3843 2.2766 2.3275
TCL: Running 100000 steps at 210 kelvin.
TCL: Setting parameter langevinTemp to 210
TCL: Running for 100000 steps
ETITLE: TS BOND ANGLE DIHED IMPRP ELECT VDW BOUNDARY MISC KINETIC TOTAL TEMP POTENTIAL TOTAL3 TEMPAVG PRESSURE GPRESSURE VOLUME PRESSAVG GPRESSAVG
ENERGY: 600000 1.8636 5.6383 3.2252 0.0000 -12948.4240 1997.1384 0.0000 0.0000 1082.2835 -9858.2749 184.1521 -10940.5585 -9855.8183 184.1521 -1026.8118 -960.4468 29143.3843 -1026.8118 -960.4468
ENERGY: 700000 0.5688 6.5893 3.0855 0.0000 -12324.7008 1873.1342 0.0000 0.0000 1218.6146 -9222.7083 207.3490 -10441.3230 -9221.3224 209.3029 -77.0341 -4.8158 28979.7907 3.3393 3.4716
TCL: Running 100000 steps at 240 kelvin.
TCL: Setting parameter langevinTemp to 240
TCL: Running for 100000 steps
ETITLE: TS BOND ANGLE DIHED IMPRP ELECT VDW BOUNDARY MISC KINETIC TOTAL TEMP POTENTIAL TOTAL3 TEMPAVG PRESSURE GPRESSURE VOLUME PRESSAVG GPRESSAVG
ENERGY: 700000 0.5688 6.5893 3.0855 0.0000 -12324.7008 1873.1342 0.0000 0.0000 1217.9657 -9223.3573 207.2386 -10441.3230 -9221.0042 207.2386 -84.8805 -4.0093 28979.7907 -84.8805 -4.0093
ENERGY: 800000 2.0210 5.7691 3.2894 0.0000 -11889.6936 1728.3014 0.0000 0.0000 1413.6812 -8736.6315 240.5399 -10150.3127 -8732.2297 239.8717 -166.7851 -142.3569 28976.9955 3.6656 3.7354
TCL: Running 100000 steps at 270 kelvin.
TCL: Setting parameter langevinTemp to 270
TCL: Running for 100000 steps
ETITLE: TS BOND ANGLE DIHED IMPRP ELECT VDW BOUNDARY MISC KINETIC TOTAL TEMP POTENTIAL TOTAL3 TEMPAVG PRESSURE GPRESSURE VOLUME PRESSAVG GPRESSAVG
ENERGY: 800000 2.0210 5.7691 3.2894 0.0000 -11889.6936 1728.3014 0.0000 0.0000 1412.9690 -8737.3438 240.4187 -10150.3127 -8734.6922 240.4187 -222.0226 -141.6051 28976.9955 -222.0226 -141.6051
ENERGY: 900000 1.7922 6.0701 3.1288 0.0000 -11198.0820 1589.3764 0.0000 0.0000 1598.4047 -7999.3098 271.9709 -9597.7145 -7995.8375 269.4790 229.6551 324.6151 29627.8851 2.9832 2.9629
TCL: Running 1000000 steps at 300 kelvin.
TCL: Setting parameter langevinTemp to 300
TCL: Running for 1000000 steps
ETITLE: TS BOND ANGLE DIHED IMPRP ELECT VDW BOUNDARY MISC KINETIC TOTAL TEMP POTENTIAL TOTAL3 TEMPAVG PRESSURE GPRESSURE VOLUME PRESSAVG GPRESSAVG
ENERGY: 900000 1.7922 6.0701 3.1288 0.0000 -11198.0820 1589.3764 0.0000 0.0000 1597.5994 -8000.1151 271.8338 -9597.7145 -7997.6594 271.8338 244.0509 325.2011 29627.8851 244.0509 325.2011
ENERGY: 1100000 1.7819 8.4610 2.6266 0.0000 -10691.7905 1446.2626 0.0000 0.0000 1755.5242 -7477.1342 298.7050 -9232.6584 -7472.2474 300.4138 -175.3500 -82.1739 30596.4537 4.7788 4.7293
ENERGY: 1300000 2.6377 10.4166 3.3910 0.0000 -10576.4535 1391.1318 0.0000 0.0000 1776.0081 -7392.8682 302.1903 -9168.8764 -7390.2994 301.5848 -326.6792 -244.3268 30514.6125 3.1243 3.0354
ENERGY: 1500000 0.9157 9.4169 3.2973 0.0000 -10590.1679 1337.3617 0.0000 0.0000 1745.2263 -7493.9500 296.9528 -9239.1762 -7490.2564 299.9846 -839.9404 -712.9284 30532.4925 2.4257 2.2886
ENERGY: 1700000 4.7844 6.7529 3.6714 0.0000 -10738.1540 1436.1184 0.0000 0.0000 1786.1742 -7500.6528 303.9201 -9286.8270 -7498.7451 299.7000 -348.3927 -268.8662 30550.7234 3.3350 3.3378
ENERGY: 1900000 3.1544 7.1862 3.1351 0.0000 -10753.0186 1451.0029 0.0000 0.0000 1746.5511 -7541.9888 297.1782 -9288.5399 -7539.9556 299.6004 180.5146 226.4158 30111.1986 3.9336 4.1352
TCL: Exiting due to exit command.
