Info: SIMULATION PARAMETERS:
Info: TIMESTEP               2
Info: NUMBER OF STEPS        0
Info: STEPS PER CYCLE        10
Info: PERIODIC CELL BASIS 1  36.592 0 0
Info: PERIODIC CELL BASIS 2  0 34.1 0
Info: PERIODIC CELL BASIS 3  0 0 35.723
Info: PERIODIC CELL CENTER   0 0 0
Info: WRAPPING WATERS AROUND PERIODIC BOUNDARIES ON OUTPUT.
Info: WRAPPING ALL CLUSTERS AROUND PERIODIC BOUNDARIES ON OUTPUT.
Info: FIRST LDB TIMESTEP     50
Info: LAST LDB TIMESTEP     -1
Info: HOM BACKGROUND SCALING 1
Info: PME BACKGROUND SCALING 1
Info: MIN ATOMS PER PATCH    40
Info: EMPTY PATCH LOAD       40 ATOMS
Info: INITIAL TEMPERATURE    300
Info: CENTER OF MASS MOVING INITIALLY? NO
Info: DIELECTRIC             1
Info: EXCLUDE                SCALED ONE-FOUR
Info: 1-4 ELECTROSTATICS SCALED BY 0.833333
Info: MODIFIED 1-4 VDW PARAMETERS WILL BE USED
Info: DCD FILENAME           mobley_7688753_equil.dcd
Info: DCD FREQUENCY          100000
Info: DCD FIRST STEP         100000
Info: DCD FILE WILL CONTAIN UNIT CELL DATA
Info: XST FILENAME           mobley_7688753_equil.xst
Info: XST FREQUENCY          100000
Info: NO VELOCITY DCD OUTPUT
Info: NO FORCE DCD OUTPUT
Info: OUTPUT FILENAME        mobley_7688753_equil
Info: BINARY OUTPUT FILES WILL BE USED
Info: RESTART FILENAME       mobley_7688753_equil.restart
Info: RESTART FREQUENCY      100000
Info: BINARY RESTART FILES WILL BE USED
Info: CUTOFF                 9
Info: PAIRLIST DISTANCE      11
Info: PAIRLIST SHRINK RATE   0.01
Info: PAIRLIST GROW RATE     0.01
Info: PAIRLIST TRIGGER       0.3
Info: PAIRLISTS PER CYCLE    2
Info: PAIRLISTS ENABLED
Info: MARGIN                 8
Info: HYDROGEN GROUP CUTOFF  2.5
Info: PATCH DIMENSION        21.5
Info: ENERGY OUTPUT STEPS    100000
Info: ENERGY EVALUATION STEPS    100000
Info: OUTPUT ENERGY PRECISION 4
Info: CROSSTERM ENERGY INCLUDED IN DIHEDRAL
Info: TIMING OUTPUT STEPS    1000000
Info: PRESSURE OUTPUT STEPS  100000
Info: LANGEVIN DYNAMICS ACTIVE
Info: LANGEVIN TEMPERATURE   30
Info: LANGEVIN USING BBK INTEGRATOR
Info: LANGEVIN DAMPING COEFFICIENT IS 1 INVERSE PS
Info: LANGEVIN DYNAMICS APPLIED TO HYDROGENS
Info: LANGEVIN PISTON PRESSURE CONTROL ACTIVE
Info:        TARGET PRESSURE IS 1.01325 BAR
Info:     OSCILLATION PERIOD IS 50 FS
Info:             DECAY TIME IS 25 FS
Info:     PISTON TEMPERATURE IS 300 K
Info:       PRESSURE CONTROL IS GROUP-BASED
Info:    INITIAL STRAIN RATE IS 0 0 0
Info:       CELL FLUCTUATION IS ISOTROPIC
Info: PARTICLE MESH EWALD (PME) ACTIVE
Info: PME TOLERANCE               1e-06
Info: PME EWALD COEFFICIENT       0.348832
Info: PME INTERPOLATION ORDER     4
Info: PME GRID DIMENSIONS         40 36 36
Info: PME MAXIMUM GRID SPACING    1
Info: FULL ELECTROSTATIC EVALUATION FREQUENCY      2
Info: USING VERLET I (r-RESPA) MTS SCHEME.
Info: C1 SPLITTING OF LONG RANGE ELECTROSTATICS
Info: PLACING ATOMS IN PATCHES BY HYDROGEN GROUPS
Info: RIGID BONDS TO HYDROGEN : ALL
Info:         ERROR TOLERANCE : 1e-08
Info:          MAX ITERATIONS : 100
Info: RIGID WATER USING SETTLE ALGORITHM
Info: RANDOM NUMBER SEED     1743228883
Info: USE HYDROGEN BONDS?    NO
Info: Using AMBER format force field!
Info: AMBER PARM FILE        mobley_7688753.prmtop
Info: COORDINATE PDB         mobley_7688753.pdb
Info: Exclusions will be read from PARM file!
Info: SCNB (VDW SCALING)     2
Info: USING ARITHMETIC MEAN TO COMBINE L-J SIGMA PARAMETERS
Info: BINARY COORDINATES     mobley_7688753_min.coor
Info: SUMMARY OF PARAMETERS:
Info: 9 BONDS
Info: 8 ANGLES
Info:   8 HARMONIC
Info:   0 COSINE-BASED
Info: 5 DIHEDRAL
Info: 0 IMPROPER
Info: 0 CROSSTERM
Info: 0 VDW
Info: 28 VDW_PAIRS
Info: 0 NBTHOLE_PAIRS
Info: STRUCTURE SUMMARY:
Info: 2952 ATOMS
Info: 2952 BONDS
Info: 22 ANGLES
Info: 37 DIHEDRALS
Info: 0 IMPROPERS
Info: 0 CROSSTERMS
Info: 3001 EXCLUSIONS
Info: 2943 RIGID BONDS
Info: 5913 DEGREES OF FREEDOM
Info: 988 HYDROGEN GROUPS
Info: 3 ATOMS IN LARGEST HYDROGEN GROUP
Info: 988 MIGRATION GROUPS
Info: 3 ATOMS IN LARGEST MIGRATION GROUP
Info: TOTAL MASS = 17759.8 amu
Info: TOTAL CHARGE = 3.79514e-08 e
Info: MASS DENSITY = 0.66162 g/cm^3
Info: ATOM DENSITY = 0.0662259 atoms/A^3
Info: ADDED 0 IMPLICIT EXCLUSIONS
Info: NONBONDED TABLE R-SQUARED SPACING: 0.0625
Info: NONBONDED TABLE SIZE: 705 POINTS
Info: REMOVING COM VELOCITY -0.0277868 0.191212 0.0968207
TCL: Running for 100000 steps
ETITLE: TS BOND ANGLE DIHED IMPRP ELECT VDW BOUNDARY MISC KINETIC TOTAL TEMP POTENTIAL TOTAL3 TEMPAVG PRESSURE GPRESSURE VOLUME PRESSAVG GPRESSAVG
ENERGY: 0 0.2559 0.1016 1.4193 0.0000 -13638.3103 2427.8014 0.0000 0.0000 1768.4019 -9440.3300 300.9979 -11208.7320 -9439.9730 300.9979 555.5199 595.7064 44574.7021 555.5199 595.7064
ENERGY: 100000 0.2924 0.5489 1.8368 0.0000 -14149.2577 2436.3917 0.0000 0.0000 176.7002 -11533.4877 30.0760 -11710.1880 -11533.1158 30.9040 -297.5850 -256.6553 29256.9235 5.7570 5.7462
TCL: Running 100000 steps at 60 kelvin.
TCL: Setting parameter langevinTemp to 60
TCL: Running for 100000 steps
ETITLE: TS BOND ANGLE DIHED IMPRP ELECT VDW BOUNDARY MISC KINETIC TOTAL TEMP POTENTIAL TOTAL3 TEMPAVG PRESSURE GPRESSURE VOLUME PRESSAVG GPRESSAVG
ENERGY: 100000 0.2924 0.5489 1.8368 0.0000 -14149.2577 2436.3917 0.0000 0.0000 176.6142 -11533.5737 30.0613 -11710.1880 -11533.1388 30.0613 -314.1253 -257.0059 29256.9235 -314.1253 -257.0059
ENERGY: 200000 0.5315 0.9481 1.6563 0.0000 -14122.2216 2434.3400 0.0000 0.0000 348.2941 -11336.4515 59.2828 -11684.7456 -11335.7703 59.8688 -62.3161 -23.2937 28847.8503 3.9411 3.9358
TCL: Running 100000 steps at 90 kelvin.
TCL: Setting parameter langevinTemp to 90
TCL: Running for 100000 steps
ETITLE: TS BOND ANGLE DIHED IMPRP ELECT VDW BOUNDARY MISC KINETIC TOTAL TEMP POTENTIAL TOTAL3 TEMPAVG PRESSURE GPRESSURE VOLUME PRESSAVG GPRESSAVG
ENERGY: 200000 0.5315 0.9481 1.6563 0.0000 -14122.2216 2434.3400 0.0000 0.0000 348.1187 -11336.6269 59.2529 -11684.7456 -11336.0021 59.2529 -73.8337 -23.2727 28847.8503 -73.8337 -23.2727
ENERGY: 300000 1.2998 1.0329 1.3749 0.0000 -13913.5994 2344.0757 0.0000 0.0000 525.1913 -11040.6248 89.3923 -11565.8161 -11039.2644 89.8535 -265.4889 -228.2492 28706.7834 6.0552 6.0274
TCL: Running 100000 steps at 120 kelvin.
TCL: Setting parameter langevinTemp to 120
TCL: Running for 100000 steps
ETITLE: TS BOND ANGLE DIHED IMPRP ELECT VDW BOUNDARY MISC KINETIC TOTAL TEMP POTENTIAL TOTAL3 TEMPAVG PRESSURE GPRESSURE VOLUME PRESSAVG GPRESSAVG
ENERGY: 300000 1.2998 1.0329 1.3749 0.0000 -13913.5994 2344.0757 0.0000 0.0000 524.9381 -11040.8780 89.3492 -11565.8161 -11039.7980 89.3492 -271.9343 -228.1205 28706.7834 -271.9343 -228.1205
ENERGY: 400000 2.0937 1.4843 1.3821 0.0000 -13810.1189 2379.1603 0.0000 0.0000 697.4868 -10728.5117 118.7185 -11425.9985 -10727.0385 120.2225 389.2054 444.0958 28847.7125 4.7767 4.7592
TCL: Running 100000 steps at 150 kelvin.
TCL: Setting parameter langevinTemp to 150
TCL: Running for 100000 steps
ETITLE: TS BOND ANGLE DIHED IMPRP ELECT VDW BOUNDARY MISC KINETIC TOTAL TEMP POTENTIAL TOTAL3 TEMPAVG PRESSURE GPRESSURE VOLUME PRESSAVG GPRESSAVG
ENERGY: 400000 2.0937 1.4843 1.3821 0.0000 -13810.1189 2379.1603 0.0000 0.0000 697.1391 -10728.8594 118.6593 -11425.9985 -10727.4770 118.6593 390.1508 443.4616 28847.7125 390.1508 443.4616
ENERGY: 500000 1.0852 3.1729 3.1925 0.0000 -13589.5748 2284.1649 0.0000 0.0000 860.2597 -10437.6996 146.4239 -11297.9593 -10436.1484 149.9802 94.9728 167.7350 28961.4140 1.9521 1.8449
TCL: Running 100000 steps at 180 kelvin.
TCL: Setting parameter langevinTemp to 180
TCL: Running for 100000 steps
ETITLE: TS BOND ANGLE DIHED IMPRP ELECT VDW BOUNDARY MISC KINETIC TOTAL TEMP POTENTIAL TOTAL3 TEMPAVG PRESSURE GPRESSURE VOLUME PRESSAVG GPRESSAVG
ENERGY: 500000 1.0852 3.1729 3.1925 0.0000 -13589.5748 2284.1649 0.0000 0.0000 859.8166 -10438.1426 146.3485 -11297.9593 -10436.7677 146.3485 118.1486 167.0359 28961.4140 118.1486 167.0359
ENERGY: 600000 1.8535 1.9625 2.3435 0.0000 -13133.3762 2197.8561 0.0000 0.0000 1071.7621 -9857.5985 182.4235 -10929.3606 -9854.8816 180.2112 1095.4973 1134.6774 28584.2422 4.6559 4.5260
TCL: Running 100000 steps at 210 kelvin.
TCL: Setting parameter langevinTemp to 210
TCL: Running for 100000 steps
ETITLE: TS BOND ANGLE DIHED IMPRP ELECT VDW BOUNDARY MISC KINETIC TOTAL TEMP POTENTIAL TOTAL3 TEMPAVG PRESSURE GPRESSURE VOLUME PRESSAVG GPRESSAVG
ENERGY: 600000 1.8535 1.9625 2.3435 0.0000 -13133.3762 2197.8561 0.0000 0.0000 1071.2374 -9858.1232 182.3342 -10929.3606 -9856.2775 182.3342 1058.0913 1133.6347 28584.2422 1058.0913 1133.6347
ENERGY: 700000 1.8534 2.6311 1.3527 0.0000 -12335.9743 1835.9440 0.0000 0.0000 1230.0136 -9264.1796 209.3594 -10494.1932 -9261.3980 210.3536 -255.4243 -150.7470 28539.9214 4.2080 4.1306
TCL: Running 100000 steps at 240 kelvin.
TCL: Setting parameter langevinTemp to 240
TCL: Running for 100000 steps
ETITLE: TS BOND ANGLE DIHED IMPRP ELECT VDW BOUNDARY MISC KINETIC TOTAL TEMP POTENTIAL TOTAL3 TEMPAVG PRESSURE GPRESSURE VOLUME PRESSAVG GPRESSAVG
ENERGY: 700000 1.8534 2.6311 1.3527 0.0000 -12335.9743 1835.9440 0.0000 0.0000 1229.3830 -9264.8102 209.2520 -10494.1932 -9262.7512 209.2520 -230.5054 -150.0279 28539.9214 -230.5054 -150.0279
ENERGY: 800000 2.8198 1.8367 2.0845 0.0000 -11893.4774 1752.8721 0.0000 0.0000 1426.4194 -8707.4449 242.7894 -10133.8643 -8703.8853 240.1477 192.4915 246.2654 29015.9952 3.6431 3.7071
TCL: Running 100000 steps at 270 kelvin.
TCL: Setting parameter langevinTemp to 270
TCL: Running for 100000 steps
ETITLE: TS BOND ANGLE DIHED IMPRP ELECT VDW BOUNDARY MISC KINETIC TOTAL TEMP POTENTIAL TOTAL3 TEMPAVG PRESSURE GPRESSURE VOLUME PRESSAVG GPRESSAVG
ENERGY: 800000 2.8198 1.8367 2.0845 0.0000 -11893.4774 1752.8721 0.0000 0.0000 1425.7477 -8708.1166 242.6751 -10133.8643 -8705.8292 242.6751 164.8378 247.3012 29015.9952 164.8378 247.3012
ENERGY: 900000 2.5456 1.5963 3.3322 0.0000 -11265.2184 1595.0192 0.0000 0.0000 1576.8412 -8085.8839 268.3926 -9662.7251 -8083.2059 270.0511 88.6727 161.5234 29678.2503 2.1654 2.2776
TCL: Running 1000000 steps at 300 kelvin.
TCL: Setting parameter langevinTemp to 300
TCL: Running for 1000000 steps
ETITLE: TS BOND ANGLE DIHED IMPRP ELECT VDW BOUNDARY MISC KINETIC TOTAL TEMP POTENTIAL TOTAL3 TEMPAVG PRESSURE GPRESSURE VOLUME PRESSAVG GPRESSAVG
ENERGY: 900000 2.5456 1.5963 3.3322 0.0000 -11265.2184 1595.0192 0.0000 0.0000 1576.0250 -8086.7001 268.2536 -9662.7251 -8084.2688 268.2536 82.9989 160.6280 29678.2503 82.9989 160.6280
ENERGY: 1100000 1.2296 2.5443 6.6509 0.0000 -10861.0785 1536.4623 0.0000 0.0000 1736.7430 -7577.4485 295.6093 -9314.1915 -7576.7871 300.0514 563.7686 643.9672 30314.7405 4.0041 4.0599
ENERGY: 1300000 3.2632 5.1265 4.0766 0.0000 -10756.4435 1414.6253 0.0000 0.0000 1742.2816 -7587.0703 296.5520 -9329.3519 -7585.4459 300.6731 -348.6817 -262.3014 30157.8005 3.8240 4.0233
ENERGY: 1500000 0.6770 3.5171 3.4599 0.0000 -10612.7574 1370.2251 0.0000 0.0000 1760.9805 -7473.8978 299.7347 -9234.8783 -7469.1370 300.4726 -427.7151 -352.5183 30596.2868 3.1450 3.0869
ENERGY: 1700000 4.5223 3.1331 6.8227 0.0000 -10784.3512 1506.9220 0.0000 0.0000 1782.7985 -7480.1526 303.4483 -9262.9511 -7475.2175 300.2730 504.6673 621.5496 30644.4556 2.9626 3.0343
ENERGY: 1900000 2.2821 3.2877 4.2879 0.0000 -10546.7557 1349.0067 0.0000 0.0000 1764.0506 -7423.8407 300.2573 -9187.8914 -7420.3230 300.4166 -790.5784 -665.5894 30856.5823 3.9418 3.9206
TCL: Exiting due to exit command.
