Info: SIMULATION PARAMETERS:
Info: TIMESTEP               2
Info: NUMBER OF STEPS        0
Info: STEPS PER CYCLE        10
Info: PERIODIC CELL BASIS 1  36.005 0 0
Info: PERIODIC CELL BASIS 2  0 34.696 0
Info: PERIODIC CELL BASIS 3  0 0 35.723
Info: PERIODIC CELL CENTER   0 0 0
Info: WRAPPING WATERS AROUND PERIODIC BOUNDARIES ON OUTPUT.
Info: WRAPPING ALL CLUSTERS AROUND PERIODIC BOUNDARIES ON OUTPUT.
Info: FIRST LDB TIMESTEP     50
Info: LAST LDB TIMESTEP     -1
Info: HOM BACKGROUND SCALING 1
Info: PME BACKGROUND SCALING 1
Info: MIN ATOMS PER PATCH    40
Info: EMPTY PATCH LOAD       40 ATOMS
Info: INITIAL TEMPERATURE    300
Info: CENTER OF MASS MOVING INITIALLY? NO
Info: DIELECTRIC             1
Info: EXCLUDE                SCALED ONE-FOUR
Info: 1-4 ELECTROSTATICS SCALED BY 0.833333
Info: MODIFIED 1-4 VDW PARAMETERS WILL BE USED
Info: DCD FILENAME           mobley_8048190_equil.dcd
Info: DCD FREQUENCY          100000
Info: DCD FIRST STEP         100000
Info: DCD FILE WILL CONTAIN UNIT CELL DATA
Info: XST FILENAME           mobley_8048190_equil.xst
Info: XST FREQUENCY          100000
Info: NO VELOCITY DCD OUTPUT
Info: NO FORCE DCD OUTPUT
Info: OUTPUT FILENAME        mobley_8048190_equil
Info: BINARY OUTPUT FILES WILL BE USED
Info: RESTART FILENAME       mobley_8048190_equil.restart
Info: RESTART FREQUENCY      100000
Info: BINARY RESTART FILES WILL BE USED
Info: CUTOFF                 9
Info: PAIRLIST DISTANCE      11
Info: PAIRLIST SHRINK RATE   0.01
Info: PAIRLIST GROW RATE     0.01
Info: PAIRLIST TRIGGER       0.3
Info: PAIRLISTS PER CYCLE    2
Info: PAIRLISTS ENABLED
Info: MARGIN                 8
Info: HYDROGEN GROUP CUTOFF  2.5
Info: PATCH DIMENSION        21.5
Info: ENERGY OUTPUT STEPS    100000
Info: ENERGY EVALUATION STEPS    100000
Info: OUTPUT ENERGY PRECISION 4
Info: CROSSTERM ENERGY INCLUDED IN DIHEDRAL
Info: TIMING OUTPUT STEPS    1000000
Info: PRESSURE OUTPUT STEPS  100000
Info: LANGEVIN DYNAMICS ACTIVE
Info: LANGEVIN TEMPERATURE   30
Info: LANGEVIN USING BBK INTEGRATOR
Info: LANGEVIN DAMPING COEFFICIENT IS 1 INVERSE PS
Info: LANGEVIN DYNAMICS APPLIED TO HYDROGENS
Info: LANGEVIN PISTON PRESSURE CONTROL ACTIVE
Info:        TARGET PRESSURE IS 1.01325 BAR
Info:     OSCILLATION PERIOD IS 50 FS
Info:             DECAY TIME IS 25 FS
Info:     PISTON TEMPERATURE IS 300 K
Info:       PRESSURE CONTROL IS GROUP-BASED
Info:    INITIAL STRAIN RATE IS 0 0 0
Info:       CELL FLUCTUATION IS ISOTROPIC
Info: PARTICLE MESH EWALD (PME) ACTIVE
Info: PME TOLERANCE               1e-06
Info: PME EWALD COEFFICIENT       0.348832
Info: PME INTERPOLATION ORDER     4
Info: PME GRID DIMENSIONS         40 36 36
Info: PME MAXIMUM GRID SPACING    1
Info: FULL ELECTROSTATIC EVALUATION FREQUENCY      2
Info: USING VERLET I (r-RESPA) MTS SCHEME.
Info: C1 SPLITTING OF LONG RANGE ELECTROSTATICS
Info: PLACING ATOMS IN PATCHES BY HYDROGEN GROUPS
Info: RIGID BONDS TO HYDROGEN : ALL
Info:         ERROR TOLERANCE : 1e-08
Info:          MAX ITERATIONS : 100
Info: RIGID WATER USING SETTLE ALGORITHM
Info: RANDOM NUMBER SEED     1743160116
Info: USE HYDROGEN BONDS?    NO
Info: Using AMBER format force field!
Info: AMBER PARM FILE        mobley_8048190.prmtop
Info: COORDINATE PDB         mobley_8048190.pdb
Info: Exclusions will be read from PARM file!
Info: SCNB (VDW SCALING)     2
Info: USING ARITHMETIC MEAN TO COMBINE L-J SIGMA PARAMETERS
Info: BINARY COORDINATES     mobley_8048190_min.coor
Info: SUMMARY OF PARAMETERS:
Info: 7 BONDS
Info: 7 ANGLES
Info:   7 HARMONIC
Info:   0 COSINE-BASED
Info: 8 DIHEDRAL
Info: 0 IMPROPER
Info: 0 CROSSTERM
Info: 0 VDW
Info: 36 VDW_PAIRS
Info: 0 NBTHOLE_PAIRS
Info: STRUCTURE SUMMARY:
Info: 2988 ATOMS
Info: 2987 BONDS
Info: 12 ANGLES
Info: 20 DIHEDRALS
Info: 0 IMPROPERS
Info: 0 CROSSTERMS
Info: 3009 EXCLUSIONS
Info: 2984 RIGID BONDS
Info: 5980 DEGREES OF FREEDOM
Info: 997 HYDROGEN GROUPS
Info: 4 ATOMS IN LARGEST HYDROGEN GROUP
Info: 997 MIGRATION GROUPS
Info: 4 ATOMS IN LARGEST MIGRATION GROUP
Info: TOTAL MASS = 17949 amu
Info: TOTAL CHARGE = -1.49012e-08 e
Info: MASS DENSITY = 0.667895 g/cm^3
Info: ATOM DENSITY = 0.0669561 atoms/A^3
Info: ADDED 0 IMPLICIT EXCLUSIONS
Info: NONBONDED TABLE R-SQUARED SPACING: 0.0625
Info: NONBONDED TABLE SIZE: 705 POINTS
Info: REMOVING COM VELOCITY 0.0208885 -0.0538587 0.040472
TCL: Running for 100000 steps
ETITLE: TS BOND ANGLE DIHED IMPRP ELECT VDW BOUNDARY MISC KINETIC TOTAL TEMP POTENTIAL TOTAL3 TEMPAVG PRESSURE GPRESSURE VOLUME PRESSAVG GPRESSAVG
ENERGY: 0 0.1758 0.5972 6.4942 0.0000 -13859.5402 2423.8065 0.0000 0.0000 1801.4512 -9627.0153 303.1878 -11428.4665 -9626.6465 303.1878 532.1406 573.6357 44626.2247 532.1406 573.6357
ENERGY: 100000 0.6746 1.0856 6.5841 0.0000 -14496.9770 2501.2932 0.0000 0.0000 179.9675 -11807.3722 30.2889 -11987.3397 -11807.1635 30.9105 102.9772 168.6149 29020.7384 3.6985 3.6959
TCL: Running 100000 steps at 60 kelvin.
TCL: Setting parameter langevinTemp to 60
TCL: Running for 100000 steps
ETITLE: TS BOND ANGLE DIHED IMPRP ELECT VDW BOUNDARY MISC KINETIC TOTAL TEMP POTENTIAL TOTAL3 TEMPAVG PRESSURE GPRESSURE VOLUME PRESSAVG GPRESSAVG
ENERGY: 100000 0.6746 1.0856 6.5841 0.0000 -14496.9770 2501.2932 0.0000 0.0000 179.8775 -11807.4622 30.2737 -11987.3397 -11807.0779 30.2737 102.0648 168.6626 29020.7384 102.0648 168.6626
ENERGY: 200000 0.3330 1.2344 6.7062 0.0000 -14419.3557 2549.1533 0.0000 0.0000 361.3709 -11500.5579 60.8194 -11861.9288 -11499.8014 59.8866 1051.8472 1083.8796 29024.4411 3.1266 3.1814
TCL: Running 100000 steps at 90 kelvin.
TCL: Setting parameter langevinTemp to 90
TCL: Running for 100000 steps
ETITLE: TS BOND ANGLE DIHED IMPRP ELECT VDW BOUNDARY MISC KINETIC TOTAL TEMP POTENTIAL TOTAL3 TEMPAVG PRESSURE GPRESSURE VOLUME PRESSAVG GPRESSAVG
ENERGY: 200000 0.3330 1.2344 6.7062 0.0000 -14419.3557 2549.1533 0.0000 0.0000 361.1941 -11500.7347 60.7897 -11861.9288 -11499.9823 60.7897 1026.4939 1083.3926 29024.4411 1026.4939 1083.3926
ENERGY: 300000 0.7699 1.8801 6.5920 0.0000 -14312.4617 2515.5960 0.0000 0.0000 531.1299 -11256.4938 89.3902 -11787.6237 -11255.3808 89.8631 978.8706 1055.8003 28915.7955 1.8580 1.8381
TCL: Running 100000 steps at 120 kelvin.
TCL: Setting parameter langevinTemp to 120
TCL: Running for 100000 steps
ETITLE: TS BOND ANGLE DIHED IMPRP ELECT VDW BOUNDARY MISC KINETIC TOTAL TEMP POTENTIAL TOTAL3 TEMPAVG PRESSURE GPRESSURE VOLUME PRESSAVG GPRESSAVG
ENERGY: 300000 0.7699 1.8801 6.5920 0.0000 -14312.4617 2515.5960 0.0000 0.0000 530.8550 -11256.7687 89.3439 -11787.6237 -11255.9201 89.3439 999.7557 1055.6121 28915.7955 999.7557 1055.6121
ENERGY: 400000 0.5113 0.6580 6.4395 0.0000 -14010.5496 2359.8664 0.0000 0.0000 712.9220 -10930.1525 119.9862 -11643.0744 -10928.0747 120.1169 12.5493 46.8573 29407.3970 2.7524 2.6935
TCL: Running 100000 steps at 150 kelvin.
TCL: Setting parameter langevinTemp to 150
TCL: Running for 100000 steps
ETITLE: TS BOND ANGLE DIHED IMPRP ELECT VDW BOUNDARY MISC KINETIC TOTAL TEMP POTENTIAL TOTAL3 TEMPAVG PRESSURE GPRESSURE VOLUME PRESSAVG GPRESSAVG
ENERGY: 400000 0.5113 0.6580 6.4395 0.0000 -14010.5496 2359.8664 0.0000 0.0000 712.5710 -10930.5034 119.9271 -11643.0744 -10929.2446 119.9271 -8.4917 46.8926 29407.3970 -8.4917 46.8926
ENERGY: 500000 0.1190 2.4371 6.7913 0.0000 -13795.8852 2260.5573 0.0000 0.0000 884.8817 -10641.0987 148.9273 -11525.9804 -10638.7161 149.7970 -276.2442 -208.8170 29208.7940 3.0107 3.0743
TCL: Running 100000 steps at 180 kelvin.
TCL: Setting parameter langevinTemp to 180
TCL: Running for 100000 steps
ETITLE: TS BOND ANGLE DIHED IMPRP ELECT VDW BOUNDARY MISC KINETIC TOTAL TEMP POTENTIAL TOTAL3 TEMPAVG PRESSURE GPRESSURE VOLUME PRESSAVG GPRESSAVG
ENERGY: 500000 0.1190 2.4371 6.7913 0.0000 -13795.8852 2260.5573 0.0000 0.0000 884.4316 -10641.5488 148.8516 -11525.9804 -10639.7281 148.8516 -263.2232 -208.3332 29208.7940 -263.2232 -208.3332
ENERGY: 600000 0.7301 2.9406 7.4743 0.0000 -13304.7922 2124.6068 0.0000 0.0000 1071.5810 -10097.4594 180.3492 -11169.0404 -10094.4199 179.3584 -427.6146 -278.4843 29543.8594 3.2111 3.0867
TCL: Running 100000 steps at 210 kelvin.
TCL: Setting parameter langevinTemp to 210
TCL: Running for 100000 steps
ETITLE: TS BOND ANGLE DIHED IMPRP ELECT VDW BOUNDARY MISC KINETIC TOTAL TEMP POTENTIAL TOTAL3 TEMPAVG PRESSURE GPRESSURE VOLUME PRESSAVG GPRESSAVG
ENERGY: 600000 0.7301 2.9406 7.4743 0.0000 -13304.7922 2124.6068 0.0000 0.0000 1071.0649 -10097.9755 180.2623 -11169.0404 -10096.2520 180.2623 -353.4416 -278.3758 29543.8594 -353.4416 -278.3758
ENERGY: 700000 0.0548 1.6043 7.4538 0.0000 -12427.8594 1777.6735 0.0000 0.0000 1271.1402 -9369.9327 213.9354 -10641.0729 -9368.2172 209.9964 -971.1026 -937.8893 29449.3795 3.5680 3.7544
TCL: Running 100000 steps at 240 kelvin.
TCL: Setting parameter langevinTemp to 240
TCL: Running for 100000 steps
ETITLE: TS BOND ANGLE DIHED IMPRP ELECT VDW BOUNDARY MISC KINETIC TOTAL TEMP POTENTIAL TOTAL3 TEMPAVG PRESSURE GPRESSURE VOLUME PRESSAVG GPRESSAVG
ENERGY: 700000 0.0548 1.6043 7.4538 0.0000 -12427.8594 1777.6735 0.0000 0.0000 1270.5060 -9370.5669 213.8287 -10641.0729 -9368.5777 213.8287 -1010.8270 -940.2634 29449.3795 -1010.8270 -940.2634
ENERGY: 800000 0.1226 3.3258 9.2729 0.0000 -12112.4966 1813.0316 0.0000 0.0000 1404.4879 -8882.2557 236.3781 -10286.7436 -8880.0566 239.4111 369.3008 433.1275 29486.0146 3.9373 3.9661
TCL: Running 100000 steps at 270 kelvin.
TCL: Setting parameter langevinTemp to 270
TCL: Running for 100000 steps
ETITLE: TS BOND ANGLE DIHED IMPRP ELECT VDW BOUNDARY MISC KINETIC TOTAL TEMP POTENTIAL TOTAL3 TEMPAVG PRESSURE GPRESSURE VOLUME PRESSAVG GPRESSAVG
ENERGY: 800000 0.1226 3.3258 9.2729 0.0000 -12112.4966 1813.0316 0.0000 0.0000 1403.7879 -8882.9557 236.2603 -10286.7436 -8880.6327 236.2603 352.3769 433.6937 29486.0146 352.3769 433.6937
ENERGY: 900000 0.8518 2.7510 6.9412 0.0000 -11440.5632 1607.0580 0.0000 0.0000 1570.9768 -8251.9844 264.3985 -9822.9612 -8247.4354 270.2454 479.8007 561.2265 29341.8404 3.4165 3.5158
TCL: Running 1000000 steps at 300 kelvin.
TCL: Setting parameter langevinTemp to 300
TCL: Running for 1000000 steps
ETITLE: TS BOND ANGLE DIHED IMPRP ELECT VDW BOUNDARY MISC KINETIC TOTAL TEMP POTENTIAL TOTAL3 TEMPAVG PRESSURE GPRESSURE VOLUME PRESSAVG GPRESSAVG
ENERGY: 900000 0.8518 2.7510 6.9412 0.0000 -11440.5632 1607.0580 0.0000 0.0000 1570.2115 -8252.7497 264.2697 -9822.9612 -8250.5226 264.2697 481.5801 562.0201 29341.8404 481.5801 562.0201
ENERGY: 1100000 1.5549 1.3389 10.6990 0.0000 -10894.8083 1424.2329 0.0000 0.0000 1807.4012 -7649.5814 304.1892 -9456.9826 -7646.3546 300.3466 -337.9378 -205.6011 30952.1976 3.6966 3.7811
ENERGY: 1300000 1.5285 0.9909 8.9061 0.0000 -10985.7146 1457.2127 0.0000 0.0000 1786.1334 -7730.9430 300.6098 -9517.0764 -7727.1842 299.9431 59.2730 104.8323 30378.4173 3.3247 3.3882
ENERGY: 1500000 0.5141 4.0050 9.3388 0.0000 -10839.2860 1393.8537 0.0000 0.0000 1742.8436 -7688.7309 293.3240 -9431.5745 -7686.5905 300.6730 -723.7101 -697.1103 31249.5401 3.3072 3.3430
ENERGY: 1700000 0.5280 0.9545 7.2771 0.0000 -11022.7280 1532.0105 0.0000 0.0000 1770.4148 -7711.5431 297.9643 -9481.9579 -7706.1186 300.3269 225.6889 340.7770 30827.7492 3.0229 3.1444
ENERGY: 1900000 2.4292 2.7208 7.1049 0.0000 -10824.5176 1366.1903 0.0000 0.0000 1796.8827 -7649.1897 302.4189 -9446.0724 -7647.6588 300.4274 -904.0342 -833.8601 31302.3547 4.2551 4.0847
TCL: Exiting due to exit command.
