Info: SIMULATION PARAMETERS:
Info: TIMESTEP               2
Info: NUMBER OF STEPS        0
Info: STEPS PER CYCLE        10
Info: PERIODIC CELL BASIS 1  37.133 0 0
Info: PERIODIC CELL BASIS 2  0 37.835 0
Info: PERIODIC CELL BASIS 3  0 0 31.349
Info: PERIODIC CELL CENTER   0 0 0
Info: WRAPPING WATERS AROUND PERIODIC BOUNDARIES ON OUTPUT.
Info: WRAPPING ALL CLUSTERS AROUND PERIODIC BOUNDARIES ON OUTPUT.
Info: FIRST LDB TIMESTEP     50
Info: LAST LDB TIMESTEP     -1
Info: HOM BACKGROUND SCALING 1
Info: PME BACKGROUND SCALING 1
Info: MIN ATOMS PER PATCH    40
Info: EMPTY PATCH LOAD       40 ATOMS
Info: INITIAL TEMPERATURE    300
Info: CENTER OF MASS MOVING INITIALLY? NO
Info: DIELECTRIC             1
Info: EXCLUDE                SCALED ONE-FOUR
Info: 1-4 ELECTROSTATICS SCALED BY 0.833333
Info: MODIFIED 1-4 VDW PARAMETERS WILL BE USED
Info: DCD FILENAME           mobley_5371840_equil.dcd
Info: DCD FREQUENCY          100000
Info: DCD FIRST STEP         100000
Info: DCD FILE WILL CONTAIN UNIT CELL DATA
Info: XST FILENAME           mobley_5371840_equil.xst
Info: XST FREQUENCY          100000
Info: NO VELOCITY DCD OUTPUT
Info: NO FORCE DCD OUTPUT
Info: OUTPUT FILENAME        mobley_5371840_equil
Info: BINARY OUTPUT FILES WILL BE USED
Info: RESTART FILENAME       mobley_5371840_equil.restart
Info: RESTART FREQUENCY      100000
Info: BINARY RESTART FILES WILL BE USED
Info: CUTOFF                 9
Info: PAIRLIST DISTANCE      11
Info: PAIRLIST SHRINK RATE   0.01
Info: PAIRLIST GROW RATE     0.01
Info: PAIRLIST TRIGGER       0.3
Info: PAIRLISTS PER CYCLE    2
Info: PAIRLISTS ENABLED
Info: MARGIN                 8
Info: HYDROGEN GROUP CUTOFF  2.5
Info: PATCH DIMENSION        21.5
Info: ENERGY OUTPUT STEPS    100000
Info: ENERGY EVALUATION STEPS    100000
Info: OUTPUT ENERGY PRECISION 4
Info: CROSSTERM ENERGY INCLUDED IN DIHEDRAL
Info: TIMING OUTPUT STEPS    1000000
Info: PRESSURE OUTPUT STEPS  100000
Info: LANGEVIN DYNAMICS ACTIVE
Info: LANGEVIN TEMPERATURE   30
Info: LANGEVIN USING BBK INTEGRATOR
Info: LANGEVIN DAMPING COEFFICIENT IS 1 INVERSE PS
Info: LANGEVIN DYNAMICS APPLIED TO HYDROGENS
Info: LANGEVIN PISTON PRESSURE CONTROL ACTIVE
Info:        TARGET PRESSURE IS 1.01325 BAR
Info:     OSCILLATION PERIOD IS 50 FS
Info:             DECAY TIME IS 25 FS
Info:     PISTON TEMPERATURE IS 300 K
Info:       PRESSURE CONTROL IS GROUP-BASED
Info:    INITIAL STRAIN RATE IS 0 0 0
Info:       CELL FLUCTUATION IS ISOTROPIC
Info: PARTICLE MESH EWALD (PME) ACTIVE
Info: PME TOLERANCE               1e-06
Info: PME EWALD COEFFICIENT       0.348832
Info: PME INTERPOLATION ORDER     4
Info: PME GRID DIMENSIONS         40 40 32
Info: PME MAXIMUM GRID SPACING    1
Info: FULL ELECTROSTATIC EVALUATION FREQUENCY      2
Info: USING VERLET I (r-RESPA) MTS SCHEME.
Info: C1 SPLITTING OF LONG RANGE ELECTROSTATICS
Info: PLACING ATOMS IN PATCHES BY HYDROGEN GROUPS
Info: RIGID BONDS TO HYDROGEN : ALL
Info:         ERROR TOLERANCE : 1e-08
Info:          MAX ITERATIONS : 100
Info: RIGID WATER USING SETTLE ALGORITHM
Info: RANDOM NUMBER SEED     1743220850
Info: USE HYDROGEN BONDS?    NO
Info: Using AMBER format force field!
Info: AMBER PARM FILE        mobley_5371840.prmtop
Info: COORDINATE PDB         mobley_5371840.pdb
Info: Exclusions will be read from PARM file!
Info: SCNB (VDW SCALING)     2
Info: USING ARITHMETIC MEAN TO COMBINE L-J SIGMA PARAMETERS
Info: BINARY COORDINATES     mobley_5371840_min.coor
Info: SUMMARY OF PARAMETERS:
Info: 6 BONDS
Info: 5 ANGLES
Info:   5 HARMONIC
Info:   0 COSINE-BASED
Info: 3 DIHEDRAL
Info: 0 IMPROPER
Info: 0 CROSSTERM
Info: 0 VDW
Info: 21 VDW_PAIRS
Info: 0 NBTHOLE_PAIRS
Info: STRUCTURE SUMMARY:
Info: 2977 ATOMS
Info: 2979 BONDS
Info: 38 ANGLES
Info: 68 DIHEDRALS
Info: 0 IMPROPERS
Info: 0 CROSSTERMS
Info: 3064 EXCLUSIONS
Info: 2962 RIGID BONDS
Info: 5969 DEGREES OF FREEDOM
Info: 1000 HYDROGEN GROUPS
Info: 3 ATOMS IN LARGEST HYDROGEN GROUP
Info: 1000 MIGRATION GROUPS
Info: 3 ATOMS IN LARGEST MIGRATION GROUP
Info: TOTAL MASS = 17964.4 amu
Info: TOTAL CHARGE = -0.000200002 e
Info: MASS DENSITY = 0.67732 g/cm^3
Info: ATOM DENSITY = 0.0675929 atoms/A^3
Info: ADDED 0 IMPLICIT EXCLUSIONS
Info: NONBONDED TABLE R-SQUARED SPACING: 0.0625
Info: NONBONDED TABLE SIZE: 705 POINTS
Info: REMOVING COM VELOCITY -0.0473747 0.0196051 -0.0491879
TCL: Running for 100000 steps
ETITLE: TS BOND ANGLE DIHED IMPRP ELECT VDW BOUNDARY MISC KINETIC TOTAL TEMP POTENTIAL TOTAL3 TEMPAVG PRESSURE GPRESSURE VOLUME PRESSAVG GPRESSAVG
ENERGY: 0 0.4361 0.1507 0.1857 0.0000 -13666.0809 2384.9765 0.0000 0.0000 1710.0754 -9570.2565 288.3395 -11280.3319 -9569.9154 288.3395 170.8568 195.0301 44043.0582 170.8568 195.0301
ENERGY: 100000 0.9354 0.7898 1.0453 0.0000 -14325.4554 2569.7953 0.0000 0.0000 175.1671 -11577.7224 29.5353 -11752.8896 -11577.5535 30.9084 817.7932 861.0289 29397.1537 3.7919 3.7844
TCL: Running 100000 steps at 60 kelvin.
TCL: Setting parameter langevinTemp to 60
TCL: Running for 100000 steps
ETITLE: TS BOND ANGLE DIHED IMPRP ELECT VDW BOUNDARY MISC KINETIC TOTAL TEMP POTENTIAL TOTAL3 TEMPAVG PRESSURE GPRESSURE VOLUME PRESSAVG GPRESSAVG
ENERGY: 100000 0.9354 0.7898 1.0453 0.0000 -14325.4554 2569.7953 0.0000 0.0000 175.0781 -11577.8114 29.5203 -11752.8896 -11577.5018 29.5203 804.4709 861.0505 29397.1537 804.4709 861.0505
ENERGY: 200000 1.0399 1.1567 1.8204 0.0000 -13959.2376 2261.2316 0.0000 0.0000 350.4131 -11343.5759 59.0839 -11693.9890 -11342.7184 60.0030 -1360.9069 -1280.9585 29308.5436 5.9879 6.0239
TCL: Running 100000 steps at 90 kelvin.
TCL: Setting parameter langevinTemp to 90
TCL: Running for 100000 steps
ETITLE: TS BOND ANGLE DIHED IMPRP ELECT VDW BOUNDARY MISC KINETIC TOTAL TEMP POTENTIAL TOTAL3 TEMPAVG PRESSURE GPRESSURE VOLUME PRESSAVG GPRESSAVG
ENERGY: 200000 1.0399 1.1567 1.8204 0.0000 -13959.2376 2261.2316 0.0000 0.0000 350.2333 -11343.7557 59.0536 -11693.9890 -11342.8874 59.0536 -1339.1416 -1281.3070 29308.5436 -1339.1416 -1281.3070
ENERGY: 300000 2.6083 1.9455 2.0263 0.0000 -14001.5659 2379.4949 0.0000 0.0000 517.5920 -11097.8988 87.2723 -11615.4908 -11096.1512 89.9605 -238.1211 -191.4936 29420.4162 3.9512 3.9627
TCL: Running 100000 steps at 120 kelvin.
TCL: Setting parameter langevinTemp to 120
TCL: Running for 100000 steps
ETITLE: TS BOND ANGLE DIHED IMPRP ELECT VDW BOUNDARY MISC KINETIC TOTAL TEMP POTENTIAL TOTAL3 TEMPAVG PRESSURE GPRESSURE VOLUME PRESSAVG GPRESSAVG
ENERGY: 300000 2.6083 1.9455 2.0263 0.0000 -14001.5659 2379.4949 0.0000 0.0000 517.3188 -11098.1720 87.2262 -11615.4908 -11097.1705 87.2262 -252.1558 -190.6117 29420.4162 -252.1558 -190.6117
ENERGY: 400000 4.4564 1.6591 1.5300 0.0000 -13788.7147 2270.4615 0.0000 0.0000 696.6012 -10814.0064 117.4554 -11510.6077 -10811.2555 119.8825 -759.3427 -756.9324 29327.8869 3.8315 3.8380
TCL: Running 100000 steps at 150 kelvin.
TCL: Setting parameter langevinTemp to 150
TCL: Running for 100000 steps
ETITLE: TS BOND ANGLE DIHED IMPRP ELECT VDW BOUNDARY MISC KINETIC TOTAL TEMP POTENTIAL TOTAL3 TEMPAVG PRESSURE GPRESSURE VOLUME PRESSAVG GPRESSAVG
ENERGY: 400000 4.4564 1.6591 1.5300 0.0000 -13788.7147 2270.4615 0.0000 0.0000 696.2609 -10814.3468 117.3980 -11510.6077 -10813.1278 117.3980 -800.9126 -756.0169 29327.8869 -800.9126 -756.0169
ENERGY: 500000 2.8324 1.5920 3.6510 0.0000 -13659.2474 2292.1209 0.0000 0.0000 921.8361 -10437.2151 155.4327 -11359.0512 -10435.4720 149.8316 272.2763 336.6246 28899.6356 4.6703 4.6033
TCL: Running 100000 steps at 180 kelvin.
TCL: Setting parameter langevinTemp to 180
TCL: Running for 100000 steps
ETITLE: TS BOND ANGLE DIHED IMPRP ELECT VDW BOUNDARY MISC KINETIC TOTAL TEMP POTENTIAL TOTAL3 TEMPAVG PRESSURE GPRESSURE VOLUME PRESSAVG GPRESSAVG
ENERGY: 500000 2.8324 1.5920 3.6510 0.0000 -13659.2474 2292.1209 0.0000 0.0000 921.4097 -10437.6416 155.3608 -11359.0512 -10435.9236 155.3608 274.2320 336.0525 28899.6356 274.2320 336.0525
ENERGY: 600000 1.5783 5.9215 1.6375 0.0000 -13058.4638 1993.6245 0.0000 0.0000 1091.6513 -9964.0508 184.0657 -11055.7022 -9960.9120 179.8838 -1280.6533 -1231.5235 29620.6215 2.7996 2.9009
TCL: Running 100000 steps at 210 kelvin.
TCL: Setting parameter langevinTemp to 210
TCL: Running for 100000 steps
ETITLE: TS BOND ANGLE DIHED IMPRP ELECT VDW BOUNDARY MISC KINETIC TOTAL TEMP POTENTIAL TOTAL3 TEMPAVG PRESSURE GPRESSURE VOLUME PRESSAVG GPRESSAVG
ENERGY: 600000 1.5783 5.9215 1.6375 0.0000 -13058.4638 1993.6245 0.0000 0.0000 1091.1164 -9964.5858 183.9755 -11055.7022 -9962.1015 183.9755 -1292.4586 -1231.6627 29620.6215 -1292.4586 -1231.6627
ENERGY: 700000 3.2782 3.9411 4.1776 0.0000 -12475.9539 1867.2035 0.0000 0.0000 1258.4879 -9338.8657 212.1963 -10597.3535 -9334.7789 209.5606 -305.0039 -226.2124 29010.6449 4.6899 4.5440
TCL: Running 100000 steps at 240 kelvin.
TCL: Setting parameter langevinTemp to 240
TCL: Running for 100000 steps
ETITLE: TS BOND ANGLE DIHED IMPRP ELECT VDW BOUNDARY MISC KINETIC TOTAL TEMP POTENTIAL TOTAL3 TEMPAVG PRESSURE GPRESSURE VOLUME PRESSAVG GPRESSAVG
ENERGY: 700000 3.2782 3.9411 4.1776 0.0000 -12475.9539 1867.2035 0.0000 0.0000 1257.8880 -9339.4656 212.0952 -10597.3535 -9336.8964 212.0952 -286.4647 -224.9223 29010.6449 -286.4647 -224.9223
ENERGY: 800000 3.4294 2.1323 3.0866 0.0000 -11732.5597 1667.4833 0.0000 0.0000 1407.7928 -8648.6353 237.3709 -10056.4281 -8645.4232 239.8359 -464.1272 -356.5943 29787.7095 3.6065 3.7111
TCL: Running 100000 steps at 270 kelvin.
TCL: Setting parameter langevinTemp to 270
TCL: Running for 100000 steps
ETITLE: TS BOND ANGLE DIHED IMPRP ELECT VDW BOUNDARY MISC KINETIC TOTAL TEMP POTENTIAL TOTAL3 TEMPAVG PRESSURE GPRESSURE VOLUME PRESSAVG GPRESSAVG
ENERGY: 800000 3.4294 2.1323 3.0866 0.0000 -11732.5597 1667.4833 0.0000 0.0000 1407.0641 -8649.3640 237.2481 -10056.4281 -8646.8801 237.2481 -448.7893 -356.8512 29787.7095 -448.7893 -356.8512
ENERGY: 900000 5.4520 2.2012 2.6061 0.0000 -11270.3576 1566.0940 0.0000 0.0000 1568.9575 -8125.0467 264.5453 -9694.0042 -8121.8702 270.0341 -101.8105 -32.3028 30045.8209 4.2160 4.0074
TCL: Running 1000000 steps at 300 kelvin.
TCL: Setting parameter langevinTemp to 300
TCL: Running for 1000000 steps
ETITLE: TS BOND ANGLE DIHED IMPRP ELECT VDW BOUNDARY MISC KINETIC TOTAL TEMP POTENTIAL TOTAL3 TEMPAVG PRESSURE GPRESSURE VOLUME PRESSAVG GPRESSAVG
ENERGY: 900000 5.4520 2.2012 2.6061 0.0000 -11270.3576 1566.0940 0.0000 0.0000 1568.1460 -8125.8583 264.4084 -9694.0042 -8122.3473 264.4084 -104.3190 -33.1981 30045.8209 -104.3190 -33.1981
ENERGY: 1100000 4.4520 4.1884 4.3121 0.0000 -10812.9416 1479.4800 0.0000 0.0000 1774.0304 -7546.4787 299.1230 -9320.5091 -7542.3242 300.1826 375.9596 435.6044 30144.2315 2.8191 2.7797
ENERGY: 1300000 7.7864 5.5116 2.8800 0.0000 -10897.1634 1492.4958 0.0000 0.0000 1717.2730 -7671.2165 289.5531 -9388.4896 -7669.4128 300.0878 302.4166 374.5936 30226.0540 3.4790 3.3779
ENERGY: 1500000 4.0311 4.0102 5.3542 0.0000 -10729.5497 1421.8350 0.0000 0.0000 1731.8383 -7562.4808 292.0089 -9294.3191 -7557.5576 299.6211 -288.0443 -155.5547 30782.9057 2.8127 2.8956
ENERGY: 1700000 4.7375 4.1493 8.0713 0.0000 -10653.0377 1428.1575 0.0000 0.0000 1760.8110 -7447.1111 296.8941 -9207.9221 -7444.9124 299.8872 -60.2528 35.3719 30920.3364 3.9946 3.9911
ENERGY: 1900000 5.9105 7.1813 4.4083 0.0000 -10749.6046 1446.7165 0.0000 0.0000 1821.6747 -7463.7134 307.1564 -9285.3880 -7459.1537 300.0399 158.1875 235.8261 30408.0837 2.8839 2.9463
TCL: Exiting due to exit command.
