Info: SIMULATION PARAMETERS:
Info: TIMESTEP               2
Info: NUMBER OF STEPS        0
Info: STEPS PER CYCLE        10
Info: PERIODIC CELL BASIS 1  35.89 0 0
Info: PERIODIC CELL BASIS 2  0 35.411 0
Info: PERIODIC CELL BASIS 3  0 0 34.68
Info: PERIODIC CELL CENTER   0 0 0
Info: WRAPPING WATERS AROUND PERIODIC BOUNDARIES ON OUTPUT.
Info: WRAPPING ALL CLUSTERS AROUND PERIODIC BOUNDARIES ON OUTPUT.
Info: FIRST LDB TIMESTEP     50
Info: LAST LDB TIMESTEP     -1
Info: HOM BACKGROUND SCALING 1
Info: PME BACKGROUND SCALING 1
Info: MIN ATOMS PER PATCH    40
Info: EMPTY PATCH LOAD       40 ATOMS
Info: INITIAL TEMPERATURE    300
Info: CENTER OF MASS MOVING INITIALLY? NO
Info: DIELECTRIC             1
Info: EXCLUDE                SCALED ONE-FOUR
Info: 1-4 ELECTROSTATICS SCALED BY 0.833333
Info: MODIFIED 1-4 VDW PARAMETERS WILL BE USED
Info: DCD FILENAME           mobley_7047032_equil.dcd
Info: DCD FREQUENCY          100000
Info: DCD FIRST STEP         100000
Info: DCD FILE WILL CONTAIN UNIT CELL DATA
Info: XST FILENAME           mobley_7047032_equil.xst
Info: XST FREQUENCY          100000
Info: NO VELOCITY DCD OUTPUT
Info: NO FORCE DCD OUTPUT
Info: OUTPUT FILENAME        mobley_7047032_equil
Info: BINARY OUTPUT FILES WILL BE USED
Info: RESTART FILENAME       mobley_7047032_equil.restart
Info: RESTART FREQUENCY      100000
Info: BINARY RESTART FILES WILL BE USED
Info: CUTOFF                 9
Info: PAIRLIST DISTANCE      11
Info: PAIRLIST SHRINK RATE   0.01
Info: PAIRLIST GROW RATE     0.01
Info: PAIRLIST TRIGGER       0.3
Info: PAIRLISTS PER CYCLE    2
Info: PAIRLISTS ENABLED
Info: MARGIN                 8
Info: HYDROGEN GROUP CUTOFF  2.5
Info: PATCH DIMENSION        21.5
Info: ENERGY OUTPUT STEPS    100000
Info: ENERGY EVALUATION STEPS    100000
Info: OUTPUT ENERGY PRECISION 4
Info: CROSSTERM ENERGY INCLUDED IN DIHEDRAL
Info: TIMING OUTPUT STEPS    1000000
Info: PRESSURE OUTPUT STEPS  100000
Info: LANGEVIN DYNAMICS ACTIVE
Info: LANGEVIN TEMPERATURE   30
Info: LANGEVIN USING BBK INTEGRATOR
Info: LANGEVIN DAMPING COEFFICIENT IS 1 INVERSE PS
Info: LANGEVIN DYNAMICS APPLIED TO HYDROGENS
Info: LANGEVIN PISTON PRESSURE CONTROL ACTIVE
Info:        TARGET PRESSURE IS 1.01325 BAR
Info:     OSCILLATION PERIOD IS 50 FS
Info:             DECAY TIME IS 25 FS
Info:     PISTON TEMPERATURE IS 300 K
Info:       PRESSURE CONTROL IS GROUP-BASED
Info:    INITIAL STRAIN RATE IS 0 0 0
Info:       CELL FLUCTUATION IS ISOTROPIC
Info: PARTICLE MESH EWALD (PME) ACTIVE
Info: PME TOLERANCE               1e-06
Info: PME EWALD COEFFICIENT       0.348832
Info: PME INTERPOLATION ORDER     4
Info: PME GRID DIMENSIONS         36 36 36
Info: PME MAXIMUM GRID SPACING    1
Info: FULL ELECTROSTATIC EVALUATION FREQUENCY      2
Info: USING VERLET I (r-RESPA) MTS SCHEME.
Info: C1 SPLITTING OF LONG RANGE ELECTROSTATICS
Info: PLACING ATOMS IN PATCHES BY HYDROGEN GROUPS
Info: RIGID BONDS TO HYDROGEN : ALL
Info:         ERROR TOLERANCE : 1e-08
Info:          MAX ITERATIONS : 100
Info: RIGID WATER USING SETTLE ALGORITHM
Info: RANDOM NUMBER SEED     1743210858
Info: USE HYDROGEN BONDS?    NO
Info: Using AMBER format force field!
Info: AMBER PARM FILE        mobley_7047032.prmtop
Info: COORDINATE PDB         mobley_7047032.pdb
Info: Exclusions will be read from PARM file!
Info: SCNB (VDW SCALING)     2
Info: USING ARITHMETIC MEAN TO COMBINE L-J SIGMA PARAMETERS
Info: BINARY COORDINATES     mobley_7047032_min.coor
Info: SUMMARY OF PARAMETERS:
Info: 5 BONDS
Info: 4 ANGLES
Info:   4 HARMONIC
Info:   0 COSINE-BASED
Info: 3 DIHEDRAL
Info: 0 IMPROPER
Info: 0 CROSSTERM
Info: 0 VDW
Info: 15 VDW_PAIRS
Info: 0 NBTHOLE_PAIRS
Info: STRUCTURE SUMMARY:
Info: 2906 ATOMS
Info: 2905 BONDS
Info: 24 ANGLES
Info: 36 DIHEDRALS
Info: 0 IMPROPERS
Info: 0 CROSSTERMS
Info: 2956 EXCLUSIONS
Info: 2901 RIGID BONDS
Info: 5817 DEGREES OF FREEDOM
Info: 969 HYDROGEN GROUPS
Info: 4 ATOMS IN LARGEST HYDROGEN GROUP
Info: 969 MIGRATION GROUPS
Info: 4 ATOMS IN LARGEST MIGRATION GROUP
Info: TOTAL MASS = 17460 amu
Info: TOTAL CHARGE = 0.000100009 e
Info: MASS DENSITY = 0.657828 g/cm^3
Info: ATOM DENSITY = 0.0659333 atoms/A^3
Info: ADDED 0 IMPLICIT EXCLUSIONS
Info: NONBONDED TABLE R-SQUARED SPACING: 0.0625
Info: NONBONDED TABLE SIZE: 705 POINTS
Info: REMOVING COM VELOCITY 0.048802 0.132209 0.170028
TCL: Running for 100000 steps
ETITLE: TS BOND ANGLE DIHED IMPRP ELECT VDW BOUNDARY MISC KINETIC TOTAL TEMP POTENTIAL TOTAL3 TEMPAVG PRESSURE GPRESSURE VOLUME PRESSAVG GPRESSAVG
ENERGY: 0 0.0266 0.4460 2.2690 0.0000 -13492.1891 2375.1234 0.0000 0.0000 1747.9864 -9366.3376 302.4331 -11114.3240 -9365.9963 302.4331 566.7212 604.8557 44074.8394 566.7212 604.8557
ENERGY: 100000 0.0717 0.9643 2.2889 0.0000 -14031.9265 2450.9444 0.0000 0.0000 174.1897 -11403.4674 30.1380 -11577.6572 -11402.7259 30.9600 157.6575 205.2287 28356.0354 3.1213 3.1848
TCL: Running 100000 steps at 60 kelvin.
TCL: Setting parameter langevinTemp to 60
TCL: Running for 100000 steps
ETITLE: TS BOND ANGLE DIHED IMPRP ELECT VDW BOUNDARY MISC KINETIC TOTAL TEMP POTENTIAL TOTAL3 TEMPAVG PRESSURE GPRESSURE VOLUME PRESSAVG GPRESSAVG
ENERGY: 100000 0.0717 0.9643 2.2889 0.0000 -14031.9265 2450.9444 0.0000 0.0000 174.1006 -11403.5566 30.1225 -11577.6572 -11403.1140 30.1225 149.4529 205.5025 28356.0354 149.4529 205.5025
ENERGY: 200000 0.2229 1.9743 2.4181 0.0000 -13868.7354 2337.6906 0.0000 0.0000 336.0661 -11190.3634 58.1455 -11526.4295 -11189.5585 59.9547 -614.6707 -570.2542 28083.0328 4.1711 4.1708
TCL: Running 100000 steps at 90 kelvin.
TCL: Setting parameter langevinTemp to 90
TCL: Running for 100000 steps
ETITLE: TS BOND ANGLE DIHED IMPRP ELECT VDW BOUNDARY MISC KINETIC TOTAL TEMP POTENTIAL TOTAL3 TEMPAVG PRESSURE GPRESSURE VOLUME PRESSAVG GPRESSAVG
ENERGY: 200000 0.2229 1.9743 2.4181 0.0000 -13868.7354 2337.6906 0.0000 0.0000 335.8988 -11190.5306 58.1165 -11526.4295 -11189.8936 58.1165 -631.8336 -570.0905 28083.0328 -631.8336 -570.0905
ENERGY: 300000 0.3373 3.1907 2.3585 0.0000 -13884.3836 2471.7734 0.0000 0.0000 531.9910 -10874.7328 92.0440 -11406.7238 -10873.9370 90.0586 1299.2080 1355.6626 27631.8684 4.6520 4.7300
TCL: Running 100000 steps at 120 kelvin.
TCL: Setting parameter langevinTemp to 120
TCL: Running for 100000 steps
ETITLE: TS BOND ANGLE DIHED IMPRP ELECT VDW BOUNDARY MISC KINETIC TOTAL TEMP POTENTIAL TOTAL3 TEMPAVG PRESSURE GPRESSURE VOLUME PRESSAVG GPRESSAVG
ENERGY: 300000 0.3373 3.1907 2.3585 0.0000 -13884.3836 2471.7734 0.0000 0.0000 531.7311 -10874.9927 91.9991 -11406.7238 -10873.9181 91.9991 1308.8353 1355.4115 27631.8684 1308.8353 1355.4115
ENERGY: 400000 0.4477 2.8466 2.5363 0.0000 -13465.8886 2172.0792 0.0000 0.0000 686.6147 -10601.3641 118.7967 -11287.9789 -10599.3302 119.6460 -1007.1876 -932.9452 28277.2696 2.4348 2.5149
TCL: Running 100000 steps at 150 kelvin.
TCL: Setting parameter langevinTemp to 150
TCL: Running for 100000 steps
ETITLE: TS BOND ANGLE DIHED IMPRP ELECT VDW BOUNDARY MISC KINETIC TOTAL TEMP POTENTIAL TOTAL3 TEMPAVG PRESSURE GPRESSURE VOLUME PRESSAVG GPRESSAVG
ENERGY: 400000 0.4477 2.8466 2.5363 0.0000 -13465.8886 2172.0792 0.0000 0.0000 686.2603 -10601.7186 118.7354 -11287.9789 -10600.2831 118.7354 -984.1492 -932.1073 28277.2696 -984.1492 -932.1073
ENERGY: 500000 1.4372 3.8936 2.4404 0.0000 -13433.2882 2330.4976 0.0000 0.0000 885.2794 -10209.7400 153.1693 -11095.0194 -10207.8510 150.0995 878.5308 951.7744 28277.0299 4.3354 4.2956
TCL: Running 100000 steps at 180 kelvin.
TCL: Setting parameter langevinTemp to 180
TCL: Running for 100000 steps
ETITLE: TS BOND ANGLE DIHED IMPRP ELECT VDW BOUNDARY MISC KINETIC TOTAL TEMP POTENTIAL TOTAL3 TEMPAVG PRESSURE GPRESSURE VOLUME PRESSAVG GPRESSAVG
ENERGY: 500000 1.4372 3.8936 2.4404 0.0000 -13433.2882 2330.4976 0.0000 0.0000 884.8573 -10210.1620 153.0963 -11095.0194 -10208.8203 153.0963 882.6808 952.3228 28277.0299 882.6808 952.3228
ENERGY: 600000 0.3492 4.1729 2.7362 0.0000 -12925.7696 2082.4980 0.0000 0.0000 1042.7088 -9793.3044 180.4074 -10836.0132 -9792.2819 180.1348 -419.2664 -327.4891 28851.9154 4.8814 4.9128
TCL: Running 100000 steps at 210 kelvin.
TCL: Setting parameter langevinTemp to 210
TCL: Running for 100000 steps
ETITLE: TS BOND ANGLE DIHED IMPRP ELECT VDW BOUNDARY MISC KINETIC TOTAL TEMP POTENTIAL TOTAL3 TEMPAVG PRESSURE GPRESSURE VOLUME PRESSAVG GPRESSAVG
ENERGY: 600000 0.3492 4.1729 2.7362 0.0000 -12925.7696 2082.4980 0.0000 0.0000 1042.1641 -9793.8491 180.3132 -10836.0132 -9792.0133 180.3132 -407.4093 -328.9662 28851.9154 -407.4093 -328.9662
ENERGY: 700000 1.9032 5.9840 2.6598 0.0000 -12222.9535 1873.1291 0.0000 0.0000 1186.1605 -9153.1169 205.2271 -10339.2774 -9151.3241 209.6136 215.5121 302.3002 28201.9745 1.4572 1.5316
TCL: Running 100000 steps at 240 kelvin.
TCL: Setting parameter langevinTemp to 240
TCL: Running for 100000 steps
ETITLE: TS BOND ANGLE DIHED IMPRP ELECT VDW BOUNDARY MISC KINETIC TOTAL TEMP POTENTIAL TOTAL3 TEMPAVG PRESSURE GPRESSURE VOLUME PRESSAVG GPRESSAVG
ENERGY: 700000 1.9032 5.9840 2.6598 0.0000 -12222.9535 1873.1291 0.0000 0.0000 1185.5693 -9153.7081 205.1248 -10339.2774 -9151.5026 205.1248 231.0625 300.8283 28201.9745 231.0625 300.8283
ENERGY: 800000 0.7212 7.6586 2.6695 0.0000 -11575.9006 1645.6497 0.0000 0.0000 1374.5638 -8544.6378 237.8243 -9919.2016 -8540.5653 240.0162 -163.8331 -143.3071 28342.6213 3.0154 3.0415
TCL: Running 100000 steps at 270 kelvin.
TCL: Setting parameter langevinTemp to 270
TCL: Running for 100000 steps
ETITLE: TS BOND ANGLE DIHED IMPRP ELECT VDW BOUNDARY MISC KINETIC TOTAL TEMP POTENTIAL TOTAL3 TEMPAVG PRESSURE GPRESSURE VOLUME PRESSAVG GPRESSAVG
ENERGY: 800000 0.7212 7.6586 2.6695 0.0000 -11575.9006 1645.6497 0.0000 0.0000 1373.8906 -8545.3110 237.7078 -9919.2016 -8543.3702 237.7078 -219.7173 -141.2051 28342.6213 -219.7173 -141.2051
ENERGY: 900000 0.6592 3.2524 2.7857 0.0000 -11201.6281 1628.6913 0.0000 0.0000 1576.1728 -7990.0666 272.7063 -9566.2395 -7985.1144 270.0104 746.1664 777.3478 28876.4176 2.5656 2.3892
TCL: Running 1000000 steps at 300 kelvin.
TCL: Setting parameter langevinTemp to 300
TCL: Running for 1000000 steps
ETITLE: TS BOND ANGLE DIHED IMPRP ELECT VDW BOUNDARY MISC KINETIC TOTAL TEMP POTENTIAL TOTAL3 TEMPAVG PRESSURE GPRESSURE VOLUME PRESSAVG GPRESSAVG
ENERGY: 900000 0.6592 3.2524 2.7857 0.0000 -11201.6281 1628.6913 0.0000 0.0000 1575.3746 -7990.8649 272.5682 -9566.2395 -7988.5942 272.5682 688.2077 778.5294 28876.4176 688.2077 778.5294
ENERGY: 1100000 3.2471 6.7903 3.2189 0.0000 -10556.5334 1424.6284 0.0000 0.0000 1704.6619 -7413.9869 294.9372 -9118.6488 -7409.3809 300.1471 -249.0770 -172.4789 30213.6692 2.2720 2.2461
ENERGY: 1300000 0.5924 3.6023 2.4062 0.0000 -10398.4923 1335.2701 0.0000 0.0000 1706.7098 -7349.9115 295.2915 -9056.6213 -7347.7314 299.2507 -421.6016 -400.1516 29994.3643 1.1892 1.2368
ENERGY: 1500000 1.1234 7.0088 2.5976 0.0000 -10456.7657 1348.8901 0.0000 0.0000 1707.1300 -7390.0159 295.3642 -9097.1458 -7385.7537 300.5617 -413.6303 -388.6143 30069.4152 2.1259 2.1020
ENERGY: 1700000 0.2357 6.0505 2.9094 0.0000 -10615.7377 1446.8174 0.0000 0.0000 1772.5008 -7387.2239 306.6746 -9159.7247 -7383.4963 300.0078 108.8951 212.8343 29932.0872 4.8165 4.7130
ENERGY: 1900000 0.7194 6.8295 2.5336 0.0000 -10585.8947 1452.4635 0.0000 0.0000 1691.1829 -7432.1658 292.6051 -9123.3487 -7428.3512 300.2408 246.4066 358.0810 29783.3811 3.5407 3.4164
TCL: Exiting due to exit command.
