Info: SIMULATION PARAMETERS:
Info: TIMESTEP               2
Info: NUMBER OF STEPS        0
Info: STEPS PER CYCLE        10
Info: PERIODIC CELL BASIS 1  36.592 0 0
Info: PERIODIC CELL BASIS 2  0 34.26 0
Info: PERIODIC CELL BASIS 3  0 0 34.471
Info: PERIODIC CELL CENTER   0 0 0
Info: WRAPPING WATERS AROUND PERIODIC BOUNDARIES ON OUTPUT.
Info: WRAPPING ALL CLUSTERS AROUND PERIODIC BOUNDARIES ON OUTPUT.
Info: FIRST LDB TIMESTEP     50
Info: LAST LDB TIMESTEP     -1
Info: HOM BACKGROUND SCALING 1
Info: PME BACKGROUND SCALING 1
Info: MIN ATOMS PER PATCH    40
Info: EMPTY PATCH LOAD       40 ATOMS
Info: INITIAL TEMPERATURE    300
Info: CENTER OF MASS MOVING INITIALLY? NO
Info: DIELECTRIC             1
Info: EXCLUDE                SCALED ONE-FOUR
Info: 1-4 ELECTROSTATICS SCALED BY 0.833333
Info: MODIFIED 1-4 VDW PARAMETERS WILL BE USED
Info: DCD FILENAME           mobley_3762186_equil.dcd
Info: DCD FREQUENCY          100000
Info: DCD FIRST STEP         100000
Info: DCD FILE WILL CONTAIN UNIT CELL DATA
Info: XST FILENAME           mobley_3762186_equil.xst
Info: XST FREQUENCY          100000
Info: NO VELOCITY DCD OUTPUT
Info: NO FORCE DCD OUTPUT
Info: OUTPUT FILENAME        mobley_3762186_equil
Info: BINARY OUTPUT FILES WILL BE USED
Info: RESTART FILENAME       mobley_3762186_equil.restart
Info: RESTART FREQUENCY      100000
Info: BINARY RESTART FILES WILL BE USED
Info: CUTOFF                 9
Info: PAIRLIST DISTANCE      11
Info: PAIRLIST SHRINK RATE   0.01
Info: PAIRLIST GROW RATE     0.01
Info: PAIRLIST TRIGGER       0.3
Info: PAIRLISTS PER CYCLE    2
Info: PAIRLISTS ENABLED
Info: MARGIN                 8
Info: HYDROGEN GROUP CUTOFF  2.5
Info: PATCH DIMENSION        21.5
Info: ENERGY OUTPUT STEPS    100000
Info: ENERGY EVALUATION STEPS    100000
Info: OUTPUT ENERGY PRECISION 4
Info: CROSSTERM ENERGY INCLUDED IN DIHEDRAL
Info: TIMING OUTPUT STEPS    1000000
Info: PRESSURE OUTPUT STEPS  100000
Info: FIXED ATOMS ACTIVE
Info: LANGEVIN DYNAMICS ACTIVE
Info: LANGEVIN TEMPERATURE   30
Info: LANGEVIN USING BBK INTEGRATOR
Info: LANGEVIN DAMPING COEFFICIENT IS 1 INVERSE PS
Info: LANGEVIN DYNAMICS APPLIED TO HYDROGENS
Info: LANGEVIN PISTON PRESSURE CONTROL ACTIVE
Info:        TARGET PRESSURE IS 1.01325 BAR
Info:     OSCILLATION PERIOD IS 50 FS
Info:             DECAY TIME IS 25 FS
Info:     PISTON TEMPERATURE IS 300 K
Info:       PRESSURE CONTROL IS GROUP-BASED
Info:    INITIAL STRAIN RATE IS 0 0 0
Info:       CELL FLUCTUATION IS ISOTROPIC
Info: PARTICLE MESH EWALD (PME) ACTIVE
Info: PME TOLERANCE               1e-06
Info: PME EWALD COEFFICIENT       0.348832
Info: PME INTERPOLATION ORDER     4
Info: PME GRID DIMENSIONS         40 36 36
Info: PME MAXIMUM GRID SPACING    1
Info: FULL ELECTROSTATIC EVALUATION FREQUENCY      2
Info: USING VERLET I (r-RESPA) MTS SCHEME.
Info: C1 SPLITTING OF LONG RANGE ELECTROSTATICS
Info: PLACING ATOMS IN PATCHES BY HYDROGEN GROUPS
Info: RIGID BONDS TO HYDROGEN : ALL
Info:         ERROR TOLERANCE : 1e-08
Info:          MAX ITERATIONS : 100
Info: RIGID WATER USING SETTLE ALGORITHM
Info: RANDOM NUMBER SEED     1743673418
Info: USE HYDROGEN BONDS?    NO
Info: Using AMBER format force field!
Info: AMBER PARM FILE        mobley_3762186.prmtop
Info: COORDINATE PDB         mobley_3762186.pdb
Info: Exclusions will be read from PARM file!
Info: SCNB (VDW SCALING)     2
Info: USING ARITHMETIC MEAN TO COMBINE L-J SIGMA PARAMETERS
Info: BINARY COORDINATES     mobley_3762186_min.coor
Info: SUMMARY OF PARAMETERS:
Info: 4 BONDS
Info: 3 ANGLES
Info:   3 HARMONIC
Info:   0 COSINE-BASED
Info: 0 DIHEDRAL
Info: 0 IMPROPER
Info: 0 CROSSTERM
Info: 0 VDW
Info: 15 VDW_PAIRS
Info: 0 NBTHOLE_PAIRS
Info: STRUCTURE SUMMARY:
Info: 2927 ATOMS
Info: 2926 BONDS
Info: 6 ANGLES
Info: 0 DIHEDRALS
Info: 0 IMPROPERS
Info: 0 CROSSTERMS
Info: 2932 EXCLUSIONS
Info: 5 FIXED ATOMS
Info: 2924 RIGID BONDS
Info: 2 RIGID BONDS BETWEEN FIXED ATOMS
Info: 5844 DEGREES OF FREEDOM
Info: 977 HYDROGEN GROUPS
Info: 3 ATOMS IN LARGEST HYDROGEN GROUP
Info: 977 MIGRATION GROUPS
Info: 3 ATOMS IN LARGEST MIGRATION GROUP
Info: 3 HYDROGEN GROUPS WITH ALL ATOMS FIXED
Info: TOTAL MASS = 17632.5 amu
Info: TOTAL CHARGE = 1.49012e-08 e
Info: MASS DENSITY = 0.677557 g/cm^3
Info: ATOM DENSITY = 0.0677322 atoms/A^3
Info: ADDED 0 IMPLICIT EXCLUSIONS
Info: NONBONDED TABLE R-SQUARED SPACING: 0.0625
Info: NONBONDED TABLE SIZE: 705 POINTS
Info: REMOVING COM VELOCITY -0.0680156 0.204741 0.0284248
TCL: Running for 100000 steps
ETITLE: TS BOND ANGLE DIHED IMPRP ELECT VDW BOUNDARY MISC KINETIC TOTAL TEMP POTENTIAL TOTAL3 TEMPAVG PRESSURE GPRESSURE VOLUME PRESSAVG GPRESSAVG
ENERGY: 0 0.0000 0.0000 0.0000 0.0000 -13624.8923 2373.7673 0.0000 0.0000 1797.0753 -9454.0497 309.4899 -11251.1250 -9453.6661 309.4899 147.1576 175.0560 43214.2906 147.1576 175.0560
ENERGY: 100000 0.0000 0.0000 0.0000 0.0000 -14158.7051 2544.3618 0.0000 0.0000 175.5122 -11438.8310 30.2265 -11614.3433 -11438.4538 30.9112 648.2075 694.8505 29773.8921 3.5263 3.5277
TCL: Running 100000 steps at 60 kelvin.
TCL: Setting parameter langevinTemp to 60
TCL: Running for 100000 steps
ETITLE: TS BOND ANGLE DIHED IMPRP ELECT VDW BOUNDARY MISC KINETIC TOTAL TEMP POTENTIAL TOTAL3 TEMPAVG PRESSURE GPRESSURE VOLUME PRESSAVG GPRESSAVG
ENERGY: 100000 0.0000 0.0000 0.0000 0.0000 -14158.7051 2544.3618 0.0000 0.0000 175.4276 -11438.9157 30.2119 -11614.3433 -11438.5273 30.2119 653.9211 694.7748 29773.8921 653.9211 694.7748
ENERGY: 200000 0.0000 0.0000 0.0000 0.0000 -13776.6525 2213.0084 0.0000 0.0000 353.7693 -11209.8747 60.9257 -11563.6440 -11208.5599 59.8497 -1677.8110 -1618.4310 29643.5077 4.6333 4.5780
TCL: Running 100000 steps at 90 kelvin.
TCL: Setting parameter langevinTemp to 90
TCL: Running for 100000 steps
ETITLE: TS BOND ANGLE DIHED IMPRP ELECT VDW BOUNDARY MISC KINETIC TOTAL TEMP POTENTIAL TOTAL3 TEMPAVG PRESSURE GPRESSURE VOLUME PRESSAVG GPRESSAVG
ENERGY: 200000 0.0000 0.0000 0.0000 0.0000 -13776.6525 2213.0084 0.0000 0.0000 353.5962 -11210.0478 60.8959 -11563.6440 -11209.1294 60.8959 -1676.2213 -1617.8185 29643.5077 -1676.2213 -1617.8185
ENERGY: 300000 0.0000 0.0000 0.0000 0.0000 -13834.4209 2341.8464 0.0000 0.0000 520.8785 -10971.6960 89.7050 -11492.5745 -10970.1082 89.8996 -189.9055 -131.7389 28962.0391 4.3976 4.4292
TCL: Running 100000 steps at 120 kelvin.
TCL: Setting parameter langevinTemp to 120
TCL: Running for 100000 steps
ETITLE: TS BOND ANGLE DIHED IMPRP ELECT VDW BOUNDARY MISC KINETIC TOTAL TEMP POTENTIAL TOTAL3 TEMPAVG PRESSURE GPRESSURE VOLUME PRESSAVG GPRESSAVG
ENERGY: 300000 0.0000 0.0000 0.0000 0.0000 -13834.4209 2341.8464 0.0000 0.0000 520.6172 -10971.9573 89.6600 -11492.5745 -10970.8059 89.6600 -179.9421 -131.7787 28962.0391 -179.9421 -131.7787
ENERGY: 400000 0.0000 0.0000 0.0000 0.0000 -13661.1787 2291.2553 0.0000 0.0000 711.1106 -10658.8129 122.4665 -11369.9234 -10657.6032 120.0250 -90.6837 -50.9480 28786.2488 4.5965 4.5536
TCL: Running 100000 steps at 150 kelvin.
TCL: Setting parameter langevinTemp to 150
TCL: Running for 100000 steps
ETITLE: TS BOND ANGLE DIHED IMPRP ELECT VDW BOUNDARY MISC KINETIC TOTAL TEMP POTENTIAL TOTAL3 TEMPAVG PRESSURE GPRESSURE VOLUME PRESSAVG GPRESSAVG
ENERGY: 400000 0.0000 0.0000 0.0000 0.0000 -13661.1787 2291.2553 0.0000 0.0000 710.7632 -10659.1602 122.4067 -11369.9234 -10657.9937 122.4067 -88.5095 -51.0454 28786.2488 -88.5095 -51.0454
ENERGY: 500000 0.0000 0.0000 0.0000 0.0000 -13479.2848 2252.7163 0.0000 0.0000 890.2289 -10336.3396 153.3140 -11226.5685 -10333.7273 150.3909 51.3555 79.3854 28839.1574 4.5326 4.4874
TCL: Running 100000 steps at 180 kelvin.
TCL: Setting parameter langevinTemp to 180
TCL: Running for 100000 steps
ETITLE: TS BOND ANGLE DIHED IMPRP ELECT VDW BOUNDARY MISC KINETIC TOTAL TEMP POTENTIAL TOTAL3 TEMPAVG PRESSURE GPRESSURE VOLUME PRESSAVG GPRESSAVG
ENERGY: 500000 0.0000 0.0000 0.0000 0.0000 -13479.2848 2252.7163 0.0000 0.0000 889.8062 -10336.7623 153.2412 -11226.5685 -10335.2510 153.2412 30.4826 79.4023 28839.1574 30.4826 79.4023
ENERGY: 600000 0.0000 0.0000 0.0000 0.0000 -12967.4252 2029.3460 0.0000 0.0000 1073.5361 -9864.5431 184.8829 -10938.0793 -9861.6038 180.1780 -833.1774 -750.2042 28847.7483 3.7181 3.7504
TCL: Running 100000 steps at 210 kelvin.
TCL: Setting parameter langevinTemp to 210
TCL: Running for 100000 steps
ETITLE: TS BOND ANGLE DIHED IMPRP ELECT VDW BOUNDARY MISC KINETIC TOTAL TEMP POTENTIAL TOTAL3 TEMPAVG PRESSURE GPRESSURE VOLUME PRESSAVG GPRESSAVG
ENERGY: 600000 0.0000 0.0000 0.0000 0.0000 -12967.4252 2029.3460 0.0000 0.0000 1073.0307 -9865.0486 184.7959 -10938.0793 -9862.4004 184.7959 -817.5085 -750.2487 28847.7483 -817.5085 -750.2487
ENERGY: 700000 0.0000 0.0000 0.0000 0.0000 -12298.0626 1819.0546 0.0000 0.0000 1207.0117 -9271.9964 207.8699 -10479.0081 -9268.7367 209.7588 -957.9423 -890.1484 29200.0361 5.1716 5.0397
TCL: Running 100000 steps at 240 kelvin.
TCL: Setting parameter langevinTemp to 240
TCL: Running for 100000 steps
ETITLE: TS BOND ANGLE DIHED IMPRP ELECT VDW BOUNDARY MISC KINETIC TOTAL TEMP POTENTIAL TOTAL3 TEMPAVG PRESSURE GPRESSURE VOLUME PRESSAVG GPRESSAVG
ENERGY: 700000 0.0000 0.0000 0.0000 0.0000 -12298.0626 1819.0546 0.0000 0.0000 1206.4206 -9272.5875 207.7681 -10479.0081 -9270.4354 207.7681 -964.9594 -889.9124 29200.0361 -964.9594 -889.9124
ENERGY: 800000 0.0000 0.0000 0.0000 0.0000 -11739.4491 1699.1653 0.0000 0.0000 1349.7317 -8690.5522 232.4490 -10040.2838 -8687.9427 240.1358 -261.1770 -238.4891 29231.1131 3.8861 3.9464
TCL: Running 100000 steps at 270 kelvin.
TCL: Setting parameter langevinTemp to 270
TCL: Running for 100000 steps
ETITLE: TS BOND ANGLE DIHED IMPRP ELECT VDW BOUNDARY MISC KINETIC TOTAL TEMP POTENTIAL TOTAL3 TEMPAVG PRESSURE GPRESSURE VOLUME PRESSAVG GPRESSAVG
ENERGY: 800000 0.0000 0.0000 0.0000 0.0000 -11739.4491 1699.1653 0.0000 0.0000 1349.0494 -8691.2344 232.3315 -10040.2838 -8689.8961 232.3315 -326.7001 -239.2241 29231.1131 -326.7001 -239.2241
ENERGY: 900000 0.0000 0.0000 0.0000 0.0000 -11228.9495 1611.9658 0.0000 0.0000 1577.5337 -8039.4500 271.6807 -9616.9837 -8036.3069 270.2165 416.6488 537.2884 29423.4674 3.4279 3.3899
TCL: Running 1000000 steps at 300 kelvin.
TCL: Setting parameter langevinTemp to 300
TCL: Running for 1000000 steps
ETITLE: TS BOND ANGLE DIHED IMPRP ELECT VDW BOUNDARY MISC KINETIC TOTAL TEMP POTENTIAL TOTAL3 TEMPAVG PRESSURE GPRESSURE VOLUME PRESSAVG GPRESSAVG
ENERGY: 900000 0.0000 0.0000 0.0000 0.0000 -11228.9495 1611.9658 0.0000 0.0000 1576.7347 -8040.2489 271.5431 -9616.9837 -8038.1146 271.5431 451.2403 538.6426 29423.4674 451.2403 538.6426
ENERGY: 1100000 0.0000 0.0000 0.0000 0.0000 -10640.3965 1385.7925 0.0000 0.0000 1773.9898 -7480.6142 305.5141 -9254.6040 -7475.5061 300.1673 -485.7321 -419.0896 30202.1370 3.0711 3.2431
ENERGY: 1300000 0.0000 0.0000 0.0000 0.0000 -10674.2675 1466.1860 0.0000 0.0000 1690.1809 -7517.9005 291.0807 -9208.0814 -7517.0799 299.8335 270.2016 392.4533 30022.7322 3.7641 3.8903
ENERGY: 1500000 0.0000 0.0000 0.0000 0.0000 -10829.7901 1523.9107 0.0000 0.0000 1750.0394 -7555.8400 301.3894 -9305.8794 -7553.1656 299.5570 517.1865 624.2099 29753.7946 1.6621 1.6369
ENERGY: 1700000 0.0000 0.0000 0.0000 0.0000 -10599.7008 1367.7563 0.0000 0.0000 1784.8979 -7447.0465 307.3927 -9231.9445 -7441.7232 300.5171 -637.2548 -553.5323 30231.0436 3.1477 2.8617
ENERGY: 1900000 0.0000 0.0000 0.0000 0.0000 -10580.6919 1369.6194 0.0000 0.0000 1727.7502 -7483.3223 297.5508 -9211.0725 -7479.4000 300.2634 -433.0728 -381.2473 30163.2092 3.8500 3.6750
TCL: Exiting due to exit command.
