Info: SIMULATION PARAMETERS:
Info: TIMESTEP               2
Info: NUMBER OF STEPS        0
Info: STEPS PER CYCLE        10
Info: PERIODIC CELL BASIS 1  36.281 0 0
Info: PERIODIC CELL BASIS 2  0 35.779 0
Info: PERIODIC CELL BASIS 3  0 0 34.229
Info: PERIODIC CELL CENTER   0 0 0
Info: WRAPPING WATERS AROUND PERIODIC BOUNDARIES ON OUTPUT.
Info: WRAPPING ALL CLUSTERS AROUND PERIODIC BOUNDARIES ON OUTPUT.
Info: FIRST LDB TIMESTEP     50
Info: LAST LDB TIMESTEP     -1
Info: HOM BACKGROUND SCALING 1
Info: PME BACKGROUND SCALING 1
Info: MIN ATOMS PER PATCH    40
Info: EMPTY PATCH LOAD       40 ATOMS
Info: INITIAL TEMPERATURE    300
Info: CENTER OF MASS MOVING INITIALLY? NO
Info: DIELECTRIC             1
Info: EXCLUDE                SCALED ONE-FOUR
Info: 1-4 ELECTROSTATICS SCALED BY 0.833333
Info: MODIFIED 1-4 VDW PARAMETERS WILL BE USED
Info: DCD FILENAME           mobley_4043951_equil.dcd
Info: DCD FREQUENCY          100000
Info: DCD FIRST STEP         100000
Info: DCD FILE WILL CONTAIN UNIT CELL DATA
Info: XST FILENAME           mobley_4043951_equil.xst
Info: XST FREQUENCY          100000
Info: NO VELOCITY DCD OUTPUT
Info: NO FORCE DCD OUTPUT
Info: OUTPUT FILENAME        mobley_4043951_equil
Info: BINARY OUTPUT FILES WILL BE USED
Info: RESTART FILENAME       mobley_4043951_equil.restart
Info: RESTART FREQUENCY      100000
Info: BINARY RESTART FILES WILL BE USED
Info: CUTOFF                 9
Info: PAIRLIST DISTANCE      11
Info: PAIRLIST SHRINK RATE   0.01
Info: PAIRLIST GROW RATE     0.01
Info: PAIRLIST TRIGGER       0.3
Info: PAIRLISTS PER CYCLE    2
Info: PAIRLISTS ENABLED
Info: MARGIN                 8
Info: HYDROGEN GROUP CUTOFF  2.5
Info: PATCH DIMENSION        21.5
Info: ENERGY OUTPUT STEPS    100000
Info: ENERGY EVALUATION STEPS    100000
Info: OUTPUT ENERGY PRECISION 4
Info: CROSSTERM ENERGY INCLUDED IN DIHEDRAL
Info: TIMING OUTPUT STEPS    1000000
Info: PRESSURE OUTPUT STEPS  100000
Info: LANGEVIN DYNAMICS ACTIVE
Info: LANGEVIN TEMPERATURE   30
Info: LANGEVIN USING BBK INTEGRATOR
Info: LANGEVIN DAMPING COEFFICIENT IS 1 INVERSE PS
Info: LANGEVIN DYNAMICS APPLIED TO HYDROGENS
Info: LANGEVIN PISTON PRESSURE CONTROL ACTIVE
Info:        TARGET PRESSURE IS 1.01325 BAR
Info:     OSCILLATION PERIOD IS 50 FS
Info:             DECAY TIME IS 25 FS
Info:     PISTON TEMPERATURE IS 300 K
Info:       PRESSURE CONTROL IS GROUP-BASED
Info:    INITIAL STRAIN RATE IS 0 0 0
Info:       CELL FLUCTUATION IS ISOTROPIC
Info: PARTICLE MESH EWALD (PME) ACTIVE
Info: PME TOLERANCE               1e-06
Info: PME EWALD COEFFICIENT       0.348832
Info: PME INTERPOLATION ORDER     4
Info: PME GRID DIMENSIONS         40 36 36
Info: PME MAXIMUM GRID SPACING    1
Info: FULL ELECTROSTATIC EVALUATION FREQUENCY      2
Info: USING VERLET I (r-RESPA) MTS SCHEME.
Info: C1 SPLITTING OF LONG RANGE ELECTROSTATICS
Info: PLACING ATOMS IN PATCHES BY HYDROGEN GROUPS
Info: RIGID BONDS TO HYDROGEN : ALL
Info:         ERROR TOLERANCE : 1e-08
Info:          MAX ITERATIONS : 100
Info: RIGID WATER USING SETTLE ALGORITHM
Info: RANDOM NUMBER SEED     1743242400
Info: USE HYDROGEN BONDS?    NO
Info: Using AMBER format force field!
Info: AMBER PARM FILE        mobley_4043951.prmtop
Info: COORDINATE PDB         mobley_4043951.pdb
Info: Exclusions will be read from PARM file!
Info: SCNB (VDW SCALING)     2
Info: USING ARITHMETIC MEAN TO COMBINE L-J SIGMA PARAMETERS
Info: BINARY COORDINATES     mobley_4043951_min.coor
Info: SUMMARY OF PARAMETERS:
Info: 7 BONDS
Info: 9 ANGLES
Info: 8 DIHEDRAL
Info: 0 IMPROPER
Info: 0 CROSSTERM
Info: 0 VDW
Info: 21 VDW_PAIRS
Info: 0 NBTHOLE_PAIRS
Info: STRUCTURE SUMMARY:
Info: 2910 ATOMS
Info: 2909 BONDS
Info: 24 ANGLES
Info: 34 DIHEDRALS
Info: 0 IMPROPERS
Info: 0 CROSSTERMS
Info: 2961 EXCLUSIONS
Info: 2905 RIGID BONDS
Info: 5825 DEGREES OF FREEDOM
Info: 970 HYDROGEN GROUPS
Info: 4 ATOMS IN LARGEST HYDROGEN GROUP
Info: 970 MIGRATION GROUPS
Info: 4 ATOMS IN LARGEST MIGRATION GROUP
Info: TOTAL MASS = 17455.6 amu
Info: TOTAL CHARGE = 9.99868e-05 e
Info: MASS DENSITY = 0.652366 g/cm^3
Info: ATOM DENSITY = 0.0654925 atoms/A^3
Info: ADDED 0 IMPLICIT EXCLUSIONS
Info: NONBONDED TABLE R-SQUARED SPACING: 0.0625
Info: NONBONDED TABLE SIZE: 705 POINTS
Info: REMOVING COM VELOCITY -0.21433 0.0110096 0.221987
TCL: Running for 100000 steps
ETITLE: TS BOND ANGLE DIHED IMPRP ELECT VDW BOUNDARY MISC KINETIC TOTAL TEMP POTENTIAL TOTAL3 TEMPAVG PRESSURE GPRESSURE VOLUME PRESSAVG GPRESSAVG
ENERGY: 0 0.0291 0.1505 2.8759 0.0000 -13457.5746 2403.2900 0.0000 0.0000 1712.6031 -9338.6259 295.9042 -11051.2291 -9338.2885 295.9042 622.0731 656.5997 44432.5930 622.0731 656.5997
ENERGY: 100000 0.1121 0.9649 2.9590 0.0000 -14006.6320 2404.4308 0.0000 0.0000 171.5205 -11426.6448 29.6354 -11598.1652 -11426.1950 30.9654 -467.8556 -423.7570 28554.3468 4.0976 4.1586
TCL: Running 100000 steps at 60 kelvin.
TCL: Setting parameter langevinTemp to 60
TCL: Running for 100000 steps
ETITLE: TS BOND ANGLE DIHED IMPRP ELECT VDW BOUNDARY MISC KINETIC TOTAL TEMP POTENTIAL TOTAL3 TEMPAVG PRESSURE GPRESSURE VOLUME PRESSAVG GPRESSAVG
ENERGY: 100000 0.1121 0.9649 2.9590 0.0000 -14006.6320 2404.4308 0.0000 0.0000 171.4352 -11426.7301 29.6206 -11598.1652 -11426.2729 29.6206 -471.7269 -423.7670 28554.3468 -471.7269 -423.7670
ENERGY: 200000 0.5555 1.6332 1.3698 0.0000 -13869.2137 2350.5802 0.0000 0.0000 334.7657 -11180.3093 57.8410 -11515.0751 -11179.3288 60.0433 -760.6082 -683.5937 28736.3966 3.6290 3.5662
TCL: Running 100000 steps at 90 kelvin.
TCL: Setting parameter langevinTemp to 90
TCL: Running for 100000 steps
ETITLE: TS BOND ANGLE DIHED IMPRP ELECT VDW BOUNDARY MISC KINETIC TOTAL TEMP POTENTIAL TOTAL3 TEMPAVG PRESSURE GPRESSURE VOLUME PRESSAVG GPRESSAVG
ENERGY: 200000 0.5555 1.6332 1.3698 0.0000 -13869.2137 2350.5802 0.0000 0.0000 334.5923 -11180.4828 57.8110 -11515.0751 -11179.7362 57.8110 -744.4012 -683.9237 28736.3966 -744.4012 -683.9237
ENERGY: 300000 0.3112 2.2079 1.9552 0.0000 -13604.8119 2234.8939 0.0000 0.0000 506.7875 -10858.6561 87.5629 -11365.4437 -10857.4432 90.0871 -1090.0108 -995.1580 28829.3114 4.5110 4.4400
TCL: Running 100000 steps at 120 kelvin.
TCL: Setting parameter langevinTemp to 120
TCL: Running for 100000 steps
ETITLE: TS BOND ANGLE DIHED IMPRP ELECT VDW BOUNDARY MISC KINETIC TOTAL TEMP POTENTIAL TOTAL3 TEMPAVG PRESSURE GPRESSURE VOLUME PRESSAVG GPRESSAVG
ENERGY: 300000 0.3112 2.2079 1.9552 0.0000 -13604.8119 2234.8939 0.0000 0.0000 506.5284 -10858.9153 87.5182 -11365.4437 -10857.8366 87.5182 -1061.6333 -996.0270 28829.3114 -1061.6333 -996.0270
ENERGY: 400000 0.3324 2.3831 3.5227 0.0000 -13738.4356 2468.2142 0.0000 0.0000 701.0200 -10562.9632 121.1225 -11263.9833 -10561.0587 119.7661 1567.6901 1540.0694 28325.1860 5.3387 5.3184
TCL: Running 100000 steps at 150 kelvin.
TCL: Setting parameter langevinTemp to 150
TCL: Running for 100000 steps
ETITLE: TS BOND ANGLE DIHED IMPRP ELECT VDW BOUNDARY MISC KINETIC TOTAL TEMP POTENTIAL TOTAL3 TEMPAVG PRESSURE GPRESSURE VOLUME PRESSAVG GPRESSAVG
ENERGY: 400000 0.3324 2.3831 3.5227 0.0000 -13738.4356 2468.2142 0.0000 0.0000 700.6683 -10563.3150 121.0617 -11263.9833 -10562.1389 121.0617 1508.6107 1539.9464 28325.1860 1508.6107 1539.9464
ENERGY: 500000 1.0260 3.3045 2.4153 0.0000 -13189.9164 2081.9087 0.0000 0.0000 872.3117 -10228.9502 150.7184 -11101.2619 -10225.8823 149.7609 -1221.6340 -1185.7555 28553.1247 4.2905 4.4028
TCL: Running 100000 steps at 180 kelvin.
TCL: Setting parameter langevinTemp to 180
TCL: Running for 100000 steps
ETITLE: TS BOND ANGLE DIHED IMPRP ELECT VDW BOUNDARY MISC KINETIC TOTAL TEMP POTENTIAL TOTAL3 TEMPAVG PRESSURE GPRESSURE VOLUME PRESSAVG GPRESSAVG
ENERGY: 500000 1.0260 3.3045 2.4153 0.0000 -13189.9164 2081.9087 0.0000 0.0000 871.9001 -10229.3618 150.6472 -11101.2619 -10227.6546 150.6472 -1236.5433 -1184.9375 28553.1247 -1236.5433 -1184.9375
ENERGY: 600000 0.6950 3.2034 4.5848 0.0000 -12790.1876 1986.1240 0.0000 0.0000 1052.0349 -9743.5455 181.7710 -10795.5804 -9741.8302 180.1670 -894.6177 -800.7460 28704.6349 4.3927 4.4388
TCL: Running 100000 steps at 210 kelvin.
TCL: Setting parameter langevinTemp to 210
TCL: Running for 100000 steps
ETITLE: TS BOND ANGLE DIHED IMPRP ELECT VDW BOUNDARY MISC KINETIC TOTAL TEMP POTENTIAL TOTAL3 TEMPAVG PRESSURE GPRESSURE VOLUME PRESSAVG GPRESSAVG
ENERGY: 600000 0.6950 3.2034 4.5848 0.0000 -12790.1876 1986.1240 0.0000 0.0000 1051.5252 -9744.0552 181.6829 -10795.5804 -9742.1894 181.6829 -863.9951 -801.7443 28704.6349 -863.9951 -801.7443
ENERGY: 700000 0.6174 4.5317 2.7920 0.0000 -12289.7469 1941.4158 0.0000 0.0000 1223.8785 -9116.5115 211.4622 -10340.3901 -9113.0061 210.1919 838.8131 933.6620 28032.7372 3.9960 4.0534
TCL: Running 100000 steps at 240 kelvin.
TCL: Setting parameter langevinTemp to 240
TCL: Running for 100000 steps
ETITLE: TS BOND ANGLE DIHED IMPRP ELECT VDW BOUNDARY MISC KINETIC TOTAL TEMP POTENTIAL TOTAL3 TEMPAVG PRESSURE GPRESSURE VOLUME PRESSAVG GPRESSAVG
ENERGY: 700000 0.6174 4.5317 2.7920 0.0000 -12289.7469 1941.4158 0.0000 0.0000 1223.2859 -9117.1042 211.3598 -10340.3901 -9115.1372 211.3598 845.1714 935.4437 28032.7372 845.1714 935.4437
ENERGY: 800000 2.6082 7.1228 2.5654 0.0000 -11724.3511 1781.9583 0.0000 0.0000 1332.3451 -8597.7513 230.2031 -9930.0964 -8597.7537 240.3395 773.7683 851.2546 28480.5837 2.4296 2.3884
TCL: Running 100000 steps at 270 kelvin.
TCL: Setting parameter langevinTemp to 270
TCL: Running for 100000 steps
ETITLE: TS BOND ANGLE DIHED IMPRP ELECT VDW BOUNDARY MISC KINETIC TOTAL TEMP POTENTIAL TOTAL3 TEMPAVG PRESSURE GPRESSURE VOLUME PRESSAVG GPRESSAVG
ENERGY: 800000 2.6082 7.1228 2.5654 0.0000 -11724.3511 1781.9583 0.0000 0.0000 1331.6450 -8598.4515 230.0821 -9930.0964 -8595.9648 230.0821 758.3309 847.4226 28480.5837 758.3309 847.4226
ENERGY: 900000 0.4310 4.9639 3.7605 0.0000 -11025.0886 1608.9000 0.0000 0.0000 1587.8034 -7819.2297 274.3413 -9407.0331 -7816.0929 270.1746 631.8884 745.3498 29301.8295 3.6609 3.8415
TCL: Running 1000000 steps at 300 kelvin.
TCL: Setting parameter langevinTemp to 300
TCL: Running for 1000000 steps
ETITLE: TS BOND ANGLE DIHED IMPRP ELECT VDW BOUNDARY MISC KINETIC TOTAL TEMP POTENTIAL TOTAL3 TEMPAVG PRESSURE GPRESSURE VOLUME PRESSAVG GPRESSAVG
ENERGY: 900000 0.4310 4.9639 3.7605 0.0000 -11025.0886 1608.9000 0.0000 0.0000 1587.0437 -7819.9895 274.2100 -9407.0331 -7817.7196 274.2100 666.5636 744.9794 29301.8295 666.5636 744.9794
ENERGY: 1100000 1.3699 5.9874 2.0494 0.0000 -10532.7141 1377.0791 0.0000 0.0000 1769.8649 -7376.3634 305.7980 -9146.2283 -7373.7724 299.9704 -172.7232 -74.3748 29482.8694 4.3186 4.2697
ENERGY: 1300000 0.0958 5.8033 2.4440 0.0000 -10662.9392 1582.6384 0.0000 0.0000 1678.3513 -7393.6064 289.9862 -9071.9577 -7394.0048 299.6391 1328.7514 1362.3563 30123.4238 3.5105 3.4349
ENERGY: 1500000 0.4639 4.6373 4.1873 0.0000 -10551.0512 1436.7453 0.0000 0.0000 1784.7448 -7320.2727 308.3689 -9105.0175 -7315.5578 300.4025 268.6745 297.0573 30107.2191 4.2410 4.2834
ENERGY: 1700000 1.1547 4.6470 4.3539 0.0000 -10438.0779 1354.8471 0.0000 0.0000 1746.3645 -7326.7108 301.7375 -9073.0752 -7322.6973 300.1003 -476.6204 -400.1331 30225.5415 4.4082 4.2444
ENERGY: 1900000 0.7189 6.6914 4.0960 0.0000 -10526.8051 1404.7876 0.0000 0.0000 1742.7466 -7367.7646 301.1124 -9110.5112 -7362.0458 300.4226 67.6171 144.1204 29703.7743 1.6170 1.5526
TCL: Exiting due to exit command.
