Info: SIMULATION PARAMETERS:
Info: TIMESTEP               2
Info: NUMBER OF STEPS        0
Info: STEPS PER CYCLE        10
Info: PERIODIC CELL BASIS 1  30.8548 0 0
Info: PERIODIC CELL BASIS 2  0 31.5542 0
Info: PERIODIC CELL BASIS 3  0 0 31.5048
Info: PERIODIC CELL CENTER   0 0 0
Info: WRAPPING WATERS AROUND PERIODIC BOUNDARIES ON OUTPUT.
Info: WRAPPING ALL CLUSTERS AROUND PERIODIC BOUNDARIES ON OUTPUT.
Info: FIRST LDB TIMESTEP     50
Info: LAST LDB TIMESTEP     -1
Info: HOM BACKGROUND SCALING 1
Info: PME BACKGROUND SCALING 1
Info: MIN ATOMS PER PATCH    40
Info: EMPTY PATCH LOAD       40 ATOMS
Info: VELOCITY FILE          mobley_2146331_equil.vel
Info: CENTER OF MASS MOVING INITIALLY? NO
Info: DIELECTRIC             1
Info: EXCLUDE                SCALED ONE-FOUR
Info: 1-4 ELECTROSTATICS SCALED BY 0.833333
Info: MODIFIED 1-4 VDW PARAMETERS WILL BE USED
Info: DCD FILENAME           mobley_2146331_prod.dcd
Info: DCD FREQUENCY          100000
Info: DCD FIRST STEP         100000
Info: DCD FILE WILL CONTAIN UNIT CELL DATA
Info: XST FILENAME           mobley_2146331_prod.xst
Info: XST FREQUENCY          100000
Info: NO VELOCITY DCD OUTPUT
Info: NO FORCE DCD OUTPUT
Info: OUTPUT FILENAME        mobley_2146331_prod
Info: BINARY OUTPUT FILES WILL BE USED
Info: RESTART FILENAME       mobley_2146331_prod.restart
Info: RESTART FREQUENCY      100000
Info: BINARY RESTART FILES WILL BE USED
Info: CUTOFF                 9
Info: PAIRLIST DISTANCE      11
Info: PAIRLIST SHRINK RATE   0.01
Info: PAIRLIST GROW RATE     0.01
Info: PAIRLIST TRIGGER       0.3
Info: PAIRLISTS PER CYCLE    2
Info: PAIRLISTS ENABLED
Info: MARGIN                 2
Info: HYDROGEN GROUP CUTOFF  2.5
Info: PATCH DIMENSION        15.5
Info: ENERGY OUTPUT STEPS    100000
Info: ENERGY EVALUATION STEPS    100000
Info: OUTPUT ENERGY PRECISION 4
Info: CROSSTERM ENERGY INCLUDED IN DIHEDRAL
Info: TIMING OUTPUT STEPS    1000000
Info: PRESSURE OUTPUT STEPS  100000
Info: ALCHEMICAL FEP ON
Info: FEP CURRENT LAMBDA VALUE     0
Info: FEP COMPARISON LAMBDA VALUE  0.05
Info: FEP INTRA-ALCHEMICAL NON-BONDED INTERACTIONS WILL BE RETAINED
Info: FEP INTRA-ALCHEMICAL BONDED INTERACTIONS WILL BE RETAINED
Info: FEP VDW SHIFTING COEFFICIENT 5
Info: FEP ELEC. ACTIVE FOR ANNIHILATED PARTICLES BETWEEN LAMBDA = 0 AND LAMBDA = 0.5
Info: FEP ELEC. ACTIVE FOR EXNIHILATED PARTICLES BETWEEN LAMBDA = 0.5 AND LAMBDA = 1
Info: FEP VDW ACTIVE FOR ANNIHILATED PARTICLES BETWEEN LAMBDA = 0 AND LAMBDA = 1
Info: FEP VDW ACTIVE FOR EXNIHILATED PARTICLES BETWEEN LAMBDA = 0 AND LAMBDA = 1
Info: FEP BOND ACTIVE FOR ANNIHILATED PARTICLES BETWEEN LAMBDA = 1 AND LAMBDA = 1
Info: FEP BOND ACTIVE FOR EXNIHILATED PARTICLES BETWEEN LAMBDA = 0 AND LAMBDA = 0
Info: LANGEVIN DYNAMICS ACTIVE
Info: LANGEVIN TEMPERATURE   300
Info: LANGEVIN USING BBK INTEGRATOR
Info: LANGEVIN DAMPING COEFFICIENT IS 1 INVERSE PS
Info: LANGEVIN DYNAMICS APPLIED TO HYDROGENS
Info: LANGEVIN PISTON PRESSURE CONTROL ACTIVE
Info:        TARGET PRESSURE IS 1.01325 BAR
Info:     OSCILLATION PERIOD IS 50 FS
Info:             DECAY TIME IS 25 FS
Info:     PISTON TEMPERATURE IS 300 K
Info:       PRESSURE CONTROL IS GROUP-BASED
Info:    INITIAL STRAIN RATE IS -0.000410646 -0.000410646 -0.000410646
Info:       CELL FLUCTUATION IS ISOTROPIC
Info: PARTICLE MESH EWALD (PME) ACTIVE
Info: PME TOLERANCE               1e-06
Info: PME EWALD COEFFICIENT       0.348832
Info: PME INTERPOLATION ORDER     4
Info: PME GRID DIMENSIONS         32 32 32
Info: PME MAXIMUM GRID SPACING    1
Info: PME CALCULATION WILL BE PERFORMED ON GPU
Info: FULL ELECTROSTATIC EVALUATION FREQUENCY      2
Info: USING VERLET I (r-RESPA) MTS SCHEME.
Info: C1 SPLITTING OF LONG RANGE ELECTROSTATICS
Info: PLACING ATOMS IN PATCHES BY HYDROGEN GROUPS
Info: RIGID BONDS TO HYDROGEN : ALL
Info:         ERROR TOLERANCE : 1e-08
Info:          MAX ITERATIONS : 100
Info: RIGID WATER USING SETTLE ALGORITHM
Info: RANDOM NUMBER SEED     1743389891
Info: USE HYDROGEN BONDS?    NO
Info: Using AMBER format force field!
Info: AMBER PARM FILE        mobley_2146331.prmtop
Info: COORDINATE PDB         mobley_2146331.pdb
Info: Exclusions will be read from PARM file!
Info: SCNB (VDW SCALING)     2
Info: USING ARITHMETIC MEAN TO COMBINE L-J SIGMA PARAMETERS
Info: BINARY COORDINATES     mobley_2146331_equil.coor
Info: SUMMARY OF PARAMETERS:
Info: 4 BONDS
Info: 2 ANGLES
Info:   2 HARMONIC
Info:   0 COSINE-BASED
Info: 1 DIHEDRAL
Info: 0 IMPROPER
Info: 0 CROSSTERM
Info: 0 VDW
Info: 15 VDW_PAIRS
Info: 0 NBTHOLE_PAIRS
Info: To read alchdata from file: mobley_2146331.pdb
Info: To read alchflag data from column: 5
Info: STRUCTURE SUMMARY:
Info: 2971 ATOMS
Info: 2970 BONDS
Info: 3 ANGLES
Info: 1 DIHEDRALS
Info: 0 IMPROPERS
Info: 0 CROSSTERMS
Info: 2973 EXCLUSIONS
Info: 2969 RIGID BONDS
Info: ALCH: 0 ATOMS TO DISAPPEAR IN FINAL STATE
Info: ALCH: 4 ATOMS TO APPEAR IN FINAL STATE
Info: 5944 DEGREES OF FREEDOM
Info: 991 HYDROGEN GROUPS
Info: 3 ATOMS IN LARGEST HYDROGEN GROUP
Info: 991 MIGRATION GROUPS
Info: 3 ATOMS IN LARGEST MIGRATION GROUP
Info: TOTAL MASS = 17847.9 amu
Info: TOTAL CHARGE = -9.9998e-05 e
Info: MASS DENSITY = 0.966251 g/cm^3
Info: ATOM DENSITY = 0.0968606 atoms/A^3
Info: ADDED 0 IMPLICIT EXCLUSIONS
Info: NONBONDED TABLE R-SQUARED SPACING: 0.0625
Info: NONBONDED TABLE SIZE: 705 POINTS
Info: REMOVING COM VELOCITY 0.270814 0.0834047 -0.0665492
Info: Use 3D box decompostion in PME FFT.
Info: Updated CUDA force table with 4096 elements.
Info: Updated CUDA LJ table with 5 x 5 elements.
Info: Found 7 unique exclusion lists needing 8 bytes
TCL: Running for 1500000 steps
ETITLE: TS BOND ANGLE DIHED IMPRP ELECT VDW BOUNDARY MISC KINETIC TOTAL TEMP POTENTIAL TOTALAVG TEMPAVG PRESSURE GPRESSURE VOLUME PRESSAVG GPRESSAVG
ENERGY: 0 0.1052 1.0514 0.2240 0.0000 -10727.7179 1423.0015 0.0000 0.0000 1751.8880 -7551.4478 296.6319 -9303.3358 -7551.4478 296.6319 -188.6365 -92.0291 30672.9372 -188.6365 -92.0291
ENERGY: 300000 0.0715 0.0691 0.0946 0.0000 -10922.1802 1552.3584 0.0000 0.0000 1757.3300 -7612.2566 297.5534 -9369.5867 -7572.8553 301.0776 554.1647 622.2762 30594.0036 -80.4908 4.2795
ENERGY: 600000 0.0001 0.1481 0.2075 0.0000 -10808.9755 1434.7702 0.0000 0.0000 1809.6398 -7564.2098 306.4105 -9373.8495 -7563.7298 301.2766 -129.8142 -81.9684 30345.9279 -1.2453 75.8208
ENERGY: 900000 0.3790 0.6283 0.1998 0.0000 -10794.2190 1456.7315 0.0000 0.0000 1749.4459 -7586.8345 296.2185 -9336.2804 -7570.8630 300.3231 76.6595 155.5294 30287.4968 -164.8849 -85.8296
ENERGY: 1200000 0.4768 0.7704 0.4004 0.0000 -10899.1079 1492.1969 0.0000 0.0000 1716.6568 -7688.6066 290.6666 -9405.2633 -7583.2157 298.9938 57.0236 72.7065 30502.0763 -181.3204 -113.0804
ENERGY: 1500000 0.0570 0.4596 0.3951 0.0000 -10703.3151 1385.9055 0.0000 0.0000 1753.4033 -7563.0946 296.8885 -9316.4979 -7575.6545 299.3571 -351.4792 -171.2159 30382.5038 -190.9066 -116.1931
TCL: Running FEP window   2: Lambda1 0.05   Lambda2 0.1    [dLambda 0.05  ]
TCL: Setting parameter firsttimestep to 0
TCL: Setting parameter alchLambda to 0.05
Info: NONBONDED TABLE R-SQUARED SPACING: 0.0625
Info: NONBONDED TABLE SIZE: 705 POINTS
TCL: Setting parameter alchLambda2 to 0.1
Info: NONBONDED TABLE R-SQUARED SPACING: 0.0625
Info: NONBONDED TABLE SIZE: 705 POINTS
TCL: Running for 1500000 steps
ETITLE: TS BOND ANGLE DIHED IMPRP ELECT VDW BOUNDARY MISC KINETIC TOTAL TEMP POTENTIAL TOTALAVG TEMPAVG PRESSURE GPRESSURE VOLUME PRESSAVG GPRESSAVG
ENERGY: 0 0.0570 0.4596 0.3951 0.0000 -10703.3149 1386.7680 0.0000 0.0000 1752.4642 -7563.1711 296.7295 -9315.6353 -7563.1711 296.7295 -258.0182 -167.6271 30382.5038 -258.0182 -167.6271
ENERGY: 300000 0.0610 0.0433 0.2124 0.0000 -10833.8916 1437.6447 0.0000 0.0000 1760.6793 -7635.2509 298.1205 -9395.9302 -7598.2286 298.9566 -284.8660 -270.6064 30657.9224 125.7618 173.7680
ENERGY: 600000 0.0569 0.4077 0.0026 0.0000 -10695.3535 1390.6676 0.0000 0.0000 1746.0461 -7558.1726 295.6428 -9304.2187 -7584.6228 299.1552 -350.2601 -227.0472 30322.5720 -5.1986 62.0246
ENERGY: 900000 0.0014 0.6911 0.0158 0.0000 -10788.0151 1458.4276 0.0000 0.0000 1756.7978 -7572.0814 297.4633 -9328.8793 -7578.2779 298.8663 -128.2823 -55.7458 30724.7987 24.1166 95.4068
ENERGY: 1200000 0.0570 0.3060 0.0234 0.0000 -10831.1807 1439.6342 0.0000 0.0000 1716.8753 -7674.2848 290.7035 -9391.1601 -7582.4382 298.6614 -205.7026 -83.5880 30436.0125 -64.3967 16.6731
ENERGY: 1500000 0.3109 0.0482 0.0639 0.0000 -10796.4062 1472.2782 0.0000 0.0000 1789.1862 -7534.5187 302.9473 -9323.7049 -7571.3751 299.3089 154.9727 216.0481 30738.5747 -91.5282 -10.2475
TCL: Running FEP window   3: Lambda1 0.1    Lambda2 0.15000000000000002 [dLambda 0.05000000000000002]
TCL: Setting parameter firsttimestep to 0
TCL: Setting parameter alchLambda to 0.1
Info: NONBONDED TABLE R-SQUARED SPACING: 0.0625
Info: NONBONDED TABLE SIZE: 705 POINTS
TCL: Setting parameter alchLambda2 to 0.15000000000000002
Info: NONBONDED TABLE R-SQUARED SPACING: 0.0625
Info: NONBONDED TABLE SIZE: 705 POINTS
TCL: Running for 1500000 steps
ETITLE: TS BOND ANGLE DIHED IMPRP ELECT VDW BOUNDARY MISC KINETIC TOTAL TEMP POTENTIAL TOTALAVG TEMPAVG PRESSURE GPRESSURE VOLUME PRESSAVG GPRESSAVG
ENERGY: 0 0.3109 0.0482 0.0639 0.0000 -10796.4064 1472.8833 0.0000 0.0000 1788.2816 -7534.8184 302.7942 -9323.1000 -7534.8184 302.7942 133.8095 219.6926 30738.5747 133.8095 219.6926
ENERGY: 300000 0.0055 2.9722 0.0004 0.0000 -10812.4903 1485.2064 0.0000 0.0000 1690.2330 -7634.0728 286.1924 -9324.3058 -7587.5318 297.8315 196.4115 294.6968 30475.0698 110.2562 170.9394
ENERGY: 600000 0.6796 0.0869 0.0900 0.0000 -10807.2043 1513.8434 0.0000 0.0000 1764.2422 -7528.2622 298.7238 -9292.5044 -7573.3680 297.9082 630.3207 685.7307 30224.1155 8.1318 61.5292
ENERGY: 900000 0.1191 0.2172 0.4027 0.0000 -10818.6871 1490.0071 0.0000 0.0000 1743.7040 -7584.2370 295.2462 -9327.9410 -7579.4762 296.6352 216.9286 282.2373 30636.8651 -103.8206 -47.9237
ENERGY: 1200000 0.3528 0.1038 0.2428 0.0000 -10810.3052 1520.9869 0.0000 0.0000 1786.0709 -7502.5480 302.4198 -9288.6189 -7572.7166 297.7428 527.1817 530.8972 30788.8387 -19.0384 31.9398
ENERGY: 1500000 1.4769 0.7359 0.0005 0.0000 -10803.7133 1457.2560 0.0000 0.0000 1747.5480 -7596.6960 295.8971 -9344.2439 -7574.2837 297.4105 -62.0026 -25.9501 30830.1667 -52.4921 0.5086
TCL: Running FEP window   4: Lambda1 0.15000000000000002 Lambda2 0.2    [dLambda 0.04999999999999999]
TCL: Setting parameter firsttimestep to 0
TCL: Setting parameter alchLambda to 0.15000000000000002
Info: NONBONDED TABLE R-SQUARED SPACING: 0.0625
Info: NONBONDED TABLE SIZE: 705 POINTS
TCL: Setting parameter alchLambda2 to 0.2
Info: NONBONDED TABLE R-SQUARED SPACING: 0.0625
Info: NONBONDED TABLE SIZE: 705 POINTS
TCL: Running for 1500000 steps
ETITLE: TS BOND ANGLE DIHED IMPRP ELECT VDW BOUNDARY MISC KINETIC TOTAL TEMP POTENTIAL TOTALAVG TEMPAVG PRESSURE GPRESSURE VOLUME PRESSAVG GPRESSAVG
ENERGY: 0 1.4769 0.7359 0.0005 0.0000 -10803.7128 1457.2984 0.0000 0.0000 1746.6938 -7597.5072 295.7525 -9344.2010 -7597.5072 295.7525 -88.7665 -22.8537 30830.1667 -88.7665 -22.8537
ENERGY: 300000 0.3198 0.5655 0.0261 0.0000 -10813.5060 1441.4100 0.0000 0.0000 1756.7456 -7614.4390 297.4544 -9371.1845 -7557.8416 299.2876 -168.2155 -109.9446 30773.5030 -149.4136 -92.6967
ENERGY: 600000 0.5598 0.2489 0.1983 0.0000 -10823.8860 1521.7338 0.0000 0.0000 1777.6768 -7523.4685 300.9985 -9301.1453 -7576.7273 300.4114 626.0607 702.5528 30549.7611 -68.6782 -7.2608
ENERGY: 900000 0.1552 0.6539 0.0110 0.0000 -10820.0682 1455.1250 0.0000 0.0000 1807.5646 -7556.5585 306.0592 -9364.1231 -7571.8804 301.3073 130.0507 196.7961 30338.5602 -71.5429 -5.7103
ENERGY: 1200000 0.2992 0.1333 0.4340 0.0000 -10896.9401 1499.9650 0.0000 0.0000 1783.1421 -7612.9665 301.9239 -9396.1086 -7575.0560 301.2045 126.2621 172.4310 30480.9929 -19.7439 43.4720
ENERGY: 1500000 0.1373 0.2785 0.0368 0.0000 -10931.4524 1587.4727 0.0000 0.0000 1812.4565 -7531.0706 306.8875 -9343.5270 -7573.5983 301.3039 1135.2980 1152.7677 30284.6344 88.0120 148.5591
TCL: Running FEP window   5: Lambda1 0.2    Lambda2 0.25   [dLambda 0.04999999999999999]
TCL: Setting parameter firsttimestep to 0
TCL: Setting parameter alchLambda to 0.2
Info: NONBONDED TABLE R-SQUARED SPACING: 0.0625
Info: NONBONDED TABLE SIZE: 705 POINTS
TCL: Setting parameter alchLambda2 to 0.25
Info: NONBONDED TABLE R-SQUARED SPACING: 0.0625
Info: NONBONDED TABLE SIZE: 705 POINTS
TCL: Running for 1500000 steps
ETITLE: TS BOND ANGLE DIHED IMPRP ELECT VDW BOUNDARY MISC KINETIC TOTAL TEMP POTENTIAL TOTALAVG TEMPAVG PRESSURE GPRESSURE VOLUME PRESSAVG GPRESSAVG
ENERGY: 0 0.1373 0.2785 0.0368 0.0000 -10931.4525 1588.1088 0.0000 0.0000 1811.6102 -7531.2808 306.7442 -9342.8910 -7531.2808 306.7442 1069.0407 1157.3882 30284.6344 1069.0407 1157.3882
ENERGY: 300000 0.7408 1.4047 0.0011 0.0000 -10768.6891 1453.7423 0.0000 0.0000 1790.3788 -7522.4214 303.1493 -9312.8002 -7541.5510 302.3232 98.8793 131.8084 30564.2448 398.8041 465.0394
ENERGY: 600000 0.2420 0.9512 0.0035 0.0000 -10726.5801 1389.0687 0.0000 0.0000 1774.3103 -7562.0045 300.4285 -9336.3148 -7562.5149 301.9562 -680.1731 -667.1782 30997.7892 286.1594 336.2163
ENERGY: 900000 0.6427 0.0635 0.2145 0.0000 -10790.7461 1447.9090 0.0000 0.0000 1836.6077 -7505.3086 310.9768 -9341.9164 -7570.0916 302.4416 54.7095 107.7743 30460.6549 175.5544 226.3874
ENERGY: 1200000 0.0016 0.3436 0.0094 0.0000 -10804.4310 1458.2433 0.0000 0.0000 1826.1961 -7519.6369 309.2139 -9345.8330 -7558.5955 303.3762 6.1040 127.3916 30507.5476 75.9474 136.6388
ENERGY: 1500000 0.6711 0.0358 0.0526 0.0000 -10868.3431 1535.1746 0.0000 0.0000 1772.5646 -7559.8444 300.1329 -9332.4090 -7557.5374 302.4627 498.6397 630.1631 30517.6517 104.3877 175.0622
TCL: Running FEP window   6: Lambda1 0.25   Lambda2 0.3    [dLambda 0.04999999999999999]
TCL: Setting parameter firsttimestep to 0
TCL: Setting parameter alchLambda to 0.25
Info: NONBONDED TABLE R-SQUARED SPACING: 0.0625
Info: NONBONDED TABLE SIZE: 705 POINTS
TCL: Setting parameter alchLambda2 to 0.3
Info: NONBONDED TABLE R-SQUARED SPACING: 0.0625
Info: NONBONDED TABLE SIZE: 705 POINTS
TCL: Running for 1500000 steps
ETITLE: TS BOND ANGLE DIHED IMPRP ELECT VDW BOUNDARY MISC KINETIC TOTAL TEMP POTENTIAL TOTALAVG TEMPAVG PRESSURE GPRESSURE VOLUME PRESSAVG GPRESSAVG
ENERGY: 0 0.6711 0.0358 0.0526 0.0000 -10868.3430 1535.2672 0.0000 0.0000 1771.6827 -7560.6336 299.9836 -9332.3163 -7560.6336 299.9836 552.1550 632.7779 30517.6517 552.1550 632.7779
ENERGY: 300000 0.0355 0.4836 0.0037 0.0000 -10763.9861 1410.0894 0.0000 0.0000 1822.3372 -7531.0366 308.5605 -9353.3738 -7549.9060 298.1310 -330.2436 -267.5078 30522.7979 -4.0996 44.7716
ENERGY: 600000 0.4411 0.2885 0.2124 0.0000 -10780.9959 1367.5474 0.0000 0.0000 1738.9650 -7673.5416 294.4438 -9412.5065 -7589.4381 298.6078 -931.9542 -877.7751 30612.8413 -292.4657 -251.7392
ENERGY: 900000 0.0000 0.6768 0.0005 0.0000 -10719.3414 1381.5552 0.0000 0.0000 1795.2651 -7541.8438 303.9766 -9337.1088 -7582.1022 299.6603 -584.2129 -457.9600 30428.2263 -282.3090 -223.0787
ENERGY: 1200000 0.0171 0.0335 0.2301 0.0000 -10722.5400 1485.6696 0.0000 0.0000 1769.2590 -7467.3308 299.5732 -9236.5898 -7572.8079 299.5699 344.8552 417.0731 30858.4964 -151.7049 -90.1841
ENERGY: 1500000 0.2921 2.2565 0.0475 0.0000 -10853.0314 1495.4695 0.0000 0.0000 1751.2445 -7603.7213 296.5230 -9354.9658 -7570.7293 299.3393 164.0329 210.8800 30587.6820 -141.3760 -85.8816
TCL: Running FEP window   7: Lambda1 0.3    Lambda2 0.35   [dLambda 0.04999999999999999]
TCL: Setting parameter firsttimestep to 0
TCL: Setting parameter alchLambda to 0.3
Info: NONBONDED TABLE R-SQUARED SPACING: 0.0625
Info: NONBONDED TABLE SIZE: 705 POINTS
TCL: Setting parameter alchLambda2 to 0.35
Info: NONBONDED TABLE R-SQUARED SPACING: 0.0625
Info: NONBONDED TABLE SIZE: 705 POINTS
TCL: Running for 1500000 steps
ETITLE: TS BOND ANGLE DIHED IMPRP ELECT VDW BOUNDARY MISC KINETIC TOTAL TEMP POTENTIAL TOTALAVG TEMPAVG PRESSURE GPRESSURE VOLUME PRESSAVG GPRESSAVG
ENERGY: 0 0.2921 2.2565 0.0475 0.0000 -10853.0318 1495.3070 0.0000 0.0000 1750.3791 -7604.7496 296.3765 -9355.1287 -7604.7496 296.3765 131.9637 210.8899 30587.6820 131.9637 210.8899
ENERGY: 300000 0.4947 0.1029 0.0065 0.0000 -10838.5188 1481.9105 0.0000 0.0000 1788.0966 -7567.9075 302.7628 -9356.0041 -7568.4211 302.4241 348.9353 408.2249 30381.8398 214.3784 287.9052
ENERGY: 600000 0.0394 4.2927 0.7197 0.0000 -10790.0780 1401.3566 0.0000 0.0000 1823.6784 -7559.9912 308.7876 -9383.6696 -7579.2158 301.7632 -367.8861 -319.6734 30318.4143 -30.3912 38.5834
ENERGY: 900000 0.0088 0.7519 0.0616 0.0000 -10846.7923 1507.7219 0.0000 0.0000 1786.7529 -7551.4952 302.5353 -9338.2481 -7590.6824 300.3967 279.3928 303.7563 30882.2425 58.8269 123.6950
ENERGY: 1200000 0.7385 0.2136 0.0449 0.0000 -10702.9059 1413.1734 0.0000 0.0000 1741.3631 -7547.3725 294.8499 -9288.7356 -7583.0743 300.4520 -74.2974 -5.7061 30435.3681 43.1468 111.4640
ENERGY: 1500000 0.1124 0.2119 0.1861 0.0000 -10623.2662 1386.9453 0.0000 0.0000 1761.3089 -7474.5017 298.2271 -9235.8105 -7571.7006 300.8094 -302.1881 -232.0608 30934.8759 86.7434 159.9329
TCL: Running FEP window   8: Lambda1 0.35   Lambda2 0.39999999999999997 [dLambda 0.04999999999999999]
TCL: Setting parameter firsttimestep to 0
TCL: Setting parameter alchLambda to 0.35
Info: NONBONDED TABLE R-SQUARED SPACING: 0.0625
Info: NONBONDED TABLE SIZE: 705 POINTS
TCL: Setting parameter alchLambda2 to 0.39999999999999997
Info: NONBONDED TABLE R-SQUARED SPACING: 0.0625
Info: NONBONDED TABLE SIZE: 705 POINTS
TCL: Running for 1500000 steps
ETITLE: TS BOND ANGLE DIHED IMPRP ELECT VDW BOUNDARY MISC KINETIC TOTAL TEMP POTENTIAL TOTALAVG TEMPAVG PRESSURE GPRESSURE VOLUME PRESSAVG GPRESSAVG
ENERGY: 0 0.1124 0.2119 0.1861 0.0000 -10623.2647 1387.0674 0.0000 0.0000 1760.3977 -7475.2892 298.0728 -9235.6870 -7475.2892 298.0728 -313.1530 -231.5912 30934.8759 -313.1530 -231.5912
ENERGY: 300000 0.0064 0.1564 0.0161 0.0000 -10865.2638 1530.0701 0.0000 0.0000 1808.7222 -7526.2926 306.2552 -9335.0148 -7531.6356 302.0142 813.7949 877.9613 30179.7515 224.4318 295.2017
ENERGY: 600000 0.5337 0.1719 0.0351 0.0000 -10820.9193 1449.6389 0.0000 0.0000 1797.5161 -7573.0237 304.3578 -9370.5398 -7548.6366 301.2836 -151.2186 -81.2288 30705.6367 37.0323 105.5826
ENERGY: 900000 0.0168 0.8412 0.3270 0.0000 -10914.4919 1493.9772 0.0000 0.0000 1717.2234 -7702.1062 290.7625 -9419.3296 -7575.5983 299.3508 129.4304 219.3668 30359.7693 40.1235 106.5258
ENERGY: 1200000 0.1260 1.4046 0.0000 0.0000 -10735.0237 1430.8876 0.0000 0.0000 1748.6139 -7553.9917 296.0776 -9302.6056 -7579.6729 298.2310 1.1566 -15.4188 30511.9291 -3.7014 55.4935
ENERGY: 1500000 0.0313 1.2033 0.2525 0.0000 -10703.8347 1482.6756 0.0000 0.0000 1812.6349 -7407.0371 306.9177 -9219.6720 -7570.8380 298.8976 522.8712 609.5382 30765.6605 -30.1545 38.3357
TCL: Running FEP window   9: Lambda1 0.39999999999999997 Lambda2 0.44999999999999996 [dLambda 0.04999999999999999]
TCL: Setting parameter firsttimestep to 0
TCL: Setting parameter alchLambda to 0.39999999999999997
Info: NONBONDED TABLE R-SQUARED SPACING: 0.0625
Info: NONBONDED TABLE SIZE: 705 POINTS
TCL: Setting parameter alchLambda2 to 0.44999999999999996
Info: NONBONDED TABLE R-SQUARED SPACING: 0.0625
Info: NONBONDED TABLE SIZE: 705 POINTS
TCL: Running for 1500000 steps
ETITLE: TS BOND ANGLE DIHED IMPRP ELECT VDW BOUNDARY MISC KINETIC TOTAL TEMP POTENTIAL TOTALAVG TEMPAVG PRESSURE GPRESSURE VOLUME PRESSAVG GPRESSAVG
ENERGY: 0 0.0313 1.2033 0.2525 0.0000 -10703.8356 1482.5698 0.0000 0.0000 1811.7693 -7408.0094 306.7711 -9219.7787 -7408.0094 306.7711 532.6638 609.2917 30765.6605 532.6638 609.2917
ENERGY: 300000 0.2774 1.5501 0.8929 0.0000 -10898.8001 1476.2659 0.0000 0.0000 1789.9694 -7629.8444 303.0799 -9419.8138 -7571.3190 300.9048 40.5066 112.5418 30119.8160 -0.1530 54.0973
ENERGY: 600000 0.0813 0.0827 0.0311 0.0000 -10771.0956 1458.9369 0.0000 0.0000 1706.2579 -7605.7057 288.9058 -9311.9635 -7579.6970 298.4462 273.2128 320.1465 30201.9397 15.8616 72.3083
ENERGY: 900000 1.0823 0.3355 0.0103 0.0000 -10936.3586 1545.5469 0.0000 0.0000 1775.8171 -7613.5666 300.6837 -9389.3837 -7587.9421 297.9178 521.8753 598.5759 30459.6868 -25.1103 33.9157
ENERGY: 1200000 0.0169 0.2784 0.1387 0.0000 -10846.3007 1450.6479 0.0000 0.0000 1756.1286 -7639.0902 297.3500 -9395.2188 -7585.3227 298.3158 110.7535 107.5766 30082.7071 -71.6239 -18.6744
ENERGY: 1500000 0.4747 0.6005 0.0095 0.0000 -10901.1233 1509.3776 0.0000 0.0000 1753.7411 -7636.9199 296.9457 -9390.6610 -7582.4478 299.2889 212.2486 239.0232 30557.8795 -38.1848 11.4206
TCL: Running FEP window  10: Lambda1 0.44999999999999996 Lambda2 0.49999999999999994 [dLambda 0.04999999999999999]
TCL: Setting parameter firsttimestep to 0
TCL: Setting parameter alchLambda to 0.44999999999999996
Info: NONBONDED TABLE R-SQUARED SPACING: 0.0625
Info: NONBONDED TABLE SIZE: 705 POINTS
TCL: Setting parameter alchLambda2 to 0.49999999999999994
Info: NONBONDED TABLE R-SQUARED SPACING: 0.0625
Info: NONBONDED TABLE SIZE: 705 POINTS
TCL: Running for 1500000 steps
ETITLE: TS BOND ANGLE DIHED IMPRP ELECT VDW BOUNDARY MISC KINETIC TOTAL TEMP POTENTIAL TOTALAVG TEMPAVG PRESSURE GPRESSURE VOLUME PRESSAVG GPRESSAVG
ENERGY: 0 0.4747 0.6005 0.0095 0.0000 -10901.1239 1509.4194 0.0000 0.0000 1752.8272 -7637.7926 296.7910 -9390.6198 -7637.7926 296.7910 151.2217 242.7436 30557.8795 151.2217 242.7436
ENERGY: 300000 0.0416 0.1300 0.1712 0.0000 -10700.9372 1387.7393 0.0000 0.0000 1706.2685 -7606.5866 288.9076 -9312.8551 -7631.1729 294.2668 -520.6319 -453.0964 30657.5773 -103.1979 -30.6651
ENERGY: 600000 0.1285 0.0431 0.0421 0.0000 -10821.0656 1470.5252 0.0000 0.0000 1844.2788 -7506.0479 312.2757 -9350.3267 -7586.0515 300.3316 -61.2545 -3.6683 30979.1909 -86.6998 -26.1875
ENERGY: 900000 0.4365 0.9702 0.9099 0.0000 -10946.7048 1567.4946 0.0000 0.0000 1791.5198 -7585.3738 303.3425 -9376.8936 -7591.5778 300.6011 727.8022 813.3872 30512.9479 -108.1190 -48.8626
ENERGY: 1200000 0.1013 0.2541 0.1048 0.0000 -10870.3207 1552.1676 0.0000 0.0000 1829.9574 -7487.7356 309.8508 -9317.6930 -7589.4156 300.4698 1106.4518 1077.3084 30173.9714 19.7269 80.2100
ENERGY: 1500000 0.5478 0.0370 0.0220 0.0000 -10782.5094 1448.2086 0.0000 0.0000 1757.0847 -7576.6094 297.5119 -9333.6941 -7582.5702 300.6314 66.8021 141.4785 30511.7723 -24.4956 35.1257
TCL: Running FEP window  11: Lambda1 0.49999999999999994 Lambda2 0.5499999999999999 [dLambda 0.04999999999999999]
TCL: Setting parameter firsttimestep to 0
TCL: Setting parameter alchLambda to 0.49999999999999994
Info: NONBONDED TABLE R-SQUARED SPACING: 0.0625
Info: NONBONDED TABLE SIZE: 705 POINTS
TCL: Setting parameter alchLambda2 to 0.5499999999999999
Info: NONBONDED TABLE R-SQUARED SPACING: 0.0625
Info: NONBONDED TABLE SIZE: 705 POINTS
TCL: Running for 1500000 steps
ETITLE: TS BOND ANGLE DIHED IMPRP ELECT VDW BOUNDARY MISC KINETIC TOTAL TEMP POTENTIAL TOTALAVG TEMPAVG PRESSURE GPRESSURE VOLUME PRESSAVG GPRESSAVG
ENERGY: 0 0.5478 0.0370 0.0220 0.0000 -10782.5084 1448.3466 0.0000 0.0000 1756.1887 -7577.3663 297.3601 -9333.5550 -7577.3663 297.3601 56.7092 144.9274 30511.7723 56.7092 144.9274
ENERGY: 300000 0.1520 0.2114 0.1802 0.0000 -10787.8672 1444.1682 0.0000 0.0000 1763.3734 -7579.7820 298.5767 -9343.1554 -7583.9870 300.0018 -179.2282 -55.0388 30637.4522 108.1588 172.7516
ENERGY: 600000 0.0396 1.1477 0.1345 0.0000 -10744.3860 1374.1962 0.0000 0.0000 1772.2979 -7596.5701 300.0878 -9368.8680 -7590.6240 300.0629 -632.6354 -536.5899 30557.1892 108.3667 177.3723
ENERGY: 900000 0.0048 1.2357 0.0845 0.0000 -10861.0109 1425.1362 0.0000 0.0000 1774.2226 -7660.3271 300.4137 -9434.5497 -7598.6508 299.2642 -618.7575 -588.2941 30705.7138 -42.2961 15.4743
ENERGY: 1200000 0.2223 1.3748 0.9060 0.0000 -11031.1912 1583.0478 0.0000 0.0000 1710.8643 -7734.7760 289.6858 -9445.6403 -7615.0795 298.0356 910.2930 898.7243 30115.1599 63.9301 127.3929
ENERGY: 1500000 0.6276 0.1864 0.1106 0.0000 -10758.6233 1450.2760 0.0000 0.0000 1785.4435 -7521.9793 302.3136 -9307.4227 -7600.5957 298.8270 -265.5446 -217.9614 31106.8068 -5.9580 51.6551
TCL: Running FEP window  12: Lambda1 0.5499999999999999 Lambda2 0.6    [dLambda 0.050000000000000044]
TCL: Setting parameter firsttimestep to 0
TCL: Setting parameter alchLambda to 0.5499999999999999
Info: NONBONDED TABLE R-SQUARED SPACING: 0.0625
Info: NONBONDED TABLE SIZE: 705 POINTS
TCL: Setting parameter alchLambda2 to 0.6
Info: NONBONDED TABLE R-SQUARED SPACING: 0.0625
Info: NONBONDED TABLE SIZE: 705 POINTS
TCL: Running for 1500000 steps
ETITLE: TS BOND ANGLE DIHED IMPRP ELECT VDW BOUNDARY MISC KINETIC TOTAL TEMP POTENTIAL TOTALAVG TEMPAVG PRESSURE GPRESSURE VOLUME PRESSAVG GPRESSAVG
ENERGY: 0 0.6276 0.1864 0.1106 0.0000 -10758.6946 1450.2536 0.0000 0.0000 1784.5675 -7522.9490 302.1653 -9307.5165 -7522.9490 302.1653 -300.5625 -217.8982 31106.8068 -300.5625 -217.8982
ENERGY: 300000 0.2660 0.4498 0.0507 0.0000 -11017.6826 1578.1180 0.0000 0.0000 1758.8254 -7679.9727 297.8066 -9438.7981 -7567.1542 299.7509 836.4870 951.8158 30065.9994 -94.1580 -9.8751
ENERGY: 600000 0.8033 0.0245 0.1393 0.0000 -10757.5591 1468.0854 0.0000 0.0000 1784.8336 -7503.6731 302.2103 -9288.5067 -7554.3323 301.1140 366.5258 453.0530 30504.0069 -65.3870 3.7996
ENERGY: 900000 0.8933 1.3233 0.3815 0.0000 -10656.8226 1332.3019 0.0000 0.0000 1791.9272 -7529.9954 303.4114 -9321.9226 -7554.1124 301.4972 -865.6763 -772.8213 30787.8521 -218.1706 -148.0376
ENERGY: 1200000 0.0042 1.0011 0.6357 0.0000 -10902.9436 1483.4774 0.0000 0.0000 1755.3504 -7662.4748 297.2182 -9417.8252 -7581.9968 299.4336 69.4761 103.1054 30551.7999 -204.7193 -134.1854
ENERGY: 1500000 0.0952 0.2453 0.5433 0.0000 -10822.2825 1488.2924 0.0000 0.0000 1777.0182 -7556.0882 300.8870 -9333.1064 -7575.5914 299.8711 497.7219 567.2409 30199.4312 -92.6197 -19.2824
TCL: Running FEP window  13: Lambda1 0.6    Lambda2 0.65   [dLambda 0.050000000000000044]
TCL: Setting parameter firsttimestep to 0
TCL: Setting parameter alchLambda to 0.6
Info: NONBONDED TABLE R-SQUARED SPACING: 0.0625
Info: NONBONDED TABLE SIZE: 705 POINTS
TCL: Setting parameter alchLambda2 to 0.65
Info: NONBONDED TABLE R-SQUARED SPACING: 0.0625
Info: NONBONDED TABLE SIZE: 705 POINTS
TCL: Running for 1500000 steps
ETITLE: TS BOND ANGLE DIHED IMPRP ELECT VDW BOUNDARY MISC KINETIC TOTAL TEMP POTENTIAL TOTALAVG TEMPAVG PRESSURE GPRESSURE VOLUME PRESSAVG GPRESSAVG
ENERGY: 0 0.0952 0.2453 0.5433 0.0000 -10822.7357 1488.2170 0.0000 0.0000 1776.0908 -7557.5442 300.7300 -9333.6349 -7557.5442 300.7300 479.2600 570.0676 30199.4312 479.2600 570.0676
ENERGY: 300000 0.0049 0.8193 0.0821 0.0000 -10641.5616 1327.5055 0.0000 0.0000 1698.9348 -7614.2151 287.6658 -9313.1499 -7574.5343 298.3477 -1046.7071 -967.6754 30744.1171 -29.6140 34.5164
ENERGY: 600000 0.8075 1.4068 0.0754 0.0000 -10835.5915 1504.1953 0.0000 0.0000 1709.9516 -7619.1548 289.5312 -9329.1064 -7584.5643 296.8634 200.3930 294.1607 30913.8944 -67.5889 23.9610
ENERGY: 900000 0.0732 0.2117 0.1063 0.0000 -10762.4004 1468.2222 0.0000 0.0000 1704.2822 -7589.5047 288.5713 -9293.7869 -7576.7132 297.9467 -21.4672 5.0924 30990.4483 37.7822 110.0506
ENERGY: 1200000 0.0125 0.3084 0.0106 0.0000 -10857.4900 1487.3008 0.0000 0.0000 1744.9350 -7624.9228 295.4547 -9369.8578 -7584.7536 297.4031 260.1785 255.3263 30559.4155 50.7652 115.4036
ENERGY: 1500000 0.2823 0.4390 0.0198 0.0000 -10993.1725 1551.9726 0.0000 0.0000 1810.2284 -7630.2304 306.5102 -9440.4588 -7588.3776 297.4720 316.9444 387.7320 30813.3614 47.1738 115.2555
TCL: Running FEP window  14: Lambda1 0.65   Lambda2 0.7000000000000001 [dLambda 0.050000000000000044]
TCL: Setting parameter firsttimestep to 0
TCL: Setting parameter alchLambda to 0.65
Info: NONBONDED TABLE R-SQUARED SPACING: 0.0625
Info: NONBONDED TABLE SIZE: 705 POINTS
TCL: Setting parameter alchLambda2 to 0.7000000000000001
Info: NONBONDED TABLE R-SQUARED SPACING: 0.0625
Info: NONBONDED TABLE SIZE: 705 POINTS
TCL: Running for 1500000 steps
ETITLE: TS BOND ANGLE DIHED IMPRP ELECT VDW BOUNDARY MISC KINETIC TOTAL TEMP POTENTIAL TOTALAVG TEMPAVG PRESSURE GPRESSURE VOLUME PRESSAVG GPRESSAVG
ENERGY: 0 0.2823 0.4390 0.0198 0.0000 -10993.9704 1552.1655 0.0000 0.0000 1809.3702 -7631.6937 306.3649 -9441.0639 -7631.6937 306.3649 304.1569 391.5318 30813.3614 304.1569 391.5318
ENERGY: 300000 0.0074 1.2136 0.0805 0.0000 -10804.2254 1424.4419 0.0000 0.0000 1725.9890 -7652.4929 292.2467 -9378.4819 -7616.9090 298.3490 -439.9582 -332.0878 30749.0666 -78.4962 30.5429
ENERGY: 600000 1.8472 0.4609 0.0122 0.0000 -10771.5253 1473.4012 0.0000 0.0000 1739.6062 -7556.1975 294.5524 -9295.8037 -7597.0956 299.5749 530.3208 556.7828 30438.0096 24.8927 109.5662
ENERGY: 900000 1.7867 0.3133 0.0726 0.0000 -10780.3186 1481.1322 0.0000 0.0000 1790.6623 -7506.3514 303.1973 -9297.0137 -7579.1976 301.2510 309.0498 340.1731 30609.3053 -46.4597 21.1656
ENERGY: 1200000 0.4757 0.6873 0.1940 0.0000 -10703.4660 1382.3124 0.0000 0.0000 1745.9676 -7573.8289 295.6295 -9319.7965 -7582.6617 300.4944 -704.3811 -637.4827 30943.0727 -188.8879 -123.5587
ENERGY: 1500000 0.0042 0.9128 0.4096 0.0000 -10895.7099 1549.2691 0.0000 0.0000 1731.2252 -7613.8890 293.1333 -9345.1143 -7586.1716 299.3076 782.0365 855.4694 30307.7612 -73.0553 -3.4320
TCL: Running FEP window  15: Lambda1 0.7000000000000001 Lambda2 0.7500000000000001 [dLambda 0.050000000000000044]
TCL: Setting parameter firsttimestep to 0
TCL: Setting parameter alchLambda to 0.7000000000000001
Info: NONBONDED TABLE R-SQUARED SPACING: 0.0625
Info: NONBONDED TABLE SIZE: 705 POINTS
TCL: Setting parameter alchLambda2 to 0.7500000000000001
Info: NONBONDED TABLE R-SQUARED SPACING: 0.0625
Info: NONBONDED TABLE SIZE: 705 POINTS
TCL: Running for 1500000 steps
ETITLE: TS BOND ANGLE DIHED IMPRP ELECT VDW BOUNDARY MISC KINETIC TOTAL TEMP POTENTIAL TOTALAVG TEMPAVG PRESSURE GPRESSURE VOLUME PRESSAVG GPRESSAVG
ENERGY: 0 0.0042 0.9128 0.4096 0.0000 -10895.9907 1549.6551 0.0000 0.0000 1730.3425 -7614.6666 292.9838 -9345.0091 -7614.6666 292.9838 768.6267 858.7620 30307.7612 768.6267 858.7620
ENERGY: 300000 0.2775 1.1435 0.1071 0.0000 -10676.2949 1296.0197 0.0000 0.0000 1764.9238 -7613.8233 298.8392 -9378.7471 -7597.2714 299.1042 -1285.9440 -1205.1229 30741.8631 -58.6797 29.6792
ENERGY: 600000 0.0222 2.2459 0.1273 0.0000 -10650.1835 1364.5946 0.0000 0.0000 1807.9298 -7475.2637 306.1210 -9283.1935 -7556.8217 300.6972 -526.1789 -481.2123 30689.7642 -184.2951 -112.7929
ENERGY: 900000 0.1666 0.3871 0.0189 0.0000 -10871.8457 1490.7759 0.0000 0.0000 1815.9580 -7564.5391 307.4804 -9380.4972 -7560.0716 300.6893 112.7508 194.5087 30673.8176 -94.2113 -23.1490
ENERGY: 1200000 0.3221 0.5448 0.2784 0.0000 -10804.6273 1438.5170 0.0000 0.0000 1771.4886 -7593.4765 299.9507 -9364.9650 -7577.2545 300.1957 -197.1988 -145.2389 30813.7931 -79.6329 -14.2556
ENERGY: 1500000 0.0048 0.9707 1.0236 0.0000 -10818.2259 1491.4952 0.0000 0.0000 1788.0825 -7536.6491 302.7605 -9324.7316 -7581.1631 299.8594 365.1213 427.3092 30502.6331 -39.5209 25.7361
TCL: Running FEP window  16: Lambda1 0.7500000000000001 Lambda2 0.8000000000000002 [dLambda 0.050000000000000044]
TCL: Setting parameter firsttimestep to 0
TCL: Setting parameter alchLambda to 0.7500000000000001
Info: NONBONDED TABLE R-SQUARED SPACING: 0.0625
Info: NONBONDED TABLE SIZE: 705 POINTS
TCL: Setting parameter alchLambda2 to 0.8000000000000002
Info: NONBONDED TABLE R-SQUARED SPACING: 0.0625
Info: NONBONDED TABLE SIZE: 705 POINTS
TCL: Running for 1500000 steps
ETITLE: TS BOND ANGLE DIHED IMPRP ELECT VDW BOUNDARY MISC KINETIC TOTAL TEMP POTENTIAL TOTALAVG TEMPAVG PRESSURE GPRESSURE VOLUME PRESSAVG GPRESSAVG
ENERGY: 0 0.0048 0.9707 1.0236 0.0000 -10818.5653 1491.9871 0.0000 0.0000 1787.1613 -7537.4177 302.6045 -9324.5791 -7537.4177 302.6045 351.4816 435.1899 30502.6331 351.4816 435.1899
ENERGY: 300000 0.1856 0.4591 0.1564 0.0000 -10843.8273 1517.8415 0.0000 0.0000 1809.4302 -7515.7545 306.3751 -9325.1847 -7561.3981 302.9020 299.3100 342.5295 31063.8330 250.5198 304.4276
ENERGY: 600000 1.5394 0.2293 0.1643 0.0000 -10987.8545 1542.9525 0.0000 0.0000 1749.2727 -7693.6963 296.1891 -9442.9691 -7594.6679 301.1479 439.9087 513.9818 30505.1922 145.1260 203.9627
ENERGY: 900000 0.0294 2.2047 0.8181 0.0000 -10701.0288 1416.5656 0.0000 0.0000 1750.4574 -7530.9534 296.3897 -9281.4108 -7579.6503 300.4114 -157.5055 -87.9107 30739.2435 -40.8366 23.1650
ENERGY: 1200000 0.0146 0.6091 0.1340 0.0000 -10756.6218 1428.6894 0.0000 0.0000 1818.2320 -7508.9426 307.8654 -9327.1746 -7582.5680 299.9212 70.4187 118.5389 30426.1910 -57.5112 3.5917
ENERGY: 1500000 0.2037 0.6692 0.7238 0.0000 -10739.8485 1469.8434 0.0000 0.0000 1771.7120 -7496.6965 299.9886 -9268.4085 -7575.9963 299.6631 176.7589 193.0378 30654.9450 -30.4820 26.6795
TCL: Running FEP window  17: Lambda1 0.8000000000000002 Lambda2 0.8500000000000002 [dLambda 0.050000000000000044]
TCL: Setting parameter firsttimestep to 0
TCL: Setting parameter alchLambda to 0.8000000000000002
Info: NONBONDED TABLE R-SQUARED SPACING: 0.0625
Info: NONBONDED TABLE SIZE: 705 POINTS
TCL: Setting parameter alchLambda2 to 0.8500000000000002
Info: NONBONDED TABLE R-SQUARED SPACING: 0.0625
Info: NONBONDED TABLE SIZE: 705 POINTS
TCL: Running for 1500000 steps
ETITLE: TS BOND ANGLE DIHED IMPRP ELECT VDW BOUNDARY MISC KINETIC TOTAL TEMP POTENTIAL TOTALAVG TEMPAVG PRESSURE GPRESSURE VOLUME PRESSAVG GPRESSAVG
ENERGY: 0 0.2037 0.6692 0.7238 0.0000 -10741.1568 1470.0915 0.0000 0.0000 1770.8456 -7498.6230 299.8419 -9269.4686 -7498.6230 299.8419 118.4731 196.7602 30654.9450 118.4731 196.7602
ENERGY: 300000 0.2273 1.1461 0.1362 0.0000 -11004.6329 1541.5254 0.0000 0.0000 1714.6616 -7746.9364 290.3287 -9461.5980 -7563.9021 300.0427 609.9725 689.5954 29997.6909 58.0256 135.3000
ENERGY: 600000 0.0280 0.5600 0.1735 0.0000 -10824.2862 1464.2378 0.0000 0.0000 1692.5099 -7666.7771 286.5780 -9359.2870 -7580.0075 297.3338 149.2010 195.1807 30290.0564 9.4018 56.5770
ENERGY: 900000 0.1874 0.5748 0.0126 0.0000 -10910.9731 1435.2375 0.0000 0.0000 1789.6987 -7685.2621 303.0341 -9474.9608 -7597.7311 298.3670 -610.7482 -496.1978 30676.5347 -160.1659 -95.7976
ENERGY: 1200000 0.0325 0.8260 0.0273 0.0000 -10802.6422 1442.3486 0.0000 0.0000 1707.4708 -7651.9370 289.1112 -9359.4078 -7593.6433 299.2374 -230.9763 -149.4992 30663.8384 -85.0555 -20.7029
ENERGY: 1500000 0.0011 2.0418 0.0016 0.0000 -10766.6724 1435.8123 0.0000 0.0000 1745.4796 -7583.3359 295.5469 -9328.8155 -7593.4994 299.2386 82.2252 183.8485 30301.4624 2.5527 65.7104
TCL: Running FEP window  18: Lambda1 0.8500000000000002 Lambda2 0.9000000000000002 [dLambda 0.050000000000000044]
TCL: Setting parameter firsttimestep to 0
TCL: Setting parameter alchLambda to 0.8500000000000002
Info: NONBONDED TABLE R-SQUARED SPACING: 0.0625
Info: NONBONDED TABLE SIZE: 705 POINTS
TCL: Setting parameter alchLambda2 to 0.9000000000000002
Info: NONBONDED TABLE R-SQUARED SPACING: 0.0625
Info: NONBONDED TABLE SIZE: 705 POINTS
TCL: Running for 1500000 steps
ETITLE: TS BOND ANGLE DIHED IMPRP ELECT VDW BOUNDARY MISC KINETIC TOTAL TEMP POTENTIAL TOTALAVG TEMPAVG PRESSURE GPRESSURE VOLUME PRESSAVG GPRESSAVG
ENERGY: 0 0.0011 2.0418 0.0016 0.0000 -10767.5642 1436.1820 0.0000 0.0000 1744.5964 -7584.7413 295.3973 -9329.3377 -7584.7413 295.3973 104.7637 190.6263 30301.4624 104.7637 190.6263
ENERGY: 300000 0.4615 0.2399 0.2528 0.0000 -10814.8815 1472.7621 0.0000 0.0000 1780.8404 -7560.3247 301.5342 -9341.1651 -7566.3103 300.5094 126.6571 189.8984 30457.1799 -200.9543 -130.7478
ENERGY: 600000 0.0322 0.4375 0.0648 0.0000 -10740.7783 1446.8059 0.0000 0.0000 1789.0661 -7504.3718 302.9270 -9293.4379 -7578.1564 299.0985 24.6207 133.3664 30698.6610 -109.4392 -20.7070
ENERGY: 900000 1.9707 0.2683 0.0065 0.0000 -10963.2800 1525.2335 0.0000 0.0000 1748.7127 -7687.0883 296.0943 -9435.8010 -7584.2294 300.1434 468.1269 465.0434 30166.8082 20.9708 97.8809
ENERGY: 1200000 0.2385 0.5348 0.0380 0.0000 -10836.1718 1461.8364 0.0000 0.0000 1824.6441 -7548.8800 308.9511 -9373.5241 -7586.8081 300.2124 -58.3515 -71.8548 30581.5729 -88.4457 -18.8812
ENERGY: 1500000 0.0067 1.5588 0.0429 0.0000 -10934.2315 1507.8615 0.0000 0.0000 1855.8632 -7568.8983 314.2372 -9424.7615 -7587.7409 300.7517 516.6785 580.2348 30189.2778 -28.3160 30.9804
TCL: Running FEP window  19: Lambda1 0.9000000000000002 Lambda2 0.9500000000000003 [dLambda 0.050000000000000044]
TCL: Setting parameter firsttimestep to 0
TCL: Setting parameter alchLambda to 0.9000000000000002
Info: NONBONDED TABLE R-SQUARED SPACING: 0.0625
Info: NONBONDED TABLE SIZE: 705 POINTS
TCL: Setting parameter alchLambda2 to 0.9500000000000003
Info: NONBONDED TABLE R-SQUARED SPACING: 0.0625
Info: NONBONDED TABLE SIZE: 705 POINTS
TCL: Running for 1500000 steps
ETITLE: TS BOND ANGLE DIHED IMPRP ELECT VDW BOUNDARY MISC KINETIC TOTAL TEMP POTENTIAL TOTALAVG TEMPAVG PRESSURE GPRESSURE VOLUME PRESSAVG GPRESSAVG
ENERGY: 0 0.0067 1.5588 0.0429 0.0000 -10934.9989 1508.7266 0.0000 0.0000 1854.9925 -7569.6713 314.0897 -9424.6638 -7569.6713 314.0897 515.7852 593.0209 30189.2778 515.7852 593.0209
ENERGY: 300000 3.4972 0.6222 0.6618 0.0000 -10839.8265 1443.5059 0.0000 0.0000 1753.7678 -7637.7715 296.9502 -9391.5393 -7598.5216 301.2375 -372.8683 -331.0898 30613.1602 -214.4929 -162.9478
ENERGY: 600000 0.0406 0.1905 0.1998 0.0000 -10929.1357 1443.6767 0.0000 0.0000 1743.9952 -7741.0329 295.2955 -9485.0281 -7608.6012 301.5789 -328.8129 -245.5866 30326.2195 -234.0128 -177.1066
ENERGY: 900000 1.7439 0.0408 0.2177 0.0000 -10788.5806 1488.5821 0.0000 0.0000 1797.4267 -7500.5695 304.3426 -9297.9961 -7585.8525 301.9146 395.1977 456.1190 30498.9080 -150.1803 -95.1452
ENERGY: 1200000 0.0539 2.4369 0.0221 0.0000 -10864.7283 1450.4954 0.0000 0.0000 1751.5716 -7660.1484 296.5784 -9411.7200 -7575.7685 301.8681 -130.9955 -59.4315 30440.1591 -206.8348 -149.9703
ENERGY: 1500000 0.3396 1.1098 1.1364 0.0000 -10749.1963 1431.8809 0.0000 0.0000 1796.0158 -7518.7138 304.1037 -9314.7297 -7578.5065 302.2133 65.5326 148.9878 30409.2273 -228.3826 -167.4912
TCL: Running FEP window  20: Lambda1 0.9500000000000003 Lambda2 1.0    [dLambda 0.04999999999999971]
TCL: Setting parameter firsttimestep to 0
TCL: Setting parameter alchLambda to 0.9500000000000003
Info: NONBONDED TABLE R-SQUARED SPACING: 0.0625
Info: NONBONDED TABLE SIZE: 705 POINTS
TCL: Setting parameter alchLambda2 to 1.0
Info: NONBONDED TABLE R-SQUARED SPACING: 0.0625
Info: NONBONDED TABLE SIZE: 705 POINTS
TCL: Running for 1500000 steps
ETITLE: TS BOND ANGLE DIHED IMPRP ELECT VDW BOUNDARY MISC KINETIC TOTAL TEMP POTENTIAL TOTALAVG TEMPAVG PRESSURE GPRESSURE VOLUME PRESSAVG GPRESSAVG
ENERGY: 0 0.3396 1.1098 1.1364 0.0000 -10750.4496 1432.1660 0.0000 0.0000 1795.1281 -7520.5697 303.9534 -9315.6978 -7520.5697 303.9534 79.7013 152.5142 30409.2273 79.7013 152.5142
ENERGY: 300000 0.3575 0.0646 0.0472 0.0000 -10879.4589 1497.2388 0.0000 0.0000 1778.5765 -7603.1743 301.1509 -9381.7508 -7554.0971 299.4072 154.0016 222.0820 30910.3407 274.9342 335.8894
ENERGY: 600000 0.1398 0.7248 0.0686 0.0000 -10755.0150 1401.9117 0.0000 0.0000 1796.1650 -7556.0051 304.1290 -9352.1701 -7584.2288 297.4146 -348.4381 -307.2001 30455.3339 252.8634 299.8781
ENERGY: 900000 0.1230 0.6603 0.4375 0.0000 -10905.9041 1462.7932 0.0000 0.0000 1795.2563 -7646.6339 303.9751 -9441.8902 -7579.9327 297.3601 -4.4029 11.7689 30441.2284 217.8934 265.6205
ENERGY: 1200000 0.0014 0.5364 0.3722 0.0000 -11041.1836 1589.3059 0.0000 0.0000 1794.6844 -7656.2833 303.8783 -9450.9677 -7580.8593 298.7649 795.7048 815.7628 30462.3591 274.0988 319.9608
ENERGY: 1500000 0.0134 0.3550 0.0771 0.0000 -10799.0366 1437.7999 0.0000 0.0000 1751.7375 -7609.0536 296.6065 -9360.7912 -7577.8131 299.6217 -233.3822 -198.7219 30813.5512 232.9585 280.4206
TCL: Exiting due to exit command.
