Info: SIMULATION PARAMETERS:
Info: TIMESTEP               2
Info: NUMBER OF STEPS        0
Info: STEPS PER CYCLE        10
Info: PERIODIC CELL BASIS 1  34.986 0 0
Info: PERIODIC CELL BASIS 2  0 33.314 0
Info: PERIODIC CELL BASIS 3  0 0 37.638
Info: PERIODIC CELL CENTER   0 0 0
Info: WRAPPING WATERS AROUND PERIODIC BOUNDARIES ON OUTPUT.
Info: WRAPPING ALL CLUSTERS AROUND PERIODIC BOUNDARIES ON OUTPUT.
Info: FIRST LDB TIMESTEP     50
Info: LAST LDB TIMESTEP     -1
Info: HOM BACKGROUND SCALING 1
Info: PME BACKGROUND SCALING 1
Info: MIN ATOMS PER PATCH    40
Info: EMPTY PATCH LOAD       40 ATOMS
Info: INITIAL TEMPERATURE    300
Info: CENTER OF MASS MOVING INITIALLY? NO
Info: DIELECTRIC             1
Info: EXCLUDE                SCALED ONE-FOUR
Info: 1-4 ELECTROSTATICS SCALED BY 0.833333
Info: MODIFIED 1-4 VDW PARAMETERS WILL BE USED
Info: DCD FILENAME           mobley_5326154_equil.dcd
Info: DCD FREQUENCY          100000
Info: DCD FIRST STEP         100000
Info: DCD FILE WILL CONTAIN UNIT CELL DATA
Info: XST FILENAME           mobley_5326154_equil.xst
Info: XST FREQUENCY          100000
Info: NO VELOCITY DCD OUTPUT
Info: NO FORCE DCD OUTPUT
Info: OUTPUT FILENAME        mobley_5326154_equil
Info: BINARY OUTPUT FILES WILL BE USED
Info: RESTART FILENAME       mobley_5326154_equil.restart
Info: RESTART FREQUENCY      100000
Info: BINARY RESTART FILES WILL BE USED
Info: CUTOFF                 9
Info: PAIRLIST DISTANCE      11
Info: PAIRLIST SHRINK RATE   0.01
Info: PAIRLIST GROW RATE     0.01
Info: PAIRLIST TRIGGER       0.3
Info: PAIRLISTS PER CYCLE    2
Info: PAIRLISTS ENABLED
Info: MARGIN                 8
Info: HYDROGEN GROUP CUTOFF  2.5
Info: PATCH DIMENSION        21.5
Info: ENERGY OUTPUT STEPS    100000
Info: ENERGY EVALUATION STEPS    100000
Info: OUTPUT ENERGY PRECISION 4
Info: CROSSTERM ENERGY INCLUDED IN DIHEDRAL
Info: TIMING OUTPUT STEPS    1000000
Info: PRESSURE OUTPUT STEPS  100000
Info: LANGEVIN DYNAMICS ACTIVE
Info: LANGEVIN TEMPERATURE   30
Info: LANGEVIN USING BBK INTEGRATOR
Info: LANGEVIN DAMPING COEFFICIENT IS 1 INVERSE PS
Info: LANGEVIN DYNAMICS APPLIED TO HYDROGENS
Info: LANGEVIN PISTON PRESSURE CONTROL ACTIVE
Info:        TARGET PRESSURE IS 1.01325 BAR
Info:     OSCILLATION PERIOD IS 50 FS
Info:             DECAY TIME IS 25 FS
Info:     PISTON TEMPERATURE IS 300 K
Info:       PRESSURE CONTROL IS GROUP-BASED
Info:    INITIAL STRAIN RATE IS 0 0 0
Info:       CELL FLUCTUATION IS ISOTROPIC
Info: PARTICLE MESH EWALD (PME) ACTIVE
Info: PME TOLERANCE               1e-06
Info: PME EWALD COEFFICIENT       0.348832
Info: PME INTERPOLATION ORDER     4
Info: PME GRID DIMENSIONS         36 36 40
Info: PME MAXIMUM GRID SPACING    1
Info: FULL ELECTROSTATIC EVALUATION FREQUENCY      2
Info: USING VERLET I (r-RESPA) MTS SCHEME.
Info: C1 SPLITTING OF LONG RANGE ELECTROSTATICS
Info: PLACING ATOMS IN PATCHES BY HYDROGEN GROUPS
Info: RIGID BONDS TO HYDROGEN : ALL
Info:         ERROR TOLERANCE : 1e-08
Info:          MAX ITERATIONS : 100
Info: RIGID WATER USING SETTLE ALGORITHM
Info: RANDOM NUMBER SEED     1743233716
Info: USE HYDROGEN BONDS?    NO
Info: Using AMBER format force field!
Info: AMBER PARM FILE        mobley_5326154.prmtop
Info: COORDINATE PDB         mobley_5326154.pdb
Info: Exclusions will be read from PARM file!
Info: SCNB (VDW SCALING)     2
Info: USING ARITHMETIC MEAN TO COMBINE L-J SIGMA PARAMETERS
Info: BINARY COORDINATES     mobley_5326154_min.coor
Info: SUMMARY OF PARAMETERS:
Info: 7 BONDS
Info: 7 ANGLES
Info:   7 HARMONIC
Info:   0 COSINE-BASED
Info: 4 DIHEDRAL
Info: 0 IMPROPER
Info: 0 CROSSTERM
Info: 0 VDW
Info: 28 VDW_PAIRS
Info: 0 NBTHOLE_PAIRS
Info: STRUCTURE SUMMARY:
Info: 2945 ATOMS
Info: 2945 BONDS
Info: 33 ANGLES
Info: 47 DIHEDRALS
Info: 0 IMPROPERS
Info: 0 CROSSTERMS
Info: 3015 EXCLUSIONS
Info: 2936 RIGID BONDS
Info: 5899 DEGREES OF FREEDOM
Info: 984 HYDROGEN GROUPS
Info: 4 ATOMS IN LARGEST HYDROGEN GROUP
Info: 984 MIGRATION GROUPS
Info: 4 ATOMS IN LARGEST MIGRATION GROUP
Info: TOTAL MASS = 17686.8 amu
Info: TOTAL CHARGE = -0.00029996 e
Info: MASS DENSITY = 0.669515 g/cm^3
Info: ATOM DENSITY = 0.0671333 atoms/A^3
Info: ADDED 0 IMPLICIT EXCLUSIONS
Info: NONBONDED TABLE R-SQUARED SPACING: 0.0625
Info: NONBONDED TABLE SIZE: 705 POINTS
Info: REMOVING COM VELOCITY 0.112056 -0.0555217 0.16617
TCL: Running for 100000 steps
ETITLE: TS BOND ANGLE DIHED IMPRP ELECT VDW BOUNDARY MISC KINETIC TOTAL TEMP POTENTIAL TOTAL3 TEMPAVG PRESSURE GPRESSURE VOLUME PRESSAVG GPRESSAVG
ENERGY: 0 0.4308 0.4209 1.2673 0.0000 -13659.6933 2437.2018 0.0000 0.0000 1721.9274 -9498.4450 293.7831 -11220.3725 -9498.1197 293.7831 585.2651 615.2288 43867.9774 585.2651 615.2288
ENERGY: 100000 0.9742 1.1861 1.4276 0.0000 -14353.7367 2624.3651 0.0000 0.0000 174.9343 -11550.8495 29.8461 -11725.7838 -11550.3230 30.9257 1107.5292 1189.4989 28747.7903 4.8182 4.8728
TCL: Running 100000 steps at 60 kelvin.
TCL: Setting parameter langevinTemp to 60
TCL: Running for 100000 steps
ETITLE: TS BOND ANGLE DIHED IMPRP ELECT VDW BOUNDARY MISC KINETIC TOTAL TEMP POTENTIAL TOTAL3 TEMPAVG PRESSURE GPRESSURE VOLUME PRESSAVG GPRESSAVG
ENERGY: 100000 0.9742 1.1861 1.4276 0.0000 -14353.7367 2624.3651 0.0000 0.0000 174.8400 -11550.9438 29.8300 -11725.7838 -11550.6128 29.8300 1135.6538 1189.5068 28747.7903 1135.6538 1189.5068
ENERGY: 200000 0.7932 1.1995 1.5081 0.0000 -14110.4047 2504.1613 0.0000 0.0000 352.4007 -11250.3419 60.1241 -11602.7425 -11249.1658 59.9782 456.9555 539.6003 29061.8273 4.7850 4.7578
TCL: Running 100000 steps at 90 kelvin.
TCL: Setting parameter langevinTemp to 90
TCL: Running for 100000 steps
ETITLE: TS BOND ANGLE DIHED IMPRP ELECT VDW BOUNDARY MISC KINETIC TOTAL TEMP POTENTIAL TOTAL3 TEMPAVG PRESSURE GPRESSURE VOLUME PRESSAVG GPRESSAVG
ENERGY: 200000 0.7932 1.1995 1.5081 0.0000 -14110.4047 2504.1613 0.0000 0.0000 352.2283 -11250.5143 60.0947 -11602.7425 -11249.9696 60.0947 476.8562 540.0803 29061.8273 476.8562 540.0803
ENERGY: 300000 1.1742 3.4558 1.2704 0.0000 -13880.6836 2345.6516 0.0000 0.0000 533.6880 -10995.4436 91.0541 -11529.1316 -10994.2765 90.1259 -589.2693 -529.7807 29383.7360 3.4020 3.4353
TCL: Running 100000 steps at 120 kelvin.
TCL: Setting parameter langevinTemp to 120
TCL: Running for 100000 steps
ETITLE: TS BOND ANGLE DIHED IMPRP ELECT VDW BOUNDARY MISC KINETIC TOTAL TEMP POTENTIAL TOTAL3 TEMPAVG PRESSURE GPRESSURE VOLUME PRESSAVG GPRESSAVG
ENERGY: 300000 1.1742 3.4558 1.2704 0.0000 -13880.6836 2345.6516 0.0000 0.0000 533.4373 -10995.6943 91.0113 -11529.1316 -10994.6077 91.0113 -591.2716 -530.9336 29383.7360 -591.2716 -530.9336
ENERGY: 400000 1.9340 4.7136 1.7004 0.0000 -13882.7699 2469.0064 0.0000 0.0000 687.4568 -10717.9586 117.2890 -11405.4154 -10715.7040 120.1420 942.6334 998.1657 29166.2912 5.7721 5.9055
TCL: Running 100000 steps at 150 kelvin.
TCL: Setting parameter langevinTemp to 150
TCL: Running for 100000 steps
ETITLE: TS BOND ANGLE DIHED IMPRP ELECT VDW BOUNDARY MISC KINETIC TOTAL TEMP POTENTIAL TOTAL3 TEMPAVG PRESSURE GPRESSURE VOLUME PRESSAVG GPRESSAVG
ENERGY: 400000 1.9340 4.7136 1.7004 0.0000 -13882.7699 2469.0064 0.0000 0.0000 687.1057 -10718.3097 117.2291 -11405.4154 -10717.0862 117.2291 939.9821 999.2631 29166.2912 939.9821 999.2631
ENERGY: 500000 2.5468 3.4567 1.9891 0.0000 -13540.6059 2250.8151 0.0000 0.0000 848.0191 -10433.7792 144.6830 -11281.7982 -10431.8213 150.1381 -342.3421 -298.5156 29058.7136 3.8606 3.8453
TCL: Running 100000 steps at 180 kelvin.
TCL: Setting parameter langevinTemp to 180
TCL: Running for 100000 steps
ETITLE: TS BOND ANGLE DIHED IMPRP ELECT VDW BOUNDARY MISC KINETIC TOTAL TEMP POTENTIAL TOTAL3 TEMPAVG PRESSURE GPRESSURE VOLUME PRESSAVG GPRESSAVG
ENERGY: 500000 2.5468 3.4567 1.9891 0.0000 -13540.6059 2250.8151 0.0000 0.0000 847.5726 -10434.2257 144.6069 -11281.7982 -10432.1761 144.6069 -358.5519 -298.3658 29058.7136 -358.5519 -298.3658
ENERGY: 600000 1.7466 3.9133 3.3598 0.0000 -13028.1081 2043.5828 0.0000 0.0000 1040.3283 -9935.1773 177.4935 -10975.5056 -9934.4215 179.8430 -964.6942 -933.7411 29370.1915 3.8403 4.0718
TCL: Running 100000 steps at 210 kelvin.
TCL: Setting parameter langevinTemp to 210
TCL: Running for 100000 steps
ETITLE: TS BOND ANGLE DIHED IMPRP ELECT VDW BOUNDARY MISC KINETIC TOTAL TEMP POTENTIAL TOTAL3 TEMPAVG PRESSURE GPRESSURE VOLUME PRESSAVG GPRESSAVG
ENERGY: 600000 1.7466 3.9133 3.3598 0.0000 -13028.1081 2043.5828 0.0000 0.0000 1039.8226 -9935.6830 177.4072 -10975.5056 -9933.4482 177.4072 -997.0405 -935.3081 29370.1915 -997.0405 -935.3081
ENERGY: 700000 2.1678 4.8662 2.3222 0.0000 -12334.4876 1838.1676 0.0000 0.0000 1262.4020 -9224.5618 215.3821 -10486.9638 -9221.5463 210.1081 -445.3021 -423.6778 28834.5064 3.6906 3.5063
TCL: Running 100000 steps at 240 kelvin.
TCL: Setting parameter langevinTemp to 240
TCL: Running for 100000 steps
ETITLE: TS BOND ANGLE DIHED IMPRP ELECT VDW BOUNDARY MISC KINETIC TOTAL TEMP POTENTIAL TOTAL3 TEMPAVG PRESSURE GPRESSURE VOLUME PRESSAVG GPRESSAVG
ENERGY: 700000 2.1678 4.8662 2.3222 0.0000 -12334.4876 1838.1676 0.0000 0.0000 1261.7624 -9225.2013 215.2730 -10486.9638 -9222.8361 215.2730 -507.5633 -422.5468 28834.5064 -507.5633 -422.5468
ENERGY: 800000 1.4448 6.0923 3.2961 0.0000 -11641.3146 1583.6125 0.0000 0.0000 1437.2358 -8609.6331 245.2110 -10046.8689 -8605.4908 240.0698 -1020.5855 -938.4695 29221.8986 3.2724 3.3790
TCL: Running 100000 steps at 270 kelvin.
TCL: Setting parameter langevinTemp to 270
TCL: Running for 100000 steps
ETITLE: TS BOND ANGLE DIHED IMPRP ELECT VDW BOUNDARY MISC KINETIC TOTAL TEMP POTENTIAL TOTAL3 TEMPAVG PRESSURE GPRESSURE VOLUME PRESSAVG GPRESSAVG
ENERGY: 800000 1.4448 6.0923 3.2961 0.0000 -11641.3146 1583.6125 0.0000 0.0000 1436.5423 -8610.3266 245.0927 -10046.8689 -8608.2054 245.0927 -1009.7415 -936.5219 29221.8986 -1009.7415 -936.5219
ENERGY: 900000 2.7531 4.1788 4.0242 0.0000 -11064.6360 1493.4155 0.0000 0.0000 1639.9103 -7920.3542 279.7899 -9560.2645 -7916.9428 269.3946 -572.6978 -469.1967 29991.2695 3.1033 2.8038
TCL: Running 1000000 steps at 300 kelvin.
TCL: Setting parameter langevinTemp to 300
TCL: Running for 1000000 steps
ETITLE: TS BOND ANGLE DIHED IMPRP ELECT VDW BOUNDARY MISC KINETIC TOTAL TEMP POTENTIAL TOTAL3 TEMPAVG PRESSURE GPRESSURE VOLUME PRESSAVG GPRESSAVG
ENERGY: 900000 2.7531 4.1788 4.0242 0.0000 -11064.6360 1493.4155 0.0000 0.0000 1639.1416 -7921.1229 279.6588 -9560.2645 -7918.5652 279.6588 -558.8977 -470.4674 29991.2695 -558.8977 -470.4674
ENERGY: 1100000 4.6417 4.1638 4.6963 0.0000 -10777.4318 1477.5774 0.0000 0.0000 1754.0384 -7532.3141 299.2617 -9286.3525 -7527.9447 300.4715 -184.7892 -28.1994 30627.6021 4.1053 4.0553
ENERGY: 1300000 4.3038 11.1084 5.8340 0.0000 -10639.5421 1394.3193 0.0000 0.0000 1761.4363 -7462.5404 300.5238 -9223.9767 -7459.0381 299.2113 -474.7536 -394.4160 30534.7112 4.0143 3.9683
ENERGY: 1500000 5.5847 4.8795 3.7275 0.0000 -10665.6346 1442.4088 0.0000 0.0000 1792.5650 -7416.4691 305.8348 -9209.0341 -7414.1067 300.0452 546.5000 584.0160 30066.6903 4.2686 4.3957
ENERGY: 1700000 4.2674 4.7442 2.6632 0.0000 -10918.1616 1610.1842 0.0000 0.0000 1696.7530 -7599.5496 289.4880 -9296.3026 -7596.8767 300.5660 1092.2046 1245.3081 30078.0419 3.2995 3.3744
ENERGY: 1900000 3.6785 9.0432 5.1651 0.0000 -10655.1344 1455.8272 0.0000 0.0000 1743.3533 -7438.0671 297.4387 -9181.4204 -7434.7944 300.2305 -49.9028 114.0938 30486.8328 3.0604 3.0552
TCL: Exiting due to exit command.
