Info: SIMULATION PARAMETERS:
Info: TIMESTEP               2
Info: NUMBER OF STEPS        0
Info: STEPS PER CYCLE        10
Info: PERIODIC CELL BASIS 1  36.005 0 0
Info: PERIODIC CELL BASIS 2  0 34.696 0
Info: PERIODIC CELL BASIS 3  0 0 35.644
Info: PERIODIC CELL CENTER   0 0 0
Info: WRAPPING WATERS AROUND PERIODIC BOUNDARIES ON OUTPUT.
Info: WRAPPING ALL CLUSTERS AROUND PERIODIC BOUNDARIES ON OUTPUT.
Info: FIRST LDB TIMESTEP     50
Info: LAST LDB TIMESTEP     -1
Info: HOM BACKGROUND SCALING 1
Info: PME BACKGROUND SCALING 1
Info: MIN ATOMS PER PATCH    40
Info: EMPTY PATCH LOAD       40 ATOMS
Info: INITIAL TEMPERATURE    300
Info: CENTER OF MASS MOVING INITIALLY? NO
Info: DIELECTRIC             1
Info: EXCLUDE                SCALED ONE-FOUR
Info: 1-4 ELECTROSTATICS SCALED BY 0.833333
Info: MODIFIED 1-4 VDW PARAMETERS WILL BE USED
Info: DCD FILENAME           mobley_1636752_equil.dcd
Info: DCD FREQUENCY          100000
Info: DCD FIRST STEP         100000
Info: DCD FILE WILL CONTAIN UNIT CELL DATA
Info: XST FILENAME           mobley_1636752_equil.xst
Info: XST FREQUENCY          100000
Info: NO VELOCITY DCD OUTPUT
Info: NO FORCE DCD OUTPUT
Info: OUTPUT FILENAME        mobley_1636752_equil
Info: BINARY OUTPUT FILES WILL BE USED
Info: RESTART FILENAME       mobley_1636752_equil.restart
Info: RESTART FREQUENCY      100000
Info: BINARY RESTART FILES WILL BE USED
Info: CUTOFF                 9
Info: PAIRLIST DISTANCE      11
Info: PAIRLIST SHRINK RATE   0.01
Info: PAIRLIST GROW RATE     0.01
Info: PAIRLIST TRIGGER       0.3
Info: PAIRLISTS PER CYCLE    2
Info: PAIRLISTS ENABLED
Info: MARGIN                 8
Info: HYDROGEN GROUP CUTOFF  2.5
Info: PATCH DIMENSION        21.5
Info: ENERGY OUTPUT STEPS    100000
Info: ENERGY EVALUATION STEPS    100000
Info: OUTPUT ENERGY PRECISION 4
Info: CROSSTERM ENERGY INCLUDED IN DIHEDRAL
Info: TIMING OUTPUT STEPS    1000000
Info: PRESSURE OUTPUT STEPS  100000
Info: FIXED ATOMS ACTIVE
Info: LANGEVIN DYNAMICS ACTIVE
Info: LANGEVIN TEMPERATURE   30
Info: LANGEVIN USING BBK INTEGRATOR
Info: LANGEVIN DAMPING COEFFICIENT IS 1 INVERSE PS
Info: LANGEVIN DYNAMICS APPLIED TO HYDROGENS
Info: LANGEVIN PISTON PRESSURE CONTROL ACTIVE
Info:        TARGET PRESSURE IS 1.01325 BAR
Info:     OSCILLATION PERIOD IS 50 FS
Info:             DECAY TIME IS 25 FS
Info:     PISTON TEMPERATURE IS 300 K
Info:       PRESSURE CONTROL IS GROUP-BASED
Info:    INITIAL STRAIN RATE IS 0 0 0
Info:       CELL FLUCTUATION IS ISOTROPIC
Info: PARTICLE MESH EWALD (PME) ACTIVE
Info: PME TOLERANCE               1e-06
Info: PME EWALD COEFFICIENT       0.348832
Info: PME INTERPOLATION ORDER     4
Info: PME GRID DIMENSIONS         40 36 36
Info: PME MAXIMUM GRID SPACING    1
Info: FULL ELECTROSTATIC EVALUATION FREQUENCY      2
Info: USING VERLET I (r-RESPA) MTS SCHEME.
Info: C1 SPLITTING OF LONG RANGE ELECTROSTATICS
Info: PLACING ATOMS IN PATCHES BY HYDROGEN GROUPS
Info: RIGID BONDS TO HYDROGEN : ALL
Info:         ERROR TOLERANCE : 1e-08
Info:          MAX ITERATIONS : 100
Info: RIGID WATER USING SETTLE ALGORITHM
Info: RANDOM NUMBER SEED     1743671063
Info: USE HYDROGEN BONDS?    NO
Info: Using AMBER format force field!
Info: AMBER PARM FILE        mobley_1636752.prmtop
Info: COORDINATE PDB         mobley_1636752.pdb
Info: Exclusions will be read from PARM file!
Info: SCNB (VDW SCALING)     2
Info: USING ARITHMETIC MEAN TO COMBINE L-J SIGMA PARAMETERS
Info: BINARY COORDINATES     mobley_1636752_min.coor
Info: SUMMARY OF PARAMETERS:
Info: 5 BONDS
Info: 3 ANGLES
Info:   3 HARMONIC
Info:   0 COSINE-BASED
Info: 1 DIHEDRAL
Info: 0 IMPROPER
Info: 0 CROSSTERM
Info: 0 VDW
Info: 15 VDW_PAIRS
Info: 0 NBTHOLE_PAIRS
Info: STRUCTURE SUMMARY:
Info: 2967 ATOMS
Info: 2966 BONDS
Info: 7 ANGLES
Info: 3 DIHEDRALS
Info: 0 IMPROPERS
Info: 0 CROSSTERMS
Info: 2976 EXCLUSIONS
Info: 6 FIXED ATOMS
Info: 2965 RIGID BONDS
Info: 4 RIGID BONDS BETWEEN FIXED ATOMS
Info: 5922 DEGREES OF FREEDOM
Info: 989 HYDROGEN GROUPS
Info: 4 ATOMS IN LARGEST HYDROGEN GROUP
Info: 989 MIGRATION GROUPS
Info: 4 ATOMS IN LARGEST MIGRATION GROUP
Info: 2 HYDROGEN GROUPS WITH ALL ATOMS FIXED
Info: TOTAL MASS = 17813.8 amu
Info: TOTAL CHARGE = 9.99756e-05 e
Info: MASS DENSITY = 0.664336 g/cm^3
Info: ATOM DENSITY = 0.0666329 atoms/A^3
Info: ADDED 0 IMPLICIT EXCLUSIONS
Info: NONBONDED TABLE R-SQUARED SPACING: 0.0625
Info: NONBONDED TABLE SIZE: 705 POINTS
Info: REMOVING COM VELOCITY -0.055619 -0.0335477 -0.141948
TCL: Running for 100000 steps
ETITLE: TS BOND ANGLE DIHED IMPRP ELECT VDW BOUNDARY MISC KINETIC TOTAL TEMP POTENTIAL TOTAL3 TEMPAVG PRESSURE GPRESSURE VOLUME PRESSAVG GPRESSAVG
ENERGY: 0 0.0000 0.0000 0.0000 0.0000 -13780.8661 2415.6159 0.0000 0.0000 1745.9431 -9619.3071 296.7236 -11365.2502 -9618.9728 296.7236 393.7343 436.0421 44527.5356 393.7343 436.0421
ENERGY: 100000 0.0000 0.0000 0.0000 0.0000 -14319.9136 2447.0560 0.0000 0.0000 179.8357 -11693.0219 30.5631 -11872.8576 -11692.7092 30.8469 -323.8979 -275.9348 29004.1935 4.1953 4.1990
TCL: Running 100000 steps at 60 kelvin.
TCL: Setting parameter langevinTemp to 60
TCL: Running for 100000 steps
ETITLE: TS BOND ANGLE DIHED IMPRP ELECT VDW BOUNDARY MISC KINETIC TOTAL TEMP POTENTIAL TOTAL3 TEMPAVG PRESSURE GPRESSURE VOLUME PRESSAVG GPRESSAVG
ENERGY: 100000 0.0000 0.0000 0.0000 0.0000 -14319.9136 2447.0560 0.0000 0.0000 179.7458 -11693.1117 30.5479 -11872.8576 -11692.7198 30.5479 -332.2518 -275.8998 29004.1935 -332.2518 -275.8998
ENERGY: 200000 0.0000 0.0000 0.0000 0.0000 -14151.7267 2339.2775 0.0000 0.0000 342.2820 -11470.1672 58.1709 -11812.4492 -11469.1189 59.9663 -1216.7174 -1145.6498 29235.9982 4.1189 4.1704
TCL: Running 100000 steps at 90 kelvin.
TCL: Setting parameter langevinTemp to 90
TCL: Running for 100000 steps
ETITLE: TS BOND ANGLE DIHED IMPRP ELECT VDW BOUNDARY MISC KINETIC TOTAL TEMP POTENTIAL TOTAL3 TEMPAVG PRESSURE GPRESSURE VOLUME PRESSAVG GPRESSAVG
ENERGY: 200000 0.0000 0.0000 0.0000 0.0000 -14151.7267 2339.2775 0.0000 0.0000 342.1053 -11470.3439 58.1409 -11812.4492 -11469.5587 58.1409 -1187.2686 -1145.4346 29235.9982 -1187.2686 -1145.4346
ENERGY: 300000 0.0000 0.0000 0.0000 0.0000 -14042.9657 2386.8149 0.0000 0.0000 538.3857 -11117.7651 91.4988 -11656.1508 -11117.0294 89.9607 -256.8845 -206.8037 29237.8828 4.7823 4.8760
TCL: Running 100000 steps at 120 kelvin.
TCL: Setting parameter langevinTemp to 120
TCL: Running for 100000 steps
ETITLE: TS BOND ANGLE DIHED IMPRP ELECT VDW BOUNDARY MISC KINETIC TOTAL TEMP POTENTIAL TOTAL3 TEMPAVG PRESSURE GPRESSURE VOLUME PRESSAVG GPRESSAVG
ENERGY: 300000 0.0000 0.0000 0.0000 0.0000 -14042.9657 2386.8149 0.0000 0.0000 538.1178 -11118.0330 91.4533 -11656.1508 -11116.9817 91.4533 -252.4465 -207.5998 29237.8828 -252.4465 -207.5998
ENERGY: 400000 0.0000 0.0000 0.0000 0.0000 -13940.2839 2340.6733 0.0000 0.0000 706.8037 -10892.8068 120.1215 -11599.6105 -10890.6888 120.0250 -358.3312 -290.2918 29313.3942 2.7408 2.7474
TCL: Running 100000 steps at 150 kelvin.
TCL: Setting parameter langevinTemp to 150
TCL: Running for 100000 steps
ETITLE: TS BOND ANGLE DIHED IMPRP ELECT VDW BOUNDARY MISC KINETIC TOTAL TEMP POTENTIAL TOTAL3 TEMPAVG PRESSURE GPRESSURE VOLUME PRESSAVG GPRESSAVG
ENERGY: 400000 0.0000 0.0000 0.0000 0.0000 -13940.2839 2340.6733 0.0000 0.0000 706.4635 -10893.1470 120.0637 -11599.6105 -10891.4090 120.0637 -345.3811 -291.0865 29313.3942 -345.3811 -291.0865
ENERGY: 500000 0.0000 0.0000 0.0000 0.0000 -13870.4773 2429.5697 0.0000 0.0000 894.9211 -10545.9864 152.0921 -11440.9075 -10543.8361 150.3241 1302.7438 1370.1951 28470.5489 3.0053 3.0865
TCL: Running 100000 steps at 180 kelvin.
TCL: Setting parameter langevinTemp to 180
TCL: Running for 100000 steps
ETITLE: TS BOND ANGLE DIHED IMPRP ELECT VDW BOUNDARY MISC KINETIC TOTAL TEMP POTENTIAL TOTAL3 TEMPAVG PRESSURE GPRESSURE VOLUME PRESSAVG GPRESSAVG
ENERGY: 500000 0.0000 0.0000 0.0000 0.0000 -13870.4773 2429.5697 0.0000 0.0000 894.4940 -10546.4136 152.0195 -11440.9075 -10544.9382 152.0195 1315.8555 1370.9232 28470.5489 1315.8555 1370.9232
ENERGY: 600000 0.0000 0.0000 0.0000 0.0000 -13194.5170 2050.8994 0.0000 0.0000 1051.7128 -10091.9048 178.7389 -11143.6176 -10088.3141 179.5869 -858.3301 -853.1379 29199.5428 3.5870 3.4452
TCL: Running 100000 steps at 210 kelvin.
TCL: Setting parameter langevinTemp to 210
TCL: Running for 100000 steps
ETITLE: TS BOND ANGLE DIHED IMPRP ELECT VDW BOUNDARY MISC KINETIC TOTAL TEMP POTENTIAL TOTAL3 TEMPAVG PRESSURE GPRESSURE VOLUME PRESSAVG GPRESSAVG
ENERGY: 600000 0.0000 0.0000 0.0000 0.0000 -13194.5170 2050.8994 0.0000 0.0000 1051.1911 -10092.4265 178.6503 -11143.6176 -10089.8512 178.6503 -922.1592 -852.8940 29199.5428 -922.1592 -852.8940
ENERGY: 700000 0.0000 0.0000 0.0000 0.0000 -12437.5477 1831.9389 0.0000 0.0000 1243.6031 -9362.0057 211.3507 -10605.6088 -9357.8653 210.1032 -574.7388 -523.8859 29094.3968 3.1170 3.0085
TCL: Running 100000 steps at 240 kelvin.
TCL: Setting parameter langevinTemp to 240
TCL: Running for 100000 steps
ETITLE: TS BOND ANGLE DIHED IMPRP ELECT VDW BOUNDARY MISC KINETIC TOTAL TEMP POTENTIAL TOTAL3 TEMPAVG PRESSURE GPRESSURE VOLUME PRESSAVG GPRESSAVG
ENERGY: 700000 0.0000 0.0000 0.0000 0.0000 -12437.5477 1831.9389 0.0000 0.0000 1242.9809 -9362.6278 211.2450 -10605.6088 -9360.7806 211.2450 -609.8247 -522.6634 29094.3968 -609.8247 -522.6634
ENERGY: 800000 0.0000 0.0000 0.0000 0.0000 -11994.0265 1819.4143 0.0000 0.0000 1397.8664 -8776.7458 237.5678 -10174.6122 -8772.8306 239.6848 745.4591 821.0381 29130.4818 2.8374 2.9121
TCL: Running 100000 steps at 270 kelvin.
TCL: Setting parameter langevinTemp to 270
TCL: Running for 100000 steps
ETITLE: TS BOND ANGLE DIHED IMPRP ELECT VDW BOUNDARY MISC KINETIC TOTAL TEMP POTENTIAL TOTAL3 TEMPAVG PRESSURE GPRESSURE VOLUME PRESSAVG GPRESSAVG
ENERGY: 800000 0.0000 0.0000 0.0000 0.0000 -11994.0265 1819.4143 0.0000 0.0000 1397.1454 -8777.4668 237.4453 -10174.6122 -8776.0367 237.4453 751.5947 822.2891 29130.4818 751.5947 822.2891
ENERGY: 900000 0.0000 0.0000 0.0000 0.0000 -11480.9897 1669.4622 0.0000 0.0000 1556.4149 -8255.1126 264.5132 -9811.5275 -8253.8459 270.2166 720.5594 755.7123 29478.6507 4.2319 4.2788
TCL: Running 1000000 steps at 300 kelvin.
TCL: Setting parameter langevinTemp to 300
TCL: Running for 1000000 steps
ETITLE: TS BOND ANGLE DIHED IMPRP ELECT VDW BOUNDARY MISC KINETIC TOTAL TEMP POTENTIAL TOTAL3 TEMPAVG PRESSURE GPRESSURE VOLUME PRESSAVG GPRESSAVG
ENERGY: 900000 0.0000 0.0000 0.0000 0.0000 -11480.9897 1669.4622 0.0000 0.0000 1555.6371 -8255.8904 264.3810 -9811.5275 -8254.5471 264.3810 673.6723 756.0195 29478.6507 673.6723 756.0195
ENERGY: 1100000 0.0000 0.0000 0.0000 0.0000 -10762.9887 1405.9724 0.0000 0.0000 1733.5525 -7623.4638 294.6178 -9357.0163 -7621.7313 300.4249 -597.3994 -513.5989 31099.8920 1.8267 1.9523
ENERGY: 1300000 0.0000 0.0000 0.0000 0.0000 -10910.8082 1483.8651 0.0000 0.0000 1819.9462 -7606.9969 309.3004 -9426.9432 -7604.4555 300.4641 438.8326 550.1953 29679.4940 3.8306 3.8077
ENERGY: 1500000 0.0000 0.0000 0.0000 0.0000 -10885.0708 1465.3448 0.0000 0.0000 1779.0915 -7640.6345 302.3572 -9419.7260 -7637.0632 300.4979 -82.3143 32.6714 30696.3698 4.2266 4.0616
ENERGY: 1700000 0.0000 0.0000 0.0000 0.0000 -10829.9247 1507.9705 0.0000 0.0000 1771.5817 -7550.3725 301.0809 -9321.9542 -7547.0023 300.1932 607.1689 645.7146 30564.5969 3.9563 3.8863
ENERGY: 1900000 0.0000 0.0000 0.0000 0.0000 -10928.8847 1493.7254 0.0000 0.0000 1814.3980 -7620.7612 308.3575 -9435.1592 -7617.5058 300.4834 77.1592 197.9192 30641.3426 3.5499 3.5202
TCL: Exiting due to exit command.
