Info: SIMULATION PARAMETERS:
Info: TIMESTEP               2
Info: NUMBER OF STEPS        0
Info: STEPS PER CYCLE        10
Info: PERIODIC CELL BASIS 1  34.986 0 0
Info: PERIODIC CELL BASIS 2  0 35.411 0
Info: PERIODIC CELL BASIS 3  0 0 35.566
Info: PERIODIC CELL CENTER   0 0 0
Info: WRAPPING WATERS AROUND PERIODIC BOUNDARIES ON OUTPUT.
Info: WRAPPING ALL CLUSTERS AROUND PERIODIC BOUNDARIES ON OUTPUT.
Info: FIRST LDB TIMESTEP     50
Info: LAST LDB TIMESTEP     -1
Info: HOM BACKGROUND SCALING 1
Info: PME BACKGROUND SCALING 1
Info: MIN ATOMS PER PATCH    40
Info: EMPTY PATCH LOAD       40 ATOMS
Info: INITIAL TEMPERATURE    300
Info: CENTER OF MASS MOVING INITIALLY? NO
Info: DIELECTRIC             1
Info: EXCLUDE                SCALED ONE-FOUR
Info: 1-4 ELECTROSTATICS SCALED BY 0.833333
Info: MODIFIED 1-4 VDW PARAMETERS WILL BE USED
Info: DCD FILENAME           mobley_676247_equil.dcd
Info: DCD FREQUENCY          100000
Info: DCD FIRST STEP         100000
Info: DCD FILE WILL CONTAIN UNIT CELL DATA
Info: XST FILENAME           mobley_676247_equil.xst
Info: XST FREQUENCY          100000
Info: NO VELOCITY DCD OUTPUT
Info: NO FORCE DCD OUTPUT
Info: OUTPUT FILENAME        mobley_676247_equil
Info: BINARY OUTPUT FILES WILL BE USED
Info: RESTART FILENAME       mobley_676247_equil.restart
Info: RESTART FREQUENCY      100000
Info: BINARY RESTART FILES WILL BE USED
Info: CUTOFF                 9
Info: PAIRLIST DISTANCE      11
Info: PAIRLIST SHRINK RATE   0.01
Info: PAIRLIST GROW RATE     0.01
Info: PAIRLIST TRIGGER       0.3
Info: PAIRLISTS PER CYCLE    2
Info: PAIRLISTS ENABLED
Info: MARGIN                 8
Info: HYDROGEN GROUP CUTOFF  2.5
Info: PATCH DIMENSION        21.5
Info: ENERGY OUTPUT STEPS    100000
Info: ENERGY EVALUATION STEPS    100000
Info: OUTPUT ENERGY PRECISION 4
Info: CROSSTERM ENERGY INCLUDED IN DIHEDRAL
Info: TIMING OUTPUT STEPS    1000000
Info: PRESSURE OUTPUT STEPS  100000
Info: LANGEVIN DYNAMICS ACTIVE
Info: LANGEVIN TEMPERATURE   30
Info: LANGEVIN USING BBK INTEGRATOR
Info: LANGEVIN DAMPING COEFFICIENT IS 1 INVERSE PS
Info: LANGEVIN DYNAMICS APPLIED TO HYDROGENS
Info: LANGEVIN PISTON PRESSURE CONTROL ACTIVE
Info:        TARGET PRESSURE IS 1.01325 BAR
Info:     OSCILLATION PERIOD IS 50 FS
Info:             DECAY TIME IS 25 FS
Info:     PISTON TEMPERATURE IS 300 K
Info:       PRESSURE CONTROL IS GROUP-BASED
Info:    INITIAL STRAIN RATE IS 0 0 0
Info:       CELL FLUCTUATION IS ISOTROPIC
Info: PARTICLE MESH EWALD (PME) ACTIVE
Info: PME TOLERANCE               1e-06
Info: PME EWALD COEFFICIENT       0.348832
Info: PME INTERPOLATION ORDER     4
Info: PME GRID DIMENSIONS         36 36 36
Info: PME MAXIMUM GRID SPACING    1
Info: FULL ELECTROSTATIC EVALUATION FREQUENCY      2
Info: USING VERLET I (r-RESPA) MTS SCHEME.
Info: C1 SPLITTING OF LONG RANGE ELECTROSTATICS
Info: PLACING ATOMS IN PATCHES BY HYDROGEN GROUPS
Info: RIGID BONDS TO HYDROGEN : ALL
Info:         ERROR TOLERANCE : 1e-08
Info:          MAX ITERATIONS : 100
Info: RIGID WATER USING SETTLE ALGORITHM
Info: RANDOM NUMBER SEED     1743152967
Info: USE HYDROGEN BONDS?    NO
Info: Using AMBER format force field!
Info: AMBER PARM FILE        mobley_676247.prmtop
Info: COORDINATE PDB         mobley_676247.pdb
Info: Exclusions will be read from PARM file!
Info: SCNB (VDW SCALING)     2
Info: USING ARITHMETIC MEAN TO COMBINE L-J SIGMA PARAMETERS
Info: BINARY COORDINATES     mobley_676247_min.coor
Info: SUMMARY OF PARAMETERS:
Info: 3 BONDS
Info: 1 ANGLES
Info:   1 HARMONIC
Info:   0 COSINE-BASED
Info: 0 DIHEDRAL
Info: 0 IMPROPER
Info: 0 CROSSTERM
Info: 0 VDW
Info: 10 VDW_PAIRS
Info: 0 NBTHOLE_PAIRS
Info: STRUCTURE SUMMARY:
Info: 2933 ATOMS
Info: 2932 BONDS
Info: 6 ANGLES
Info: 0 DIHEDRALS
Info: 0 IMPROPERS
Info: 0 CROSSTERMS
Info: 2938 EXCLUSIONS
Info: 2928 RIGID BONDS
Info: 5871 DEGREES OF FREEDOM
Info: 981 HYDROGEN GROUPS
Info: 3 ATOMS IN LARGEST HYDROGEN GROUP
Info: 981 MIGRATION GROUPS
Info: 3 ATOMS IN LARGEST MIGRATION GROUP
Info: TOTAL MASS = 17671.6 amu
Info: TOTAL CHARGE = 0.000200033 e
Info: MASS DENSITY = 0.665991 g/cm^3
Info: ATOM DENSITY = 0.0665648 atoms/A^3
Info: ADDED 0 IMPLICIT EXCLUSIONS
Info: NONBONDED TABLE R-SQUARED SPACING: 0.0625
Info: NONBONDED TABLE SIZE: 705 POINTS
Info: REMOVING COM VELOCITY -0.172758 0.113203 0.0101275
TCL: Running for 100000 steps
ETITLE: TS BOND ANGLE DIHED IMPRP ELECT VDW BOUNDARY MISC KINETIC TOTAL TEMP POTENTIAL TOTAL3 TEMPAVG PRESSURE GPRESSURE VOLUME PRESSAVG GPRESSAVG
ENERGY: 0 0.0047 0.5816 0.0000 0.0000 -13639.0530 2422.5180 0.0000 0.0000 1741.1312 -9474.8175 298.4763 -11215.9487 -9474.4960 298.4763 650.6347 682.9545 44062.3349 650.6347 682.9545
ENERGY: 100000 0.1039 0.8222 0.0000 0.0000 -14285.3038 2542.4664 0.0000 0.0000 176.9758 -11564.9355 30.3384 -11741.9113 -11564.2625 30.8968 711.9214 785.3842 28132.7855 4.2315 4.2467
TCL: Running 100000 steps at 60 kelvin.
TCL: Setting parameter langevinTemp to 60
TCL: Running for 100000 steps
ETITLE: TS BOND ANGLE DIHED IMPRP ELECT VDW BOUNDARY MISC KINETIC TOTAL TEMP POTENTIAL TOTAL3 TEMPAVG PRESSURE GPRESSURE VOLUME PRESSAVG GPRESSAVG
ENERGY: 100000 0.1039 0.8222 0.0000 0.0000 -14285.3038 2542.4664 0.0000 0.0000 176.8888 -11565.0225 30.3235 -11741.9113 -11564.6808 30.3235 706.2525 785.5355 28132.7855 706.2525 785.5355
ENERGY: 200000 0.2002 0.7429 0.0000 0.0000 -14067.7481 2427.1055 0.0000 0.0000 338.6372 -11301.0624 58.0514 -11639.6995 -11299.9191 59.9240 122.2825 189.5711 28311.8389 1.8261 1.8526
TCL: Running 100000 steps at 90 kelvin.
TCL: Setting parameter langevinTemp to 90
TCL: Running for 100000 steps
ETITLE: TS BOND ANGLE DIHED IMPRP ELECT VDW BOUNDARY MISC KINETIC TOTAL TEMP POTENTIAL TOTAL3 TEMPAVG PRESSURE GPRESSURE VOLUME PRESSAVG GPRESSAVG
ENERGY: 200000 0.2002 0.7429 0.0000 0.0000 -14067.7481 2427.1055 0.0000 0.0000 338.4526 -11301.2470 58.0198 -11639.6995 -11300.6453 58.0198 124.9298 189.9789 28311.8389 124.9298 189.9789
ENERGY: 300000 0.2098 1.2653 0.0000 0.0000 -13856.1549 2342.6329 0.0000 0.0000 532.5187 -10979.5282 91.2879 -11512.0469 -10977.8660 90.0080 -373.3935 -277.7249 28701.6022 4.3857 4.3794
TCL: Running 100000 steps at 120 kelvin.
TCL: Setting parameter langevinTemp to 120
TCL: Running for 100000 steps
ETITLE: TS BOND ANGLE DIHED IMPRP ELECT VDW BOUNDARY MISC KINETIC TOTAL TEMP POTENTIAL TOTAL3 TEMPAVG PRESSURE GPRESSURE VOLUME PRESSAVG GPRESSAVG
ENERGY: 300000 0.2098 1.2653 0.0000 0.0000 -13856.1549 2342.6329 0.0000 0.0000 532.2504 -10979.7966 91.2419 -11512.0469 -10978.7257 91.2419 -332.7518 -277.5738 28701.6022 -332.7518 -277.5738
ENERGY: 400000 0.8202 0.9269 0.0000 0.0000 -13826.0962 2435.6619 0.0000 0.0000 693.4228 -10695.2643 118.8711 -11388.6872 -10693.4949 120.1710 1039.4094 1119.8972 28218.7574 5.2750 5.3531
TCL: Running 100000 steps at 150 kelvin.
TCL: Setting parameter langevinTemp to 150
TCL: Running for 100000 steps
ETITLE: TS BOND ANGLE DIHED IMPRP ELECT VDW BOUNDARY MISC KINETIC TOTAL TEMP POTENTIAL TOTAL3 TEMPAVG PRESSURE GPRESSURE VOLUME PRESSAVG GPRESSAVG
ENERGY: 400000 0.8202 0.9269 0.0000 0.0000 -13826.0962 2435.6619 0.0000 0.0000 693.0682 -10695.6190 118.8104 -11388.6872 -10694.4453 118.8104 1056.5679 1120.2088 28218.7574 1056.5679 1120.2088
ENERGY: 500000 1.0262 0.6909 0.0000 0.0000 -13468.1637 2254.0175 0.0000 0.0000 871.1135 -10341.3157 149.3321 -11212.4291 -10339.6230 149.9147 81.6377 149.0717 28848.8311 3.9456 3.9975
TCL: Running 100000 steps at 180 kelvin.
TCL: Setting parameter langevinTemp to 180
TCL: Running for 100000 steps
ETITLE: TS BOND ANGLE DIHED IMPRP ELECT VDW BOUNDARY MISC KINETIC TOTAL TEMP POTENTIAL TOTAL3 TEMPAVG PRESSURE GPRESSURE VOLUME PRESSAVG GPRESSAVG
ENERGY: 500000 1.0262 0.6909 0.0000 0.0000 -13468.1637 2254.0175 0.0000 0.0000 870.6773 -10341.7518 149.2573 -11212.4291 -10340.2595 149.2573 97.9163 149.2444 28848.8311 97.9163 149.2444
ENERGY: 600000 0.2948 2.9548 0.0000 0.0000 -13112.9822 2135.5708 0.0000 0.0000 1073.5052 -9900.6567 184.0274 -10974.1619 -9898.7056 179.7594 39.0893 90.7430 28876.6132 3.0445 3.1101
TCL: Running 100000 steps at 210 kelvin.
TCL: Setting parameter langevinTemp to 210
TCL: Running for 100000 steps
ETITLE: TS BOND ANGLE DIHED IMPRP ELECT VDW BOUNDARY MISC KINETIC TOTAL TEMP POTENTIAL TOTAL3 TEMPAVG PRESSURE GPRESSURE VOLUME PRESSAVG GPRESSAVG
ENERGY: 600000 0.2948 2.9548 0.0000 0.0000 -13112.9822 2135.5708 0.0000 0.0000 1072.9779 -9901.1840 183.9370 -10974.1619 -9899.1180 183.9370 14.8824 90.1199 28876.6132 14.8824 90.1199
ENERGY: 700000 0.8147 0.7448 0.0000 0.0000 -12421.1449 1933.0197 0.0000 0.0000 1242.3335 -9244.2322 212.9691 -10486.5657 -9241.7088 209.9188 14.0480 122.7237 28920.3882 3.9812 4.0954
TCL: Running 100000 steps at 240 kelvin.
TCL: Setting parameter langevinTemp to 240
TCL: Running for 100000 steps
ETITLE: TS BOND ANGLE DIHED IMPRP ELECT VDW BOUNDARY MISC KINETIC TOTAL TEMP POTENTIAL TOTAL3 TEMPAVG PRESSURE GPRESSURE VOLUME PRESSAVG GPRESSAVG
ENERGY: 700000 0.8147 0.7448 0.0000 0.0000 -12421.1449 1933.0197 0.0000 0.0000 1241.7012 -9244.8645 212.8607 -10486.5657 -9242.6472 212.8607 45.9289 120.5735 28920.3882 45.9289 120.5735
ENERGY: 800000 1.1956 1.0346 0.0000 0.0000 -11777.9644 1751.4455 0.0000 0.0000 1386.9673 -8637.3215 237.7631 -10024.2887 -8636.0741 240.1774 446.5577 538.4832 28712.4389 2.7285 2.6142
TCL: Running 100000 steps at 270 kelvin.
TCL: Setting parameter langevinTemp to 270
TCL: Running for 100000 steps
ETITLE: TS BOND ANGLE DIHED IMPRP ELECT VDW BOUNDARY MISC KINETIC TOTAL TEMP POTENTIAL TOTAL3 TEMPAVG PRESSURE GPRESSURE VOLUME PRESSAVG GPRESSAVG
ENERGY: 800000 1.1956 1.0346 0.0000 0.0000 -11777.9644 1751.4455 0.0000 0.0000 1386.2625 -8638.0263 237.6423 -10024.2887 -8635.8239 237.6423 453.5984 538.4028 28712.4389 453.5984 538.4028
ENERGY: 900000 0.9062 1.2018 0.0000 0.0000 -11166.0008 1559.1352 0.0000 0.0000 1532.6784 -8072.0793 262.7419 -9604.7577 -8067.4804 270.2000 -35.1444 83.7867 29430.2098 2.4201 2.3826
TCL: Running 1000000 steps at 300 kelvin.
TCL: Setting parameter langevinTemp to 300
TCL: Running for 1000000 steps
ETITLE: TS BOND ANGLE DIHED IMPRP ELECT VDW BOUNDARY MISC KINETIC TOTAL TEMP POTENTIAL TOTAL3 TEMPAVG PRESSURE GPRESSURE VOLUME PRESSAVG GPRESSAVG
ENERGY: 900000 0.9062 1.2018 0.0000 0.0000 -11166.0008 1559.1352 0.0000 0.0000 1531.8574 -8072.9003 262.6012 -9604.7577 -8069.9836 262.6012 7.9672 83.0012 29430.2098 7.9672 83.0012
ENERGY: 1100000 3.6042 0.8893 0.0000 0.0000 -10632.1379 1413.1194 0.0000 0.0000 1809.9042 -7404.6208 310.2658 -9214.5250 -7402.0607 299.9434 -60.3402 23.3908 30313.5190 3.1924 3.1990
ENERGY: 1300000 1.6011 0.9177 0.0000 0.0000 -10651.0613 1372.8428 0.0000 0.0000 1736.5770 -7539.1228 297.6956 -9275.6997 -7534.7749 300.0717 -534.8870 -419.9569 30259.7045 3.2069 3.2382
ENERGY: 1500000 0.7689 1.2808 0.0000 0.0000 -10573.8660 1356.5157 0.0000 0.0000 1724.4728 -7490.8278 295.6206 -9215.3007 -7487.2122 300.3290 -684.3052 -657.4723 30623.2748 2.6567 2.7988
ENERGY: 1700000 1.0417 2.0496 0.0000 0.0000 -10599.8138 1359.9115 0.0000 0.0000 1764.4562 -7472.3549 302.4748 -9236.8111 -7468.4814 300.6716 -1023.5478 -868.4191 31044.7356 3.8914 3.7141
ENERGY: 1900000 0.3035 6.3461 0.0000 0.0000 -10643.2678 1397.7920 0.0000 0.0000 1754.8318 -7483.9943 300.8249 -9238.8262 -7482.7065 299.9708 -322.2852 -222.3383 30346.6769 4.8377 4.7901
TCL: Exiting due to exit command.
