Info: SIMULATION PARAMETERS:
Info: TIMESTEP               2
Info: NUMBER OF STEPS        0
Info: STEPS PER CYCLE        10
Info: PERIODIC CELL BASIS 1  35.01 0 0
Info: PERIODIC CELL BASIS 2  0 33.399 0
Info: PERIODIC CELL BASIS 3  0 0 37.451
Info: PERIODIC CELL CENTER   0 0 0
Info: WRAPPING WATERS AROUND PERIODIC BOUNDARIES ON OUTPUT.
Info: WRAPPING ALL CLUSTERS AROUND PERIODIC BOUNDARIES ON OUTPUT.
Info: FIRST LDB TIMESTEP     50
Info: LAST LDB TIMESTEP     -1
Info: HOM BACKGROUND SCALING 1
Info: PME BACKGROUND SCALING 1
Info: MIN ATOMS PER PATCH    40
Info: EMPTY PATCH LOAD       40 ATOMS
Info: INITIAL TEMPERATURE    300
Info: CENTER OF MASS MOVING INITIALLY? NO
Info: DIELECTRIC             1
Info: EXCLUDE                SCALED ONE-FOUR
Info: 1-4 ELECTROSTATICS SCALED BY 0.833333
Info: MODIFIED 1-4 VDW PARAMETERS WILL BE USED
Info: DCD FILENAME           mobley_3266352_equil.dcd
Info: DCD FREQUENCY          100000
Info: DCD FIRST STEP         100000
Info: DCD FILE WILL CONTAIN UNIT CELL DATA
Info: XST FILENAME           mobley_3266352_equil.xst
Info: XST FREQUENCY          100000
Info: NO VELOCITY DCD OUTPUT
Info: NO FORCE DCD OUTPUT
Info: OUTPUT FILENAME        mobley_3266352_equil
Info: BINARY OUTPUT FILES WILL BE USED
Info: RESTART FILENAME       mobley_3266352_equil.restart
Info: RESTART FREQUENCY      100000
Info: BINARY RESTART FILES WILL BE USED
Info: CUTOFF                 9
Info: PAIRLIST DISTANCE      11
Info: PAIRLIST SHRINK RATE   0.01
Info: PAIRLIST GROW RATE     0.01
Info: PAIRLIST TRIGGER       0.3
Info: PAIRLISTS PER CYCLE    2
Info: PAIRLISTS ENABLED
Info: MARGIN                 8
Info: HYDROGEN GROUP CUTOFF  2.5
Info: PATCH DIMENSION        21.5
Info: ENERGY OUTPUT STEPS    100000
Info: ENERGY EVALUATION STEPS    100000
Info: OUTPUT ENERGY PRECISION 4
Info: CROSSTERM ENERGY INCLUDED IN DIHEDRAL
Info: TIMING OUTPUT STEPS    1000000
Info: PRESSURE OUTPUT STEPS  100000
Info: LANGEVIN DYNAMICS ACTIVE
Info: LANGEVIN TEMPERATURE   30
Info: LANGEVIN USING BBK INTEGRATOR
Info: LANGEVIN DAMPING COEFFICIENT IS 1 INVERSE PS
Info: LANGEVIN DYNAMICS APPLIED TO HYDROGENS
Info: LANGEVIN PISTON PRESSURE CONTROL ACTIVE
Info:        TARGET PRESSURE IS 1.01325 BAR
Info:     OSCILLATION PERIOD IS 50 FS
Info:             DECAY TIME IS 25 FS
Info:     PISTON TEMPERATURE IS 300 K
Info:       PRESSURE CONTROL IS GROUP-BASED
Info:    INITIAL STRAIN RATE IS 0 0 0
Info:       CELL FLUCTUATION IS ISOTROPIC
Info: PARTICLE MESH EWALD (PME) ACTIVE
Info: PME TOLERANCE               1e-06
Info: PME EWALD COEFFICIENT       0.348832
Info: PME INTERPOLATION ORDER     4
Info: PME GRID DIMENSIONS         36 36 40
Info: PME MAXIMUM GRID SPACING    1
Info: FULL ELECTROSTATIC EVALUATION FREQUENCY      2
Info: USING VERLET I (r-RESPA) MTS SCHEME.
Info: C1 SPLITTING OF LONG RANGE ELECTROSTATICS
Info: PLACING ATOMS IN PATCHES BY HYDROGEN GROUPS
Info: RIGID BONDS TO HYDROGEN : ALL
Info:         ERROR TOLERANCE : 1e-08
Info:          MAX ITERATIONS : 100
Info: RIGID WATER USING SETTLE ALGORITHM
Info: RANDOM NUMBER SEED     1743245330
Info: USE HYDROGEN BONDS?    NO
Info: Using AMBER format force field!
Info: AMBER PARM FILE        mobley_3266352.prmtop
Info: COORDINATE PDB         mobley_3266352.pdb
Info: Exclusions will be read from PARM file!
Info: SCNB (VDW SCALING)     2
Info: USING ARITHMETIC MEAN TO COMBINE L-J SIGMA PARAMETERS
Info: BINARY COORDINATES     mobley_3266352_min.coor
Info: SUMMARY OF PARAMETERS:
Info: 9 BONDS
Info: 11 ANGLES
Info:   11 HARMONIC
Info:   0 COSINE-BASED
Info: 7 DIHEDRAL
Info: 0 IMPROPER
Info: 0 CROSSTERM
Info: 0 VDW
Info: 36 VDW_PAIRS
Info: 0 NBTHOLE_PAIRS
Info: STRUCTURE SUMMARY:
Info: 2981 ATOMS
Info: 2981 BONDS
Info: 39 ANGLES
Info: 62 DIHEDRALS
Info: 0 IMPROPERS
Info: 0 CROSSTERMS
Info: 3066 EXCLUSIONS
Info: 2968 RIGID BONDS
Info: 5975 DEGREES OF FREEDOM
Info: 999 HYDROGEN GROUPS
Info: 4 ATOMS IN LARGEST HYDROGEN GROUP
Info: 999 MIGRATION GROUPS
Info: 4 ATOMS IN LARGEST MIGRATION GROUP
Info: TOTAL MASS = 17953 amu
Info: TOTAL CHARGE = 0.00010002 e
Info: MASS DENSITY = 0.680779 g/cm^3
Info: ATOM DENSITY = 0.0680727 atoms/A^3
Info: ADDED 0 IMPLICIT EXCLUSIONS
Info: NONBONDED TABLE R-SQUARED SPACING: 0.0625
Info: NONBONDED TABLE SIZE: 705 POINTS
Info: REMOVING COM VELOCITY -0.103855 0.2062 -0.0960849
TCL: Running for 100000 steps
ETITLE: TS BOND ANGLE DIHED IMPRP ELECT VDW BOUNDARY MISC KINETIC TOTAL TEMP POTENTIAL TOTAL3 TEMPAVG PRESSURE GPRESSURE VOLUME PRESSAVG GPRESSAVG
ENERGY: 0 0.8408 1.8476 2.7170 0.0000 -13771.0361 2402.5983 0.0000 0.0000 1793.5470 -9569.4854 302.1101 -11363.0324 -9569.1369 302.1101 238.7760 273.5663 43791.4165 238.7760 273.5663
ENERGY: 100000 1.5022 2.5577 2.5394 0.0000 -14416.1474 2628.7865 0.0000 0.0000 178.8114 -11601.9502 30.1195 -11780.7616 -11601.5392 30.9093 1308.7076 1366.4428 28749.1102 2.5801 2.5976
TCL: Running 100000 steps at 60 kelvin.
TCL: Setting parameter langevinTemp to 60
TCL: Running for 100000 steps
ETITLE: TS BOND ANGLE DIHED IMPRP ELECT VDW BOUNDARY MISC KINETIC TOTAL TEMP POTENTIAL TOTAL3 TEMPAVG PRESSURE GPRESSURE VOLUME PRESSAVG GPRESSAVG
ENERGY: 100000 1.5022 2.5577 2.5394 0.0000 -14416.1474 2628.7865 0.0000 0.0000 178.7209 -11602.0407 30.1043 -11780.7616 -11601.7339 30.1043 1319.1956 1366.4025 28749.1102 1319.1956 1366.4025
ENERGY: 200000 3.0012 2.9252 1.6326 0.0000 -14064.8900 2345.3257 0.0000 0.0000 357.4092 -11354.5960 60.2030 -11712.0052 -11353.8284 59.8795 -911.6281 -855.5483 29292.2523 3.5169 3.4821
TCL: Running 100000 steps at 90 kelvin.
TCL: Setting parameter langevinTemp to 90
TCL: Running for 100000 steps
ETITLE: TS BOND ANGLE DIHED IMPRP ELECT VDW BOUNDARY MISC KINETIC TOTAL TEMP POTENTIAL TOTAL3 TEMPAVG PRESSURE GPRESSURE VOLUME PRESSAVG GPRESSAVG
ENERGY: 200000 3.0012 2.9252 1.6326 0.0000 -14064.8900 2345.3257 0.0000 0.0000 357.2341 -11354.7711 60.1735 -11712.0052 -11353.8666 60.1735 -904.7295 -855.9755 29292.2523 -904.7295 -855.9755
ENERGY: 300000 2.2666 4.6779 2.9442 0.0000 -14021.3128 2390.2478 0.0000 0.0000 524.1807 -11096.9955 88.2945 -11621.1762 -11096.1988 90.0917 -227.2462 -200.4096 29379.2336 4.0125 4.1732
TCL: Running 100000 steps at 120 kelvin.
TCL: Setting parameter langevinTemp to 120
TCL: Running for 100000 steps
ETITLE: TS BOND ANGLE DIHED IMPRP ELECT VDW BOUNDARY MISC KINETIC TOTAL TEMP POTENTIAL TOTAL3 TEMPAVG PRESSURE GPRESSURE VOLUME PRESSAVG GPRESSAVG
ENERGY: 300000 2.2666 4.6779 2.9442 0.0000 -14021.3128 2390.2478 0.0000 0.0000 523.9124 -11097.2638 88.2493 -11621.1762 -11096.0020 88.2493 -258.4541 -200.9604 29379.2336 -258.4541 -200.9604
ENERGY: 400000 2.1486 5.3481 3.4823 0.0000 -13930.3259 2411.8191 0.0000 0.0000 715.0541 -10792.4737 120.4457 -11507.5278 -10790.8479 120.1240 436.3483 488.9336 29118.7217 4.1894 4.1551
TCL: Running 100000 steps at 150 kelvin.
TCL: Setting parameter langevinTemp to 150
TCL: Running for 100000 steps
ETITLE: TS BOND ANGLE DIHED IMPRP ELECT VDW BOUNDARY MISC KINETIC TOTAL TEMP POTENTIAL TOTAL3 TEMPAVG PRESSURE GPRESSURE VOLUME PRESSAVG GPRESSAVG
ENERGY: 400000 2.1486 5.3481 3.4823 0.0000 -13930.3259 2411.8191 0.0000 0.0000 714.6978 -10792.8300 120.3857 -11507.5278 -10791.2378 120.3857 439.6300 488.3456 29118.7217 439.6300 488.3456
ENERGY: 500000 3.2470 10.6357 3.4517 0.0000 -13683.1234 2339.2750 0.0000 0.0000 892.4931 -10434.0207 150.3341 -11326.5138 -10431.6514 149.8999 219.3766 302.1612 29567.1078 4.3762 4.3483
TCL: Running 100000 steps at 180 kelvin.
TCL: Setting parameter langevinTemp to 180
TCL: Running for 100000 steps
ETITLE: TS BOND ANGLE DIHED IMPRP ELECT VDW BOUNDARY MISC KINETIC TOTAL TEMP POTENTIAL TOTAL3 TEMPAVG PRESSURE GPRESSURE VOLUME PRESSAVG GPRESSAVG
ENERGY: 500000 3.2470 10.6357 3.4517 0.0000 -13683.1234 2339.2750 0.0000 0.0000 892.0525 -10434.4613 150.2598 -11326.5138 -10432.6749 150.2598 239.5509 300.9614 29567.1078 239.5509 300.9614
ENERGY: 600000 5.6504 8.4432 2.3118 0.0000 -13037.5719 1991.5702 0.0000 0.0000 1084.8005 -9944.7957 182.7268 -11029.5962 -9942.3460 179.6633 -1268.1573 -1187.5534 29194.3792 4.3343 4.3207
TCL: Running 100000 steps at 210 kelvin.
TCL: Setting parameter langevinTemp to 210
TCL: Running for 100000 steps
ETITLE: TS BOND ANGLE DIHED IMPRP ELECT VDW BOUNDARY MISC KINETIC TOTAL TEMP POTENTIAL TOTAL3 TEMPAVG PRESSURE GPRESSURE VOLUME PRESSAVG GPRESSAVG
ENERGY: 600000 5.6504 8.4432 2.3118 0.0000 -13037.5719 1991.5702 0.0000 0.0000 1084.2829 -9945.3133 182.6397 -11029.5962 -9943.0008 182.6397 -1248.1933 -1188.4817 29194.3792 -1248.1933 -1188.4817
ENERGY: 700000 2.7213 7.3836 2.7762 0.0000 -12527.4100 1954.2378 0.0000 0.0000 1270.6526 -9289.6384 214.0323 -10560.2910 -9285.8029 210.1519 531.5631 601.3636 28842.0811 4.7981 4.8305
TCL: Running 100000 steps at 240 kelvin.
TCL: Setting parameter langevinTemp to 240
TCL: Running for 100000 steps
ETITLE: TS BOND ANGLE DIHED IMPRP ELECT VDW BOUNDARY MISC KINETIC TOTAL TEMP POTENTIAL TOTAL3 TEMPAVG PRESSURE GPRESSURE VOLUME PRESSAVG GPRESSAVG
ENERGY: 700000 2.7213 7.3836 2.7762 0.0000 -12527.4100 1954.2378 0.0000 0.0000 1270.0244 -9290.2666 213.9265 -10560.2910 -9288.8585 213.9265 529.0647 604.1216 28842.0811 529.0647 604.1216
ENERGY: 800000 6.0687 8.7635 4.4471 0.0000 -11787.6675 1645.0003 0.0000 0.0000 1425.4465 -8697.9414 240.1062 -10123.3879 -8694.5066 240.6392 -862.8931 -761.6847 29562.9149 4.1890 4.0737
TCL: Running 100000 steps at 270 kelvin.
TCL: Setting parameter langevinTemp to 270
TCL: Running for 100000 steps
ETITLE: TS BOND ANGLE DIHED IMPRP ELECT VDW BOUNDARY MISC KINETIC TOTAL TEMP POTENTIAL TOTAL3 TEMPAVG PRESSURE GPRESSURE VOLUME PRESSAVG GPRESSAVG
ENERGY: 800000 6.0687 8.7635 4.4471 0.0000 -11787.6675 1645.0003 0.0000 0.0000 1424.7546 -8698.6333 239.9897 -10123.3879 -8696.5226 239.9897 -856.1036 -761.2240 29562.9149 -856.1036 -761.2240
ENERGY: 900000 7.6771 5.5564 7.4706 0.0000 -11512.9709 1755.2318 0.0000 0.0000 1624.5183 -8112.5167 273.6384 -9737.0350 -8110.7321 270.2194 1697.6964 1814.5414 29295.3490 2.5598 2.5326
TCL: Running 1000000 steps at 300 kelvin.
TCL: Setting parameter langevinTemp to 300
TCL: Running for 1000000 steps
ETITLE: TS BOND ANGLE DIHED IMPRP ELECT VDW BOUNDARY MISC KINETIC TOTAL TEMP POTENTIAL TOTAL3 TEMPAVG PRESSURE GPRESSURE VOLUME PRESSAVG GPRESSAVG
ENERGY: 900000 7.6771 5.5564 7.4706 0.0000 -11512.9709 1755.2318 0.0000 0.0000 1623.7294 -8113.3057 273.5055 -9737.0350 -8110.9307 273.5055 1725.2354 1813.5337 29295.3490 1725.2354 1813.5337
ENERGY: 1100000 5.5153 10.8382 4.0251 0.0000 -10696.2965 1438.5528 0.0000 0.0000 1756.6483 -7480.7169 295.8948 -9237.3651 -7475.3033 300.6470 143.8521 224.6775 30636.6212 1.7279 1.8995
ENERGY: 1300000 4.1415 7.0911 12.8992 0.0000 -10730.0587 1446.8064 0.0000 0.0000 1827.7852 -7431.3353 307.8773 -9259.1205 -7427.1716 299.9575 -251.3278 -297.4598 31605.4576 3.8963 3.8233
ENERGY: 1500000 5.5657 12.1062 6.9621 0.0000 -10770.5376 1427.6818 0.0000 0.0000 1776.6344 -7541.5873 299.2613 -9318.2217 -7534.9372 300.5368 -240.6701 -186.6769 30638.4564 3.7310 3.8087
ENERGY: 1700000 4.0193 9.2770 7.4302 0.0000 -10678.9820 1397.7757 0.0000 0.0000 1799.8966 -7460.5832 303.1796 -9260.4798 -7455.7041 300.2781 -232.1723 -184.1248 30720.9535 3.9315 3.7818
ENERGY: 1900000 8.2311 9.8555 5.6686 0.0000 -10628.2553 1399.0664 0.0000 0.0000 1834.6993 -7370.7345 309.0419 -9205.4337 -7367.1419 300.4376 -513.1856 -410.9823 30925.0145 3.6777 3.4654
TCL: Exiting due to exit command.
