Info: SIMULATION PARAMETERS:
Info: TIMESTEP               2
Info: NUMBER OF STEPS        0
Info: STEPS PER CYCLE        10
Info: PERIODIC CELL BASIS 1  34.986 0 0
Info: PERIODIC CELL BASIS 2  0 33.404 0
Info: PERIODIC CELL BASIS 3  0 0 37.195
Info: PERIODIC CELL CENTER   0 0 0
Info: WRAPPING WATERS AROUND PERIODIC BOUNDARIES ON OUTPUT.
Info: WRAPPING ALL CLUSTERS AROUND PERIODIC BOUNDARIES ON OUTPUT.
Info: FIRST LDB TIMESTEP     50
Info: LAST LDB TIMESTEP     -1
Info: HOM BACKGROUND SCALING 1
Info: PME BACKGROUND SCALING 1
Info: MIN ATOMS PER PATCH    40
Info: EMPTY PATCH LOAD       40 ATOMS
Info: INITIAL TEMPERATURE    300
Info: CENTER OF MASS MOVING INITIALLY? NO
Info: DIELECTRIC             1
Info: EXCLUDE                SCALED ONE-FOUR
Info: 1-4 ELECTROSTATICS SCALED BY 0.833333
Info: MODIFIED 1-4 VDW PARAMETERS WILL BE USED
Info: DCD FILENAME           mobley_755351_equil.dcd
Info: DCD FREQUENCY          100000
Info: DCD FIRST STEP         100000
Info: DCD FILE WILL CONTAIN UNIT CELL DATA
Info: XST FILENAME           mobley_755351_equil.xst
Info: XST FREQUENCY          100000
Info: NO VELOCITY DCD OUTPUT
Info: NO FORCE DCD OUTPUT
Info: OUTPUT FILENAME        mobley_755351_equil
Info: BINARY OUTPUT FILES WILL BE USED
Info: RESTART FILENAME       mobley_755351_equil.restart
Info: RESTART FREQUENCY      100000
Info: BINARY RESTART FILES WILL BE USED
Info: CUTOFF                 9
Info: PAIRLIST DISTANCE      11
Info: PAIRLIST SHRINK RATE   0.01
Info: PAIRLIST GROW RATE     0.01
Info: PAIRLIST TRIGGER       0.3
Info: PAIRLISTS PER CYCLE    2
Info: PAIRLISTS ENABLED
Info: MARGIN                 8
Info: HYDROGEN GROUP CUTOFF  2.5
Info: PATCH DIMENSION        21.5
Info: ENERGY OUTPUT STEPS    100000
Info: ENERGY EVALUATION STEPS    100000
Info: OUTPUT ENERGY PRECISION 4
Info: CROSSTERM ENERGY INCLUDED IN DIHEDRAL
Info: TIMING OUTPUT STEPS    1000000
Info: PRESSURE OUTPUT STEPS  100000
Info: LANGEVIN DYNAMICS ACTIVE
Info: LANGEVIN TEMPERATURE   30
Info: LANGEVIN USING BBK INTEGRATOR
Info: LANGEVIN DAMPING COEFFICIENT IS 1 INVERSE PS
Info: LANGEVIN DYNAMICS APPLIED TO HYDROGENS
Info: LANGEVIN PISTON PRESSURE CONTROL ACTIVE
Info:        TARGET PRESSURE IS 1.01325 BAR
Info:     OSCILLATION PERIOD IS 50 FS
Info:             DECAY TIME IS 25 FS
Info:     PISTON TEMPERATURE IS 300 K
Info:       PRESSURE CONTROL IS GROUP-BASED
Info:    INITIAL STRAIN RATE IS 0 0 0
Info:       CELL FLUCTUATION IS ISOTROPIC
Info: PARTICLE MESH EWALD (PME) ACTIVE
Info: PME TOLERANCE               1e-06
Info: PME EWALD COEFFICIENT       0.348832
Info: PME INTERPOLATION ORDER     4
Info: PME GRID DIMENSIONS         36 36 40
Info: PME MAXIMUM GRID SPACING    1
Info: FULL ELECTROSTATIC EVALUATION FREQUENCY      2
Info: USING VERLET I (r-RESPA) MTS SCHEME.
Info: C1 SPLITTING OF LONG RANGE ELECTROSTATICS
Info: PLACING ATOMS IN PATCHES BY HYDROGEN GROUPS
Info: RIGID BONDS TO HYDROGEN : ALL
Info:         ERROR TOLERANCE : 1e-08
Info:          MAX ITERATIONS : 100
Info: RIGID WATER USING SETTLE ALGORITHM
Info: RANDOM NUMBER SEED     1743233098
Info: USE HYDROGEN BONDS?    NO
Info: Using AMBER format force field!
Info: AMBER PARM FILE        mobley_755351.prmtop
Info: COORDINATE PDB         mobley_755351.pdb
Info: Exclusions will be read from PARM file!
Info: SCNB (VDW SCALING)     2
Info: USING ARITHMETIC MEAN TO COMBINE L-J SIGMA PARAMETERS
Info: BINARY COORDINATES     mobley_755351_min.coor
Info: SUMMARY OF PARAMETERS:
Info: 9 BONDS
Info: 9 ANGLES
Info:   9 HARMONIC
Info:   0 COSINE-BASED
Info: 5 DIHEDRAL
Info: 0 IMPROPER
Info: 0 CROSSTERM
Info: 0 VDW
Info: 45 VDW_PAIRS
Info: 0 NBTHOLE_PAIRS
Info: STRUCTURE SUMMARY:
Info: 2937 ATOMS
Info: 2937 BONDS
Info: 28 ANGLES
Info: 40 DIHEDRALS
Info: 0 IMPROPERS
Info: 0 CROSSTERMS
Info: 2995 EXCLUSIONS
Info: 2928 RIGID BONDS
Info: 5883 DEGREES OF FREEDOM
Info: 982 HYDROGEN GROUPS
Info: 4 ATOMS IN LARGEST HYDROGEN GROUP
Info: 982 MIGRATION GROUPS
Info: 4 ATOMS IN LARGEST MIGRATION GROUP
Info: TOTAL MASS = 17652.7 amu
Info: TOTAL CHARGE = -0.000100024 e
Info: MASS DENSITY = 0.674363 g/cm^3
Info: ATOM DENSITY = 0.0675658 atoms/A^3
Info: ADDED 0 IMPLICIT EXCLUSIONS
Info: NONBONDED TABLE R-SQUARED SPACING: 0.0625
Info: NONBONDED TABLE SIZE: 705 POINTS
Info: REMOVING COM VELOCITY 0.220677 -0.0448042 -0.0881874
TCL: Running for 100000 steps
ETITLE: TS BOND ANGLE DIHED IMPRP ELECT VDW BOUNDARY MISC KINETIC TOTAL TEMP POTENTIAL TOTAL3 TEMPAVG PRESSURE GPRESSURE VOLUME PRESSAVG GPRESSAVG
ENERGY: 0 0.1577 1.4037 0.5313 0.0000 -13639.0111 2423.2508 0.0000 0.0000 1785.6137 -9428.0539 305.4774 -11213.6676 -9427.6629 305.4774 679.5452 713.4137 43468.7678 679.5452 713.4137
ENERGY: 100000 0.1915 1.2775 2.2532 0.0000 -14180.3311 2455.3016 0.0000 0.0000 172.6214 -11548.6858 29.5315 -11721.3072 -11548.1803 30.9728 -75.1861 -19.6567 28371.2015 2.9700 3.0216
TCL: Running 100000 steps at 60 kelvin.
TCL: Setting parameter langevinTemp to 60
TCL: Running for 100000 steps
ETITLE: TS BOND ANGLE DIHED IMPRP ELECT VDW BOUNDARY MISC KINETIC TOTAL TEMP POTENTIAL TOTAL3 TEMPAVG PRESSURE GPRESSURE VOLUME PRESSAVG GPRESSAVG
ENERGY: 100000 0.1915 1.2775 2.2532 0.0000 -14180.3311 2455.3016 0.0000 0.0000 172.5334 -11548.7738 29.5165 -11721.3072 -11548.3686 29.5165 -81.7337 -19.5853 28371.2015 -81.7337 -19.5853
ENERGY: 200000 0.2937 2.3095 1.7690 0.0000 -14030.0401 2392.3343 0.0000 0.0000 351.3066 -11282.0270 60.1005 -11633.3336 -11280.9973 60.0000 -178.9590 -123.0173 28540.1018 3.6023 3.5968
TCL: Running 100000 steps at 90 kelvin.
TCL: Setting parameter langevinTemp to 90
TCL: Running for 100000 steps
ETITLE: TS BOND ANGLE DIHED IMPRP ELECT VDW BOUNDARY MISC KINETIC TOTAL TEMP POTENTIAL TOTAL3 TEMPAVG PRESSURE GPRESSURE VOLUME PRESSAVG GPRESSAVG
ENERGY: 200000 0.2937 2.3095 1.7690 0.0000 -14030.0401 2392.3343 0.0000 0.0000 351.1326 -11282.2010 60.0707 -11633.3336 -11281.4957 60.0707 -191.4459 -123.0229 28540.1018 -191.4459 -123.0229
ENERGY: 300000 1.6087 2.0286 4.1516 0.0000 -13688.1200 2132.3348 0.0000 0.0000 518.1071 -11029.8892 88.6362 -11547.9962 -11027.6437 89.7665 -1989.6386 -1967.1278 28743.4416 3.3741 3.3340
TCL: Running 100000 steps at 120 kelvin.
TCL: Setting parameter langevinTemp to 120
TCL: Running for 100000 steps
ETITLE: TS BOND ANGLE DIHED IMPRP ELECT VDW BOUNDARY MISC KINETIC TOTAL TEMP POTENTIAL TOTAL3 TEMPAVG PRESSURE GPRESSURE VOLUME PRESSAVG GPRESSAVG
ENERGY: 300000 1.6087 2.0286 4.1516 0.0000 -13688.1200 2132.3348 0.0000 0.0000 517.8437 -11030.1526 88.5911 -11547.9962 -11028.9841 88.5911 -2020.0403 -1966.4538 28743.4416 -2020.0403 -1966.4538
ENERGY: 400000 1.4233 3.7336 7.5563 0.0000 -13701.2489 2230.4059 0.0000 0.0000 704.1888 -10753.9410 120.4705 -11458.1298 -10752.7909 119.9214 -980.9694 -941.0548 29021.3634 3.0871 3.3091
TCL: Running 100000 steps at 150 kelvin.
TCL: Setting parameter langevinTemp to 150
TCL: Running for 100000 steps
ETITLE: TS BOND ANGLE DIHED IMPRP ELECT VDW BOUNDARY MISC KINETIC TOTAL TEMP POTENTIAL TOTAL3 TEMPAVG PRESSURE GPRESSURE VOLUME PRESSAVG GPRESSAVG
ENERGY: 400000 1.4233 3.7336 7.5563 0.0000 -13701.2489 2230.4059 0.0000 0.0000 703.8420 -10754.2879 120.4111 -11458.1298 -10752.9047 120.4111 -993.3906 -941.2103 29021.3634 -993.3906 -941.2103
ENERGY: 500000 1.6774 3.3108 0.9701 0.0000 -13648.6632 2346.7911 0.0000 0.0000 891.7811 -10404.1327 152.5632 -11295.9138 -10401.8930 149.8767 561.1798 639.9896 28747.6064 3.8870 3.8613
TCL: Running 100000 steps at 180 kelvin.
TCL: Setting parameter langevinTemp to 180
TCL: Running for 100000 steps
ETITLE: TS BOND ANGLE DIHED IMPRP ELECT VDW BOUNDARY MISC KINETIC TOTAL TEMP POTENTIAL TOTAL3 TEMPAVG PRESSURE GPRESSURE VOLUME PRESSAVG GPRESSAVG
ENERGY: 500000 1.6774 3.3108 0.9701 0.0000 -13648.6632 2346.7911 0.0000 0.0000 891.3661 -10404.5476 152.4922 -11295.9138 -10402.9682 152.4922 596.5497 640.7554 28747.6064 596.5497 640.7554
ENERGY: 600000 2.0253 2.9973 6.7002 0.0000 -13066.8182 2070.1294 0.0000 0.0000 1081.3943 -9903.5716 185.0017 -10984.9659 -9900.9943 179.8027 -404.5609 -382.1736 28954.0575 4.1421 4.0994
TCL: Running 100000 steps at 210 kelvin.
TCL: Setting parameter langevinTemp to 210
TCL: Running for 100000 steps
ETITLE: TS BOND ANGLE DIHED IMPRP ELECT VDW BOUNDARY MISC KINETIC TOTAL TEMP POTENTIAL TOTAL3 TEMPAVG PRESSURE GPRESSURE VOLUME PRESSAVG GPRESSAVG
ENERGY: 600000 2.0253 2.9973 6.7002 0.0000 -13066.8182 2070.1294 0.0000 0.0000 1080.8630 -9904.1029 184.9108 -10984.9659 -9902.1575 184.9108 -433.0521 -382.5414 28954.0575 -433.0521 -382.5414
ENERGY: 700000 1.4911 7.2779 5.6835 0.0000 -12429.4550 1937.0998 0.0000 0.0000 1229.2619 -9248.6408 210.2984 -10477.9027 -9245.5443 210.1149 460.6901 543.2309 28667.6109 4.4624 4.4330
TCL: Running 100000 steps at 240 kelvin.
TCL: Setting parameter langevinTemp to 240
TCL: Running for 100000 steps
ETITLE: TS BOND ANGLE DIHED IMPRP ELECT VDW BOUNDARY MISC KINETIC TOTAL TEMP POTENTIAL TOTAL3 TEMPAVG PRESSURE GPRESSURE VOLUME PRESSAVG GPRESSAVG
ENERGY: 700000 1.4911 7.2779 5.6835 0.0000 -12429.4550 1937.0998 0.0000 0.0000 1228.6542 -9249.2485 210.1944 -10477.9027 -9247.3319 210.1944 469.5625 543.2853 28667.6109 469.5625 543.2853
ENERGY: 800000 2.7166 3.3284 9.0527 0.0000 -11793.2484 1707.6974 0.0000 0.0000 1427.5237 -8642.9296 244.2164 -10070.4533 -8640.1237 239.3196 24.6384 172.7872 28596.2919 4.1280 4.2453
TCL: Running 100000 steps at 270 kelvin.
TCL: Setting parameter langevinTemp to 270
TCL: Running for 100000 steps
ETITLE: TS BOND ANGLE DIHED IMPRP ELECT VDW BOUNDARY MISC KINETIC TOTAL TEMP POTENTIAL TOTAL3 TEMPAVG PRESSURE GPRESSURE VOLUME PRESSAVG GPRESSAVG
ENERGY: 800000 2.7166 3.3284 9.0527 0.0000 -11793.2484 1707.6974 0.0000 0.0000 1426.7950 -8643.6583 244.0918 -10070.4533 -8641.1018 244.0918 76.5489 172.0763 28596.2919 76.5489 172.0763
ENERGY: 900000 1.0030 3.8201 3.9430 0.0000 -11019.7257 1468.4187 0.0000 0.0000 1557.4973 -7985.0437 266.4519 -9542.5409 -7981.1176 270.0984 -400.8415 -340.0012 29552.2617 4.4850 4.2336
TCL: Running 1000000 steps at 300 kelvin.
TCL: Setting parameter langevinTemp to 300
TCL: Running for 1000000 steps
ETITLE: TS BOND ANGLE DIHED IMPRP ELECT VDW BOUNDARY MISC KINETIC TOTAL TEMP POTENTIAL TOTAL3 TEMPAVG PRESSURE GPRESSURE VOLUME PRESSAVG GPRESSAVG
ENERGY: 900000 1.0030 3.8201 3.9430 0.0000 -11019.7257 1468.4187 0.0000 0.0000 1556.7129 -7985.8281 266.3177 -9542.5409 -7984.0205 266.3177 -411.6514 -338.4069 29552.2617 -411.6514 -338.4069
ENERGY: 1100000 3.8157 8.7548 9.5644 0.0000 -10666.4396 1444.0863 0.0000 0.0000 1781.3067 -7418.9118 304.7405 -9200.2185 -7418.5293 300.3414 -158.9252 -131.0630 30708.8864 4.5558 4.3562
ENERGY: 1300000 1.8332 7.3296 5.4648 0.0000 -10772.0066 1460.9026 0.0000 0.0000 1699.5056 -7596.9709 290.7463 -9296.4765 -7592.5768 300.1709 177.2699 367.3863 29679.9486 3.1309 2.9157
ENERGY: 1500000 4.7072 7.9837 4.3927 0.0000 -10556.1435 1293.8993 0.0000 0.0000 1817.9868 -7427.1738 311.0157 -9245.1605 -7424.2052 300.0145 -1145.7543 -1124.5896 30452.6816 3.3320 3.4124
ENERGY: 1700000 2.3931 5.2413 5.1800 0.0000 -10784.2655 1496.2062 0.0000 0.0000 1795.7266 -7479.5184 307.2075 -9275.2450 -7475.9477 299.5552 234.2697 342.7964 30289.7337 4.1370 4.1801
ENERGY: 1900000 1.7548 9.3899 4.2689 0.0000 -10672.8395 1500.7566 0.0000 0.0000 1737.2292 -7419.4400 297.1999 -9156.6692 -7417.0885 300.0482 870.0197 1011.1320 30097.7957 2.2099 2.1838
TCL: Exiting due to exit command.
