Info: SIMULATION PARAMETERS:
Info: TIMESTEP               2
Info: NUMBER OF STEPS        0
Info: STEPS PER CYCLE        10
Info: PERIODIC CELL BASIS 1  34.207 0 0
Info: PERIODIC CELL BASIS 2  0 35.779 0
Info: PERIODIC CELL BASIS 3  0 0 35.723
Info: PERIODIC CELL CENTER   0 0 0
Info: WRAPPING WATERS AROUND PERIODIC BOUNDARIES ON OUTPUT.
Info: WRAPPING ALL CLUSTERS AROUND PERIODIC BOUNDARIES ON OUTPUT.
Info: FIRST LDB TIMESTEP     50
Info: LAST LDB TIMESTEP     -1
Info: HOM BACKGROUND SCALING 1
Info: PME BACKGROUND SCALING 1
Info: MIN ATOMS PER PATCH    40
Info: EMPTY PATCH LOAD       40 ATOMS
Info: INITIAL TEMPERATURE    300
Info: CENTER OF MASS MOVING INITIALLY? NO
Info: DIELECTRIC             1
Info: EXCLUDE                SCALED ONE-FOUR
Info: 1-4 ELECTROSTATICS SCALED BY 0.833333
Info: MODIFIED 1-4 VDW PARAMETERS WILL BE USED
Info: DCD FILENAME           mobley_7893124_equil.dcd
Info: DCD FREQUENCY          100000
Info: DCD FIRST STEP         100000
Info: DCD FILE WILL CONTAIN UNIT CELL DATA
Info: XST FILENAME           mobley_7893124_equil.xst
Info: XST FREQUENCY          100000
Info: NO VELOCITY DCD OUTPUT
Info: NO FORCE DCD OUTPUT
Info: OUTPUT FILENAME        mobley_7893124_equil
Info: BINARY OUTPUT FILES WILL BE USED
Info: RESTART FILENAME       mobley_7893124_equil.restart
Info: RESTART FREQUENCY      100000
Info: BINARY RESTART FILES WILL BE USED
Info: CUTOFF                 9
Info: PAIRLIST DISTANCE      11
Info: PAIRLIST SHRINK RATE   0.01
Info: PAIRLIST GROW RATE     0.01
Info: PAIRLIST TRIGGER       0.3
Info: PAIRLISTS PER CYCLE    2
Info: PAIRLISTS ENABLED
Info: MARGIN                 8
Info: HYDROGEN GROUP CUTOFF  2.5
Info: PATCH DIMENSION        21.5
Info: ENERGY OUTPUT STEPS    100000
Info: ENERGY EVALUATION STEPS    100000
Info: OUTPUT ENERGY PRECISION 4
Info: CROSSTERM ENERGY INCLUDED IN DIHEDRAL
Info: TIMING OUTPUT STEPS    1000000
Info: PRESSURE OUTPUT STEPS  100000
Info: LANGEVIN DYNAMICS ACTIVE
Info: LANGEVIN TEMPERATURE   30
Info: LANGEVIN USING BBK INTEGRATOR
Info: LANGEVIN DAMPING COEFFICIENT IS 1 INVERSE PS
Info: LANGEVIN DYNAMICS APPLIED TO HYDROGENS
Info: LANGEVIN PISTON PRESSURE CONTROL ACTIVE
Info:        TARGET PRESSURE IS 1.01325 BAR
Info:     OSCILLATION PERIOD IS 50 FS
Info:             DECAY TIME IS 25 FS
Info:     PISTON TEMPERATURE IS 300 K
Info:       PRESSURE CONTROL IS GROUP-BASED
Info:    INITIAL STRAIN RATE IS 0 0 0
Info:       CELL FLUCTUATION IS ISOTROPIC
Info: PARTICLE MESH EWALD (PME) ACTIVE
Info: PME TOLERANCE               1e-06
Info: PME EWALD COEFFICIENT       0.348832
Info: PME INTERPOLATION ORDER     4
Info: PME GRID DIMENSIONS         36 36 36
Info: PME MAXIMUM GRID SPACING    1
Info: FULL ELECTROSTATIC EVALUATION FREQUENCY      2
Info: USING VERLET I (r-RESPA) MTS SCHEME.
Info: C1 SPLITTING OF LONG RANGE ELECTROSTATICS
Info: PLACING ATOMS IN PATCHES BY HYDROGEN GROUPS
Info: RIGID BONDS TO HYDROGEN : ALL
Info:         ERROR TOLERANCE : 1e-08
Info:          MAX ITERATIONS : 100
Info: RIGID WATER USING SETTLE ALGORITHM
Info: RANDOM NUMBER SEED     1743221696
Info: USE HYDROGEN BONDS?    NO
Info: Using AMBER format force field!
Info: AMBER PARM FILE        mobley_7893124.prmtop
Info: COORDINATE PDB         mobley_7893124.pdb
Info: Exclusions will be read from PARM file!
Info: SCNB (VDW SCALING)     2
Info: USING ARITHMETIC MEAN TO COMBINE L-J SIGMA PARAMETERS
Info: BINARY COORDINATES     mobley_7893124_min.coor
Info: SUMMARY OF PARAMETERS:
Info: 7 BONDS
Info: 7 ANGLES
Info:   7 HARMONIC
Info:   0 COSINE-BASED
Info: 5 DIHEDRAL
Info: 0 IMPROPER
Info: 0 CROSSTERM
Info: 0 VDW
Info: 21 VDW_PAIRS
Info: 0 NBTHOLE_PAIRS
Info: STRUCTURE SUMMARY:
Info: 2922 ATOMS
Info: 2922 BONDS
Info: 42 ANGLES
Info: 63 DIHEDRALS
Info: 0 IMPROPERS
Info: 0 CROSSTERMS
Info: 3018 EXCLUSIONS
Info: 2912 RIGID BONDS
Info: 5854 DEGREES OF FREEDOM
Info: 976 HYDROGEN GROUPS
Info: 4 ATOMS IN LARGEST HYDROGEN GROUP
Info: 976 MIGRATION GROUPS
Info: 4 ATOMS IN LARGEST MIGRATION GROUP
Info: TOTAL MASS = 17537.7 amu
Info: TOTAL CHARGE = 0.000200007 e
Info: MASS DENSITY = 0.666101 g/cm^3
Info: ATOM DENSITY = 0.0668327 atoms/A^3
Info: ADDED 0 IMPLICIT EXCLUSIONS
Info: NONBONDED TABLE R-SQUARED SPACING: 0.0625
Info: NONBONDED TABLE SIZE: 705 POINTS
Info: REMOVING COM VELOCITY -0.0354381 0.0857041 -0.0297561
TCL: Running for 100000 steps
ETITLE: TS BOND ANGLE DIHED IMPRP ELECT VDW BOUNDARY MISC KINETIC TOTAL TEMP POTENTIAL TOTAL3 TEMPAVG PRESSURE GPRESSURE VOLUME PRESSAVG GPRESSAVG
ENERGY: 0 0.7789 1.6506 0.0389 0.0000 -13479.3754 2398.5850 0.0000 0.0000 1736.0238 -9342.2982 298.4650 -11078.3220 -9341.9631 298.4650 566.2748 610.5987 43721.1030 566.2748 610.5987
ENERGY: 100000 0.4955 2.5926 0.3340 0.0000 -14163.5724 2549.7902 0.0000 0.0000 177.9287 -11432.4316 30.5903 -11610.3603 -11431.7902 30.9830 1038.6334 1098.9974 28156.2604 4.4492 4.4264
TCL: Running 100000 steps at 60 kelvin.
TCL: Setting parameter langevinTemp to 60
TCL: Running for 100000 steps
ETITLE: TS BOND ANGLE DIHED IMPRP ELECT VDW BOUNDARY MISC KINETIC TOTAL TEMP POTENTIAL TOTAL3 TEMPAVG PRESSURE GPRESSURE VOLUME PRESSAVG GPRESSAVG
ENERGY: 100000 0.4955 2.5926 0.3340 0.0000 -14163.5724 2549.7902 0.0000 0.0000 177.8387 -11432.5216 30.5748 -11610.3603 -11432.2671 30.5748 1044.1915 1099.2404 28156.2604 1044.1915 1099.2404
ENERGY: 200000 1.7509 4.3899 0.6099 0.0000 -13934.1021 2387.4652 0.0000 0.0000 356.7384 -11183.1478 61.3321 -11539.8862 -11182.4393 59.9711 -302.2693 -252.6930 28487.2921 4.5763 4.5463
TCL: Running 100000 steps at 90 kelvin.
TCL: Setting parameter langevinTemp to 90
TCL: Running for 100000 steps
ETITLE: TS BOND ANGLE DIHED IMPRP ELECT VDW BOUNDARY MISC KINETIC TOTAL TEMP POTENTIAL TOTAL3 TEMPAVG PRESSURE GPRESSURE VOLUME PRESSAVG GPRESSAVG
ENERGY: 200000 1.7509 4.3899 0.6099 0.0000 -13934.1021 2387.4652 0.0000 0.0000 356.5687 -11183.3175 61.3029 -11539.8862 -11182.6245 61.3029 -313.7630 -252.6539 28487.2921 -313.7630 -252.6539
ENERGY: 300000 1.7319 4.9110 1.1654 0.0000 -13728.9041 2299.7711 0.0000 0.0000 535.1012 -10886.2235 91.9970 -11421.3248 -10885.0158 89.9472 -577.1565 -506.2910 28561.0540 3.4172 3.4824
TCL: Running 100000 steps at 120 kelvin.
TCL: Setting parameter langevinTemp to 120
TCL: Running for 100000 steps
ETITLE: TS BOND ANGLE DIHED IMPRP ELECT VDW BOUNDARY MISC KINETIC TOTAL TEMP POTENTIAL TOTAL3 TEMPAVG PRESSURE GPRESSURE VOLUME PRESSAVG GPRESSAVG
ENERGY: 300000 1.7319 4.9110 1.1654 0.0000 -13728.9041 2299.7711 0.0000 0.0000 534.8372 -10886.4876 91.9516 -11421.3248 -10885.3987 91.9516 -562.7845 -506.6971 28561.0540 -562.7845 -506.6971
ENERGY: 400000 1.6668 4.5887 0.5746 0.0000 -13689.3191 2380.4928 0.0000 0.0000 684.8283 -10617.1679 117.7387 -11301.9962 -10615.9954 119.6864 962.6333 1001.0871 27983.5984 3.6211 3.7138
TCL: Running 100000 steps at 150 kelvin.
TCL: Setting parameter langevinTemp to 150
TCL: Running for 100000 steps
ETITLE: TS BOND ANGLE DIHED IMPRP ELECT VDW BOUNDARY MISC KINETIC TOTAL TEMP POTENTIAL TOTAL3 TEMPAVG PRESSURE GPRESSURE VOLUME PRESSAVG GPRESSAVG
ENERGY: 400000 1.6668 4.5887 0.5746 0.0000 -13689.3191 2380.4928 0.0000 0.0000 684.4738 -10617.5223 117.6778 -11301.9962 -10616.0209 117.6778 960.5128 999.8439 27983.5984 960.5128 999.8439
ENERGY: 500000 3.0803 5.6077 1.3210 0.0000 -13282.8538 2165.9544 0.0000 0.0000 881.4568 -10225.4337 151.5440 -11106.8904 -10222.7073 149.5525 -492.3283 -461.8759 28559.7168 3.6882 3.7542
TCL: Running 100000 steps at 180 kelvin.
TCL: Setting parameter langevinTemp to 180
TCL: Running for 100000 steps
ETITLE: TS BOND ANGLE DIHED IMPRP ELECT VDW BOUNDARY MISC KINETIC TOTAL TEMP POTENTIAL TOTAL3 TEMPAVG PRESSURE GPRESSURE VOLUME PRESSAVG GPRESSAVG
ENERGY: 500000 3.0803 5.6077 1.3210 0.0000 -13282.8538 2165.9544 0.0000 0.0000 881.0175 -10225.8730 151.4685 -11106.8904 -10223.8363 151.4685 -523.5450 -460.4759 28559.7168 -523.5450 -460.4759
ENERGY: 600000 2.8165 6.4838 2.0453 0.0000 -12991.5310 2148.7037 0.0000 0.0000 1058.7197 -9772.7621 182.0198 -10831.4817 -9769.8012 179.8435 502.3019 532.2154 28506.3991 2.4363 2.3895
TCL: Running 100000 steps at 210 kelvin.
TCL: Setting parameter langevinTemp to 210
TCL: Running for 100000 steps
ETITLE: TS BOND ANGLE DIHED IMPRP ELECT VDW BOUNDARY MISC KINETIC TOTAL TEMP POTENTIAL TOTAL3 TEMPAVG PRESSURE GPRESSURE VOLUME PRESSAVG GPRESSAVG
ENERGY: 600000 2.8165 6.4838 2.0453 0.0000 -12991.5310 2148.7037 0.0000 0.0000 1058.2160 -9773.2657 181.9332 -10831.4817 -9771.3638 181.9332 467.3880 532.1652 28506.3991 467.3880 532.1652
ENERGY: 700000 3.2951 6.2089 1.1188 0.0000 -12244.0080 1853.6264 0.0000 0.0000 1210.0830 -9169.6758 208.0429 -10379.7588 -9166.6283 210.2865 -465.8950 -361.3631 28564.1353 4.8829 4.6661
TCL: Running 100000 steps at 240 kelvin.
TCL: Setting parameter langevinTemp to 240
TCL: Running for 100000 steps
ETITLE: TS BOND ANGLE DIHED IMPRP ELECT VDW BOUNDARY MISC KINETIC TOTAL TEMP POTENTIAL TOTAL3 TEMPAVG PRESSURE GPRESSURE VOLUME PRESSAVG GPRESSAVG
ENERGY: 700000 3.2951 6.2089 1.1188 0.0000 -12244.0080 1853.6264 0.0000 0.0000 1209.4865 -9170.2723 207.9403 -10379.7588 -9168.1087 207.9403 -450.8631 -361.5833 28564.1353 -450.8631 -361.5833
ENERGY: 800000 4.8358 10.3415 2.3401 0.0000 -11618.9232 1649.4937 0.0000 0.0000 1397.9431 -8553.9689 240.3406 -9951.9120 -8549.7375 239.9613 -274.1581 -243.2969 28835.9022 3.3894 3.5180
TCL: Running 100000 steps at 270 kelvin.
TCL: Setting parameter langevinTemp to 270
TCL: Running for 100000 steps
ETITLE: TS BOND ANGLE DIHED IMPRP ELECT VDW BOUNDARY MISC KINETIC TOTAL TEMP POTENTIAL TOTAL3 TEMPAVG PRESSURE GPRESSURE VOLUME PRESSAVG GPRESSAVG
ENERGY: 800000 4.8358 10.3415 2.3401 0.0000 -11618.9232 1649.4937 0.0000 0.0000 1397.2400 -8554.6720 240.2197 -9951.9120 -8551.9954 240.2197 -310.5745 -241.0789 28835.9022 -310.5745 -241.0789
ENERGY: 900000 5.7123 10.1415 3.0430 0.0000 -11093.6018 1529.4146 0.0000 0.0000 1568.7232 -7976.5672 269.7019 -9545.2904 -7973.2366 269.8652 -291.0158 -267.6339 29346.0841 3.2145 3.2392
TCL: Running 1000000 steps at 300 kelvin.
TCL: Setting parameter langevinTemp to 300
TCL: Running for 1000000 steps
ETITLE: TS BOND ANGLE DIHED IMPRP ELECT VDW BOUNDARY MISC KINETIC TOTAL TEMP POTENTIAL TOTAL3 TEMPAVG PRESSURE GPRESSURE VOLUME PRESSAVG GPRESSAVG
ENERGY: 900000 5.7123 10.1415 3.0430 0.0000 -11093.6018 1529.4146 0.0000 0.0000 1567.9332 -7977.3572 269.5661 -9545.2904 -7975.1597 269.5661 -347.8124 -267.4757 29346.0841 -347.8124 -267.4757
ENERGY: 1100000 5.3047 8.0478 3.3369 0.0000 -10461.4278 1329.1777 0.0000 0.0000 1784.7762 -7330.7845 306.8467 -9115.5608 -7328.4906 300.2303 -696.9352 -549.1755 30119.2788 2.8048 2.9750
ENERGY: 1300000 8.4498 12.7298 5.9815 0.0000 -10386.8052 1319.0419 0.0000 0.0000 1737.8545 -7302.7478 298.7797 -9040.6023 -7299.0581 300.4217 -783.9430 -721.6926 30494.0298 3.6239 3.6258
ENERGY: 1500000 5.8710 10.8185 6.2267 0.0000 -10413.6720 1373.4074 0.0000 0.0000 1815.8489 -7201.4995 312.1888 -9017.3483 -7197.0437 300.7104 -196.1581 -100.9135 30536.1440 2.8911 2.8490
ENERGY: 1700000 6.7660 10.1265 5.2410 0.0000 -10628.9774 1480.7226 0.0000 0.0000 1703.4079 -7422.7134 292.8575 -9126.1213 -7419.7846 300.2899 218.6427 347.3235 29908.9036 4.7243 4.9098
ENERGY: 1900000 4.3852 7.9411 10.3240 0.0000 -10485.7916 1405.7286 0.0000 0.0000 1675.3056 -7382.1071 288.0260 -9057.4127 -7379.0067 299.8670 -104.2835 -29.1490 30262.8571 2.6189 2.8130
TCL: Exiting due to exit command.
