Info: SIMULATION PARAMETERS:
Info: TIMESTEP               2
Info: NUMBER OF STEPS        0
Info: STEPS PER CYCLE        10
Info: PERIODIC CELL BASIS 1  36.005 0 0
Info: PERIODIC CELL BASIS 2  0 35.779 0
Info: PERIODIC CELL BASIS 3  0 0 34.954
Info: PERIODIC CELL CENTER   0 0 0
Info: WRAPPING WATERS AROUND PERIODIC BOUNDARIES ON OUTPUT.
Info: WRAPPING ALL CLUSTERS AROUND PERIODIC BOUNDARIES ON OUTPUT.
Info: FIRST LDB TIMESTEP     50
Info: LAST LDB TIMESTEP     -1
Info: HOM BACKGROUND SCALING 1
Info: PME BACKGROUND SCALING 1
Info: MIN ATOMS PER PATCH    40
Info: EMPTY PATCH LOAD       40 ATOMS
Info: INITIAL TEMPERATURE    300
Info: CENTER OF MASS MOVING INITIALLY? NO
Info: DIELECTRIC             1
Info: EXCLUDE                SCALED ONE-FOUR
Info: 1-4 ELECTROSTATICS SCALED BY 0.833333
Info: MODIFIED 1-4 VDW PARAMETERS WILL BE USED
Info: DCD FILENAME           mobley_5627459_equil.dcd
Info: DCD FREQUENCY          100000
Info: DCD FIRST STEP         100000
Info: DCD FILE WILL CONTAIN UNIT CELL DATA
Info: XST FILENAME           mobley_5627459_equil.xst
Info: XST FREQUENCY          100000
Info: NO VELOCITY DCD OUTPUT
Info: NO FORCE DCD OUTPUT
Info: OUTPUT FILENAME        mobley_5627459_equil
Info: BINARY OUTPUT FILES WILL BE USED
Info: RESTART FILENAME       mobley_5627459_equil.restart
Info: RESTART FREQUENCY      100000
Info: BINARY RESTART FILES WILL BE USED
Info: CUTOFF                 9
Info: PAIRLIST DISTANCE      11
Info: PAIRLIST SHRINK RATE   0.01
Info: PAIRLIST GROW RATE     0.01
Info: PAIRLIST TRIGGER       0.3
Info: PAIRLISTS PER CYCLE    2
Info: PAIRLISTS ENABLED
Info: MARGIN                 8
Info: HYDROGEN GROUP CUTOFF  2.5
Info: PATCH DIMENSION        21.5
Info: ENERGY OUTPUT STEPS    100000
Info: ENERGY EVALUATION STEPS    100000
Info: OUTPUT ENERGY PRECISION 4
Info: CROSSTERM ENERGY INCLUDED IN DIHEDRAL
Info: TIMING OUTPUT STEPS    1000000
Info: PRESSURE OUTPUT STEPS  100000
Info: LANGEVIN DYNAMICS ACTIVE
Info: LANGEVIN TEMPERATURE   30
Info: LANGEVIN USING BBK INTEGRATOR
Info: LANGEVIN DAMPING COEFFICIENT IS 1 INVERSE PS
Info: LANGEVIN DYNAMICS APPLIED TO HYDROGENS
Info: LANGEVIN PISTON PRESSURE CONTROL ACTIVE
Info:        TARGET PRESSURE IS 1.01325 BAR
Info:     OSCILLATION PERIOD IS 50 FS
Info:             DECAY TIME IS 25 FS
Info:     PISTON TEMPERATURE IS 300 K
Info:       PRESSURE CONTROL IS GROUP-BASED
Info:    INITIAL STRAIN RATE IS 0 0 0
Info:       CELL FLUCTUATION IS ISOTROPIC
Info: PARTICLE MESH EWALD (PME) ACTIVE
Info: PME TOLERANCE               1e-06
Info: PME EWALD COEFFICIENT       0.348832
Info: PME INTERPOLATION ORDER     4
Info: PME GRID DIMENSIONS         40 36 36
Info: PME MAXIMUM GRID SPACING    1
Info: FULL ELECTROSTATIC EVALUATION FREQUENCY      2
Info: USING VERLET I (r-RESPA) MTS SCHEME.
Info: C1 SPLITTING OF LONG RANGE ELECTROSTATICS
Info: PLACING ATOMS IN PATCHES BY HYDROGEN GROUPS
Info: RIGID BONDS TO HYDROGEN : ALL
Info:         ERROR TOLERANCE : 1e-08
Info:          MAX ITERATIONS : 100
Info: RIGID WATER USING SETTLE ALGORITHM
Info: RANDOM NUMBER SEED     1743226907
Info: USE HYDROGEN BONDS?    NO
Info: Using AMBER format force field!
Info: AMBER PARM FILE        mobley_5627459.prmtop
Info: COORDINATE PDB         mobley_5627459.pdb
Info: Exclusions will be read from PARM file!
Info: SCNB (VDW SCALING)     2
Info: USING ARITHMETIC MEAN TO COMBINE L-J SIGMA PARAMETERS
Info: BINARY COORDINATES     mobley_5627459_min.coor
Info: SUMMARY OF PARAMETERS:
Info: 7 BONDS
Info: 8 ANGLES
Info: 8 DIHEDRAL
Info: 0 IMPROPER
Info: 0 CROSSTERM
Info: 0 VDW
Info: 28 VDW_PAIRS
Info: 0 NBTHOLE_PAIRS
Info: STRUCTURE SUMMARY:
Info: 2968 ATOMS
Info: 2967 BONDS
Info: 21 ANGLES
Info: 27 DIHEDRALS
Info: 0 IMPROPERS
Info: 0 CROSSTERMS
Info: 3012 EXCLUSIONS
Info: 2963 RIGID BONDS
Info: 5941 DEGREES OF FREEDOM
Info: 990 HYDROGEN GROUPS
Info: 4 ATOMS IN LARGEST HYDROGEN GROUP
Info: 990 MIGRATION GROUPS
Info: 4 ATOMS IN LARGEST MIGRATION GROUP
Info: TOTAL MASS = 17817.9 amu
Info: TOTAL CHARGE = 0.000200025 e
Info: MASS DENSITY = 0.657093 g/cm^3
Info: ATOM DENSITY = 0.0659137 atoms/A^3
Info: ADDED 0 IMPLICIT EXCLUSIONS
Info: NONBONDED TABLE R-SQUARED SPACING: 0.0625
Info: NONBONDED TABLE SIZE: 705 POINTS
Info: REMOVING COM VELOCITY -8.01429e-05 0.127804 -0.052218
TCL: Running for 100000 steps
ETITLE: TS BOND ANGLE DIHED IMPRP ELECT VDW BOUNDARY MISC KINETIC TOTAL TEMP POTENTIAL TOTAL3 TEMPAVG PRESSURE GPRESSURE VOLUME PRESSAVG GPRESSAVG
ENERGY: 0 0.1124 0.3688 0.2795 0.0000 -13726.8120 2457.2385 0.0000 0.0000 1820.7788 -9448.0339 308.4523 -11268.8128 -9447.6870 308.4523 750.1405 780.1907 45028.5431 750.1405 780.1907
ENERGY: 100000 0.3402 0.5610 0.2032 0.0000 -14211.3711 2412.0721 0.0000 0.0000 177.1361 -11621.0585 30.0081 -11798.1945 -11620.4591 30.9637 -573.3655 -511.0822 28923.0445 4.3318 4.2519
TCL: Running 100000 steps at 60 kelvin.
TCL: Setting parameter langevinTemp to 60
TCL: Running for 100000 steps
ETITLE: TS BOND ANGLE DIHED IMPRP ELECT VDW BOUNDARY MISC KINETIC TOTAL TEMP POTENTIAL TOTAL3 TEMPAVG PRESSURE GPRESSURE VOLUME PRESSAVG GPRESSAVG
ENERGY: 100000 0.3402 0.5610 0.2032 0.0000 -14211.3711 2412.0721 0.0000 0.0000 177.0447 -11621.1499 29.9926 -11798.1945 -11620.7660 29.9926 -557.8567 -511.0721 28923.0445 -557.8567 -511.0721
ENERGY: 200000 0.3087 1.0555 0.5143 0.0000 -14222.6368 2501.7740 0.0000 0.0000 365.8824 -11353.1019 61.9830 -11718.9843 -11351.9707 60.1032 483.6363 523.4592 28951.6468 4.8155 4.8423
TCL: Running 100000 steps at 90 kelvin.
TCL: Setting parameter langevinTemp to 90
TCL: Running for 100000 steps
ETITLE: TS BOND ANGLE DIHED IMPRP ELECT VDW BOUNDARY MISC KINETIC TOTAL TEMP POTENTIAL TOTAL3 TEMPAVG PRESSURE GPRESSURE VOLUME PRESSAVG GPRESSAVG
ENERGY: 200000 0.3087 1.0555 0.5143 0.0000 -14222.6368 2501.7740 0.0000 0.0000 365.7078 -11353.2765 61.9534 -11718.9843 -11352.3894 61.9534 484.5684 523.6353 28951.6468 484.5684 523.6353
ENERGY: 300000 0.4235 1.5155 0.3655 0.0000 -14010.8306 2362.7589 0.0000 0.0000 536.2823 -11109.4850 90.8499 -11645.7673 -11108.0301 89.8772 -456.4108 -402.8612 29120.4120 3.9998 4.0101
TCL: Running 100000 steps at 120 kelvin.
TCL: Setting parameter langevinTemp to 120
TCL: Running for 100000 steps
ETITLE: TS BOND ANGLE DIHED IMPRP ELECT VDW BOUNDARY MISC KINETIC TOTAL TEMP POTENTIAL TOTAL3 TEMPAVG PRESSURE GPRESSURE VOLUME PRESSAVG GPRESSAVG
ENERGY: 300000 0.4235 1.5155 0.3655 0.0000 -14010.8306 2362.7589 0.0000 0.0000 536.0215 -11109.7457 90.8057 -11645.7673 -11108.3978 90.8057 -461.3407 -403.3199 29120.4120 -461.3407 -403.3199
ENERGY: 400000 0.6795 1.2916 0.5812 0.0000 -13852.0078 2352.8241 0.0000 0.0000 721.8438 -10774.7875 122.2852 -11496.6313 -10772.6071 119.8487 -79.9787 -17.3420 29188.2781 3.0938 3.1542
TCL: Running 100000 steps at 150 kelvin.
TCL: Setting parameter langevinTemp to 150
TCL: Running for 100000 steps
ETITLE: TS BOND ANGLE DIHED IMPRP ELECT VDW BOUNDARY MISC KINETIC TOTAL TEMP POTENTIAL TOTAL3 TEMPAVG PRESSURE GPRESSURE VOLUME PRESSAVG GPRESSAVG
ENERGY: 400000 0.6795 1.2916 0.5812 0.0000 -13852.0078 2352.8241 0.0000 0.0000 721.5047 -10775.1266 122.2278 -11496.6313 -10773.6198 122.2278 -72.6301 -16.7010 29188.2781 -72.6301 -16.7010
ENERGY: 500000 0.2196 3.4645 0.5032 0.0000 -13510.9434 2182.1092 0.0000 0.0000 868.8203 -10455.8267 147.1841 -11324.6470 -10453.7638 150.0899 -885.6311 -830.0387 29352.5446 3.8689 3.7943
TCL: Running 100000 steps at 180 kelvin.
TCL: Setting parameter langevinTemp to 180
TCL: Running for 100000 steps
ETITLE: TS BOND ANGLE DIHED IMPRP ELECT VDW BOUNDARY MISC KINETIC TOTAL TEMP POTENTIAL TOTAL3 TEMPAVG PRESSURE GPRESSURE VOLUME PRESSAVG GPRESSAVG
ENERGY: 500000 0.2196 3.4645 0.5032 0.0000 -13510.9434 2182.1092 0.0000 0.0000 868.3924 -10456.2546 147.1116 -11324.6470 -10454.6623 147.1116 -892.9151 -830.0235 29352.5446 -892.9151 -830.0235
ENERGY: 600000 1.7588 3.1555 0.9785 0.0000 -12994.2783 2001.6422 0.0000 0.0000 1076.1515 -9910.5918 182.3074 -10986.7434 -9906.4763 179.9117 -1098.5053 -1062.4491 29372.5760 2.8958 2.8507
TCL: Running 100000 steps at 210 kelvin.
TCL: Setting parameter langevinTemp to 210
TCL: Running for 100000 steps
ETITLE: TS BOND ANGLE DIHED IMPRP ELECT VDW BOUNDARY MISC KINETIC TOTAL TEMP POTENTIAL TOTAL3 TEMPAVG PRESSURE GPRESSURE VOLUME PRESSAVG GPRESSAVG
ENERGY: 600000 1.7588 3.1555 0.9785 0.0000 -12994.2783 2001.6422 0.0000 0.0000 1075.6210 -9911.1223 182.2175 -10986.7434 -9909.1788 182.2175 -1125.2443 -1062.2608 29372.5760 -1125.2443 -1062.2608
ENERGY: 700000 2.2502 2.5212 1.4697 0.0000 -12567.4209 1956.5008 0.0000 0.0000 1257.2327 -9347.4463 212.9838 -10604.6790 -9345.2637 209.5876 343.4276 444.3218 28774.4793 5.4390 5.3741
TCL: Running 100000 steps at 240 kelvin.
TCL: Setting parameter langevinTemp to 240
TCL: Running for 100000 steps
ETITLE: TS BOND ANGLE DIHED IMPRP ELECT VDW BOUNDARY MISC KINETIC TOTAL TEMP POTENTIAL TOTAL3 TEMPAVG PRESSURE GPRESSURE VOLUME PRESSAVG GPRESSAVG
ENERGY: 700000 2.2502 2.5212 1.4697 0.0000 -12567.4209 1956.5008 0.0000 0.0000 1256.6278 -9348.0512 212.8813 -10604.6790 -9345.9967 212.8813 355.9370 444.0560 28774.4793 355.9370 444.0560
ENERGY: 800000 0.3392 5.6703 0.8419 0.0000 -11873.6514 1756.4675 0.0000 0.0000 1489.6469 -8620.6856 252.3563 -10110.3325 -8617.9078 239.6248 221.0755 324.4193 29309.9651 4.3835 4.2981
TCL: Running 100000 steps at 270 kelvin.
TCL: Setting parameter langevinTemp to 270
TCL: Running for 100000 steps
ETITLE: TS BOND ANGLE DIHED IMPRP ELECT VDW BOUNDARY MISC KINETIC TOTAL TEMP POTENTIAL TOTAL3 TEMPAVG PRESSURE GPRESSURE VOLUME PRESSAVG GPRESSAVG
ENERGY: 800000 0.3392 5.6703 0.8419 0.0000 -11873.6514 1756.4675 0.0000 0.0000 1488.9181 -8621.4144 252.2329 -10110.3325 -8618.7280 252.2329 249.0098 323.8672 29309.9651 249.0098 323.8672
ENERGY: 900000 1.0682 8.2516 1.0883 0.0000 -11182.8619 1520.9678 0.0000 0.0000 1562.6661 -8088.8200 264.7263 -9651.4861 -8084.8771 270.2296 -521.8328 -436.4346 30109.8687 2.4269 2.6190
TCL: Running 1000000 steps at 300 kelvin.
TCL: Setting parameter langevinTemp to 300
TCL: Running for 1000000 steps
ETITLE: TS BOND ANGLE DIHED IMPRP ELECT VDW BOUNDARY MISC KINETIC TOTAL TEMP POTENTIAL TOTAL3 TEMPAVG PRESSURE GPRESSURE VOLUME PRESSAVG GPRESSAVG
ENERGY: 900000 1.0682 8.2516 1.0883 0.0000 -11182.8619 1520.9678 0.0000 0.0000 1561.8648 -8089.6214 264.5905 -9651.4861 -8087.2084 264.5905 -522.7311 -434.6959 30109.8687 -522.7311 -434.6959
ENERGY: 1100000 0.5807 5.7880 0.9572 0.0000 -10672.2747 1487.2456 0.0000 0.0000 1779.4163 -7398.2868 301.4452 -9177.7032 -7394.7514 300.4281 739.6151 789.5353 30524.9729 3.2592 3.3174
ENERGY: 1300000 1.3201 7.5345 3.0098 0.0000 -10676.8706 1400.1526 0.0000 0.0000 1730.7524 -7534.1012 293.2012 -9264.8536 -7529.7114 299.8141 -366.3304 -326.2455 30846.4927 2.4314 2.5487
ENERGY: 1500000 1.4581 3.4433 1.0889 0.0000 -10780.8932 1455.6867 0.0000 0.0000 1834.5835 -7484.6327 310.7909 -9319.2162 -7482.5793 300.5140 -156.0970 -77.4362 30663.6229 3.6333 3.4901
ENERGY: 1700000 2.4554 5.2570 2.0559 0.0000 -10787.5230 1472.2925 0.0000 0.0000 1758.9883 -7546.4739 297.9846 -9305.4622 -7542.2216 299.5040 27.7728 67.6867 30608.9553 3.7933 4.0440
ENERGY: 1900000 1.1067 6.4822 0.5362 0.0000 -10775.0170 1460.9932 0.0000 0.0000 1758.6527 -7547.2459 297.9277 -9305.8987 -7547.2529 299.7682 223.8896 300.1700 30170.7824 3.6586 3.7269
TCL: Exiting due to exit command.
