Info: SIMULATION PARAMETERS:
Info: TIMESTEP               2
Info: NUMBER OF STEPS        0
Info: STEPS PER CYCLE        10
Info: PERIODIC CELL BASIS 1  34.986 0 0
Info: PERIODIC CELL BASIS 2  0 33.399 0
Info: PERIODIC CELL BASIS 3  0 0 37.451
Info: PERIODIC CELL CENTER   0 0 0
Info: WRAPPING WATERS AROUND PERIODIC BOUNDARIES ON OUTPUT.
Info: WRAPPING ALL CLUSTERS AROUND PERIODIC BOUNDARIES ON OUTPUT.
Info: FIRST LDB TIMESTEP     50
Info: LAST LDB TIMESTEP     -1
Info: HOM BACKGROUND SCALING 1
Info: PME BACKGROUND SCALING 1
Info: MIN ATOMS PER PATCH    40
Info: EMPTY PATCH LOAD       40 ATOMS
Info: INITIAL TEMPERATURE    300
Info: CENTER OF MASS MOVING INITIALLY? NO
Info: DIELECTRIC             1
Info: EXCLUDE                SCALED ONE-FOUR
Info: 1-4 ELECTROSTATICS SCALED BY 0.833333
Info: MODIFIED 1-4 VDW PARAMETERS WILL BE USED
Info: DCD FILENAME           mobley_2457863_equil.dcd
Info: DCD FREQUENCY          100000
Info: DCD FIRST STEP         100000
Info: DCD FILE WILL CONTAIN UNIT CELL DATA
Info: XST FILENAME           mobley_2457863_equil.xst
Info: XST FREQUENCY          100000
Info: NO VELOCITY DCD OUTPUT
Info: NO FORCE DCD OUTPUT
Info: OUTPUT FILENAME        mobley_2457863_equil
Info: BINARY OUTPUT FILES WILL BE USED
Info: RESTART FILENAME       mobley_2457863_equil.restart
Info: RESTART FREQUENCY      100000
Info: BINARY RESTART FILES WILL BE USED
Info: CUTOFF                 9
Info: PAIRLIST DISTANCE      11
Info: PAIRLIST SHRINK RATE   0.01
Info: PAIRLIST GROW RATE     0.01
Info: PAIRLIST TRIGGER       0.3
Info: PAIRLISTS PER CYCLE    2
Info: PAIRLISTS ENABLED
Info: MARGIN                 8
Info: HYDROGEN GROUP CUTOFF  2.5
Info: PATCH DIMENSION        21.5
Info: ENERGY OUTPUT STEPS    100000
Info: ENERGY EVALUATION STEPS    100000
Info: OUTPUT ENERGY PRECISION 4
Info: CROSSTERM ENERGY INCLUDED IN DIHEDRAL
Info: TIMING OUTPUT STEPS    1000000
Info: PRESSURE OUTPUT STEPS  100000
Info: LANGEVIN DYNAMICS ACTIVE
Info: LANGEVIN TEMPERATURE   30
Info: LANGEVIN USING BBK INTEGRATOR
Info: LANGEVIN DAMPING COEFFICIENT IS 1 INVERSE PS
Info: LANGEVIN DYNAMICS APPLIED TO HYDROGENS
Info: LANGEVIN PISTON PRESSURE CONTROL ACTIVE
Info:        TARGET PRESSURE IS 1.01325 BAR
Info:     OSCILLATION PERIOD IS 50 FS
Info:             DECAY TIME IS 25 FS
Info:     PISTON TEMPERATURE IS 300 K
Info:       PRESSURE CONTROL IS GROUP-BASED
Info:    INITIAL STRAIN RATE IS 0 0 0
Info:       CELL FLUCTUATION IS ISOTROPIC
Info: PARTICLE MESH EWALD (PME) ACTIVE
Info: PME TOLERANCE               1e-06
Info: PME EWALD COEFFICIENT       0.348832
Info: PME INTERPOLATION ORDER     4
Info: PME GRID DIMENSIONS         36 36 40
Info: PME MAXIMUM GRID SPACING    1
Info: FULL ELECTROSTATIC EVALUATION FREQUENCY      2
Info: USING VERLET I (r-RESPA) MTS SCHEME.
Info: C1 SPLITTING OF LONG RANGE ELECTROSTATICS
Info: PLACING ATOMS IN PATCHES BY HYDROGEN GROUPS
Info: RIGID BONDS TO HYDROGEN : ALL
Info:         ERROR TOLERANCE : 1e-08
Info:          MAX ITERATIONS : 100
Info: RIGID WATER USING SETTLE ALGORITHM
Info: RANDOM NUMBER SEED     1743230872
Info: USE HYDROGEN BONDS?    NO
Info: Using AMBER format force field!
Info: AMBER PARM FILE        mobley_2457863.prmtop
Info: COORDINATE PDB         mobley_2457863.pdb
Info: Exclusions will be read from PARM file!
Info: SCNB (VDW SCALING)     2
Info: USING ARITHMETIC MEAN TO COMBINE L-J SIGMA PARAMETERS
Info: BINARY COORDINATES     mobley_2457863_min.coor
Info: SUMMARY OF PARAMETERS:
Info: 9 BONDS
Info: 8 ANGLES
Info:   8 HARMONIC
Info:   0 COSINE-BASED
Info: 4 DIHEDRAL
Info: 0 IMPROPER
Info: 0 CROSSTERM
Info: 0 VDW
Info: 36 VDW_PAIRS
Info: 0 NBTHOLE_PAIRS
Info: STRUCTURE SUMMARY:
Info: 2969 ATOMS
Info: 2969 BONDS
Info: 26 ANGLES
Info: 37 DIHEDRALS
Info: 0 IMPROPERS
Info: 0 CROSSTERMS
Info: 3023 EXCLUSIONS
Info: 2960 RIGID BONDS
Info: 5947 DEGREES OF FREEDOM
Info: 993 HYDROGEN GROUPS
Info: 4 ATOMS IN LARGEST HYDROGEN GROUP
Info: 993 MIGRATION GROUPS
Info: 4 ATOMS IN LARGEST MIGRATION GROUP
Info: TOTAL MASS = 17851.9 amu
Info: TOTAL CHARGE = 0.000200033 e
Info: MASS DENSITY = 0.677411 g/cm^3
Info: ATOM DENSITY = 0.0678452 atoms/A^3
Info: ADDED 0 IMPLICIT EXCLUSIONS
Info: NONBONDED TABLE R-SQUARED SPACING: 0.0625
Info: NONBONDED TABLE SIZE: 705 POINTS
Info: REMOVING COM VELOCITY -0.159543 0.0308819 0.174751
TCL: Running for 100000 steps
ETITLE: TS BOND ANGLE DIHED IMPRP ELECT VDW BOUNDARY MISC KINETIC TOTAL TEMP POTENTIAL TOTAL3 TEMPAVG PRESSURE GPRESSURE VOLUME PRESSAVG GPRESSAVG
ENERGY: 0 0.1651 0.6940 0.7557 0.0000 -13751.6712 2407.4493 0.0000 0.0000 1821.6522 -9520.9550 308.2889 -11342.6072 -9520.5899 308.2889 497.7285 532.2414 43761.3967 497.7285 532.2414
ENERGY: 100000 0.7425 0.9877 1.3199 0.0000 -14264.6966 2394.7330 0.0000 0.0000 179.9395 -11686.9739 30.4522 -11866.9135 -11686.4984 30.9336 -784.8544 -726.7450 28680.5587 4.4445 4.3913
TCL: Running 100000 steps at 60 kelvin.
TCL: Setting parameter langevinTemp to 60
TCL: Running for 100000 steps
ETITLE: TS BOND ANGLE DIHED IMPRP ELECT VDW BOUNDARY MISC KINETIC TOTAL TEMP POTENTIAL TOTAL3 TEMPAVG PRESSURE GPRESSURE VOLUME PRESSAVG GPRESSAVG
ENERGY: 100000 0.7425 0.9877 1.3199 0.0000 -14264.6966 2394.7330 0.0000 0.0000 179.8517 -11687.0618 30.4374 -11866.9135 -11686.6567 30.4374 -786.6091 -726.7171 28680.5587 -786.6091 -726.7171
ENERGY: 200000 0.5775 2.1665 1.7049 0.0000 -14188.4093 2442.9002 0.0000 0.0000 352.4605 -11388.5997 59.6490 -11741.0603 -11386.6939 59.9096 164.6334 229.4475 28742.7491 3.9750 4.0549
TCL: Running 100000 steps at 90 kelvin.
TCL: Setting parameter langevinTemp to 90
TCL: Running for 100000 steps
ETITLE: TS BOND ANGLE DIHED IMPRP ELECT VDW BOUNDARY MISC KINETIC TOTAL TEMP POTENTIAL TOTAL3 TEMPAVG PRESSURE GPRESSURE VOLUME PRESSAVG GPRESSAVG
ENERGY: 200000 0.5775 2.1665 1.7049 0.0000 -14188.4093 2442.9002 0.0000 0.0000 352.2879 -11388.7723 59.6198 -11741.0602 -11388.1085 59.6198 187.0106 230.0497 28742.7491 187.0106 230.0497
ENERGY: 300000 0.9467 2.7647 1.3537 0.0000 -14106.3999 2440.4805 0.0000 0.0000 545.7092 -11115.1451 92.3536 -11660.8544 -11114.4829 89.9700 587.0433 635.7351 28586.4020 6.3820 6.2438
TCL: Running 100000 steps at 120 kelvin.
TCL: Setting parameter langevinTemp to 120
TCL: Running for 100000 steps
ETITLE: TS BOND ANGLE DIHED IMPRP ELECT VDW BOUNDARY MISC KINETIC TOTAL TEMP POTENTIAL TOTAL3 TEMPAVG PRESSURE GPRESSURE VOLUME PRESSAVG GPRESSAVG
ENERGY: 300000 0.9467 2.7647 1.3537 0.0000 -14106.3999 2440.4805 0.0000 0.0000 545.4283 -11115.4260 92.3060 -11660.8544 -11114.5231 92.3060 593.4804 635.5752 28586.4020 593.4804 635.5752
ENERGY: 400000 2.7417 1.8221 1.1371 0.0000 -13835.4589 2295.3940 0.0000 0.0000 709.3622 -10825.0018 120.0495 -11534.3640 -10822.6391 119.5393 -313.5711 -259.9611 28974.4608 3.8201 3.8079
TCL: Running 100000 steps at 150 kelvin.
TCL: Setting parameter langevinTemp to 150
TCL: Running for 100000 steps
ETITLE: TS BOND ANGLE DIHED IMPRP ELECT VDW BOUNDARY MISC KINETIC TOTAL TEMP POTENTIAL TOTAL3 TEMPAVG PRESSURE GPRESSURE VOLUME PRESSAVG GPRESSAVG
ENERGY: 400000 2.7417 1.8221 1.1371 0.0000 -13835.4589 2295.3940 0.0000 0.0000 708.9988 -10825.3652 119.9880 -11534.3640 -10824.1795 119.9880 -313.0967 -259.5241 28974.4608 -313.0967 -259.5241
ENERGY: 500000 0.6983 1.5662 3.0006 0.0000 -13647.7138 2286.6653 0.0000 0.0000 886.1619 -10469.6216 149.9704 -11355.7835 -10467.3759 149.9537 189.0768 284.6791 29097.1876 2.8596 2.7881
TCL: Running 100000 steps at 180 kelvin.
TCL: Setting parameter langevinTemp to 180
TCL: Running for 100000 steps
ETITLE: TS BOND ANGLE DIHED IMPRP ELECT VDW BOUNDARY MISC KINETIC TOTAL TEMP POTENTIAL TOTAL3 TEMPAVG PRESSURE GPRESSURE VOLUME PRESSAVG GPRESSAVG
ENERGY: 500000 0.6983 1.5662 3.0006 0.0000 -13647.7138 2286.6653 0.0000 0.0000 885.7066 -10470.0769 149.8933 -11355.7835 -10467.9935 149.8933 228.5500 284.4316 29097.1876 228.5500 284.4316
ENERGY: 600000 1.0785 4.0039 4.7197 0.0000 -13231.7386 2068.2338 0.0000 0.0000 1013.3087 -10140.3940 171.4882 -11153.7027 -10137.5773 179.8093 -1021.6050 -955.4501 29314.2002 2.1697 2.2084
TCL: Running 100000 steps at 210 kelvin.
TCL: Setting parameter langevinTemp to 210
TCL: Running for 100000 steps
ETITLE: TS BOND ANGLE DIHED IMPRP ELECT VDW BOUNDARY MISC KINETIC TOTAL TEMP POTENTIAL TOTAL3 TEMPAVG PRESSURE GPRESSURE VOLUME PRESSAVG GPRESSAVG
ENERGY: 600000 1.0785 4.0039 4.7197 0.0000 -13231.7386 2068.2338 0.0000 0.0000 1012.7816 -10140.9211 171.3990 -11153.7027 -10138.3141 171.3990 -1009.3828 -955.6252 29314.2002 -1009.3828 -955.6252
ENERGY: 700000 1.6177 3.9551 3.4275 0.0000 -12407.0251 1800.2833 0.0000 0.0000 1224.0071 -9373.7345 207.1459 -10597.7416 -9372.0739 209.5662 -1073.5271 -985.5985 29411.3703 2.1547 2.2973
TCL: Running 100000 steps at 240 kelvin.
TCL: Setting parameter langevinTemp to 240
TCL: Running for 100000 steps
ETITLE: TS BOND ANGLE DIHED IMPRP ELECT VDW BOUNDARY MISC KINETIC TOTAL TEMP POTENTIAL TOTAL3 TEMPAVG PRESSURE GPRESSURE VOLUME PRESSAVG GPRESSAVG
ENERGY: 700000 1.6177 3.9551 3.4275 0.0000 -12407.0251 1800.2833 0.0000 0.0000 1223.3841 -9374.3575 207.0405 -10597.7416 -9371.6367 207.0405 -1063.8572 -986.9130 29411.3703 -1063.8572 -986.9130
ENERGY: 800000 1.9099 4.7625 5.3256 0.0000 -11830.0269 1680.8903 0.0000 0.0000 1454.1385 -8683.0001 246.0924 -10137.1386 -8678.7950 240.1847 -595.4491 -479.6812 29675.0550 3.1161 3.2671
TCL: Running 100000 steps at 270 kelvin.
TCL: Setting parameter langevinTemp to 270
TCL: Running for 100000 steps
ETITLE: TS BOND ANGLE DIHED IMPRP ELECT VDW BOUNDARY MISC KINETIC TOTAL TEMP POTENTIAL TOTAL3 TEMPAVG PRESSURE GPRESSURE VOLUME PRESSAVG GPRESSAVG
ENERGY: 800000 1.9099 4.7625 5.3256 0.0000 -11830.0269 1680.8903 0.0000 0.0000 1453.4355 -8683.7031 245.9734 -10137.1386 -8681.0826 245.9734 -570.7174 -480.0475 29675.0550 -570.7174 -480.0475
ENERGY: 900000 4.1714 5.9279 2.3518 0.0000 -11323.3432 1562.0217 0.0000 0.0000 1581.5816 -8167.2887 267.6604 -9748.8703 -8163.5991 270.8060 -269.0235 -141.5171 29569.8109 2.3678 2.3447
TCL: Running 1000000 steps at 300 kelvin.
TCL: Setting parameter langevinTemp to 300
TCL: Running for 1000000 steps
ETITLE: TS BOND ANGLE DIHED IMPRP ELECT VDW BOUNDARY MISC KINETIC TOTAL TEMP POTENTIAL TOTAL3 TEMPAVG PRESSURE GPRESSURE VOLUME PRESSAVG GPRESSAVG
ENERGY: 900000 4.1714 5.9279 2.3518 0.0000 -11323.3432 1562.0217 0.0000 0.0000 1580.7886 -8168.0817 267.5262 -9748.8703 -8165.7942 267.5262 -209.8417 -141.0191 29569.8109 -209.8417 -141.0191
ENERGY: 1100000 5.6591 2.6766 3.7800 0.0000 -11070.6027 1516.1343 0.0000 0.0000 1794.7261 -7747.6267 303.7320 -9542.3528 -7744.4254 300.5338 208.3636 240.3259 30113.0960 2.4465 2.3617
ENERGY: 1300000 4.2127 5.0907 1.9826 0.0000 -10722.9113 1411.0026 0.0000 0.0000 1763.2584 -7537.3642 298.4066 -9300.6226 -7535.4581 301.2240 49.8185 142.3753 30310.7196 4.0389 4.0296
ENERGY: 1500000 5.1819 4.2493 5.3524 0.0000 -10722.2097 1430.9543 0.0000 0.0000 1770.1294 -7506.3424 299.5694 -9276.4718 -7502.1963 299.9660 -179.4090 -111.2442 30497.3605 2.7460 2.8043
ENERGY: 1700000 2.8349 4.3334 5.9893 0.0000 -10802.6913 1502.2784 0.0000 0.0000 1772.2041 -7515.0513 299.9205 -9287.2554 -7514.0225 300.1526 270.6904 313.0387 31175.7834 3.2989 3.2388
ENERGY: 1900000 2.4088 6.8951 1.6407 0.0000 -10732.5944 1435.8639 0.0000 0.0000 1851.5867 -7434.1992 313.3549 -9285.7859 -7430.3474 300.6602 80.0402 205.6322 30672.3118 3.2905 3.2825
TCL: Exiting due to exit command.
