Info: SIMULATION PARAMETERS:
Info: TIMESTEP               2
Info: NUMBER OF STEPS        0
Info: STEPS PER CYCLE        10
Info: PERIODIC CELL BASIS 1  32.955 0 0
Info: PERIODIC CELL BASIS 2  0 35.411 0
Info: PERIODIC CELL BASIS 3  0 0 37.195
Info: PERIODIC CELL CENTER   0 0 0
Info: WRAPPING WATERS AROUND PERIODIC BOUNDARIES ON OUTPUT.
Info: WRAPPING ALL CLUSTERS AROUND PERIODIC BOUNDARIES ON OUTPUT.
Info: FIRST LDB TIMESTEP     50
Info: LAST LDB TIMESTEP     -1
Info: HOM BACKGROUND SCALING 1
Info: PME BACKGROUND SCALING 1
Info: MIN ATOMS PER PATCH    40
Info: EMPTY PATCH LOAD       40 ATOMS
Info: INITIAL TEMPERATURE    300
Info: CENTER OF MASS MOVING INITIALLY? NO
Info: DIELECTRIC             1
Info: EXCLUDE                SCALED ONE-FOUR
Info: 1-4 ELECTROSTATICS SCALED BY 0.833333
Info: MODIFIED 1-4 VDW PARAMETERS WILL BE USED
Info: DCD FILENAME           mobley_4893032_equil.dcd
Info: DCD FREQUENCY          100000
Info: DCD FIRST STEP         100000
Info: DCD FILE WILL CONTAIN UNIT CELL DATA
Info: XST FILENAME           mobley_4893032_equil.xst
Info: XST FREQUENCY          100000
Info: NO VELOCITY DCD OUTPUT
Info: NO FORCE DCD OUTPUT
Info: OUTPUT FILENAME        mobley_4893032_equil
Info: BINARY OUTPUT FILES WILL BE USED
Info: RESTART FILENAME       mobley_4893032_equil.restart
Info: RESTART FREQUENCY      100000
Info: BINARY RESTART FILES WILL BE USED
Info: CUTOFF                 9
Info: PAIRLIST DISTANCE      11
Info: PAIRLIST SHRINK RATE   0.01
Info: PAIRLIST GROW RATE     0.01
Info: PAIRLIST TRIGGER       0.3
Info: PAIRLISTS PER CYCLE    2
Info: PAIRLISTS ENABLED
Info: MARGIN                 8
Info: HYDROGEN GROUP CUTOFF  2.5
Info: PATCH DIMENSION        21.5
Info: ENERGY OUTPUT STEPS    100000
Info: ENERGY EVALUATION STEPS    100000
Info: OUTPUT ENERGY PRECISION 4
Info: CROSSTERM ENERGY INCLUDED IN DIHEDRAL
Info: TIMING OUTPUT STEPS    1000000
Info: PRESSURE OUTPUT STEPS  100000
Info: LANGEVIN DYNAMICS ACTIVE
Info: LANGEVIN TEMPERATURE   30
Info: LANGEVIN USING BBK INTEGRATOR
Info: LANGEVIN DAMPING COEFFICIENT IS 1 INVERSE PS
Info: LANGEVIN DYNAMICS APPLIED TO HYDROGENS
Info: LANGEVIN PISTON PRESSURE CONTROL ACTIVE
Info:        TARGET PRESSURE IS 1.01325 BAR
Info:     OSCILLATION PERIOD IS 50 FS
Info:             DECAY TIME IS 25 FS
Info:     PISTON TEMPERATURE IS 300 K
Info:       PRESSURE CONTROL IS GROUP-BASED
Info:    INITIAL STRAIN RATE IS 0 0 0
Info:       CELL FLUCTUATION IS ISOTROPIC
Info: PARTICLE MESH EWALD (PME) ACTIVE
Info: PME TOLERANCE               1e-06
Info: PME EWALD COEFFICIENT       0.348832
Info: PME INTERPOLATION ORDER     4
Info: PME GRID DIMENSIONS         36 36 40
Info: PME MAXIMUM GRID SPACING    1
Info: FULL ELECTROSTATIC EVALUATION FREQUENCY      2
Info: USING VERLET I (r-RESPA) MTS SCHEME.
Info: C1 SPLITTING OF LONG RANGE ELECTROSTATICS
Info: PLACING ATOMS IN PATCHES BY HYDROGEN GROUPS
Info: RIGID BONDS TO HYDROGEN : ALL
Info:         ERROR TOLERANCE : 1e-08
Info:          MAX ITERATIONS : 100
Info: RIGID WATER USING SETTLE ALGORITHM
Info: RANDOM NUMBER SEED     1743240193
Info: USE HYDROGEN BONDS?    NO
Info: Using AMBER format force field!
Info: AMBER PARM FILE        mobley_4893032.prmtop
Info: COORDINATE PDB         mobley_4893032.pdb
Info: Exclusions will be read from PARM file!
Info: SCNB (VDW SCALING)     2
Info: USING ARITHMETIC MEAN TO COMBINE L-J SIGMA PARAMETERS
Info: BINARY COORDINATES     mobley_4893032_min.coor
Info: SUMMARY OF PARAMETERS:
Info: 6 BONDS
Info: 6 ANGLES
Info: 7 DIHEDRAL
Info: 0 IMPROPER
Info: 0 CROSSTERM
Info: 0 VDW
Info: 21 VDW_PAIRS
Info: 0 NBTHOLE_PAIRS
Info: STRUCTURE SUMMARY:
Info: 2979 ATOMS
Info: 2978 BONDS
Info: 25 ANGLES
Info: 32 DIHEDRALS
Info: 0 IMPROPERS
Info: 0 CROSSTERMS
Info: 3033 EXCLUSIONS
Info: 2973 RIGID BONDS
Info: 5964 DEGREES OF FREEDOM
Info: 994 HYDROGEN GROUPS
Info: 4 ATOMS IN LARGEST HYDROGEN GROUP
Info: 994 MIGRATION GROUPS
Info: 4 ATOMS IN LARGEST MIGRATION GROUP
Info: TOTAL MASS = 17882.9 amu
Info: TOTAL CHARGE = -0.000300003 e
Info: MASS DENSITY = 0.684154 g/cm^3
Info: ATOM DENSITY = 0.068632 atoms/A^3
Info: ADDED 0 IMPLICIT EXCLUSIONS
Info: NONBONDED TABLE R-SQUARED SPACING: 0.0625
Info: NONBONDED TABLE SIZE: 705 POINTS
Info: REMOVING COM VELOCITY -0.0255379 -0.106789 -0.0179864
TCL: Running for 100000 steps
ETITLE: TS BOND ANGLE DIHED IMPRP ELECT VDW BOUNDARY MISC KINETIC TOTAL TEMP POTENTIAL TOTAL3 TEMPAVG PRESSURE GPRESSURE VOLUME PRESSAVG GPRESSAVG
ENERGY: 0 0.0195 0.1368 0.4537 0.0000 -13762.3628 2397.5123 0.0000 0.0000 1803.1396 -9561.1010 304.2861 -11364.2406 -9560.7539 304.2861 305.3733 344.7136 43405.4307 305.3733 344.7136
ENERGY: 100000 1.6008 0.6196 0.4597 0.0000 -14331.0480 2490.2781 0.0000 0.0000 179.3795 -11658.7102 30.2709 -11838.0897 -11658.1381 30.9276 -126.8180 -58.2268 29910.3302 4.5236 4.5020
TCL: Running 100000 steps at 60 kelvin.
TCL: Setting parameter langevinTemp to 60
TCL: Running for 100000 steps
ETITLE: TS BOND ANGLE DIHED IMPRP ELECT VDW BOUNDARY MISC KINETIC TOTAL TEMP POTENTIAL TOTAL3 TEMPAVG PRESSURE GPRESSURE VOLUME PRESSAVG GPRESSAVG
ENERGY: 100000 1.6008 0.6196 0.4597 0.0000 -14331.0480 2490.2781 0.0000 0.0000 179.2900 -11658.7997 30.2558 -11838.0897 -11658.5700 30.2558 -119.2091 -57.9754 29910.3302 -119.2091 -57.9754
ENERGY: 200000 0.7358 2.2863 0.6379 0.0000 -14302.3894 2537.9414 0.0000 0.0000 343.9437 -11416.8443 58.0417 -11760.7880 -11416.0777 60.0486 738.4528 783.1904 29282.9054 4.5781 4.6124
TCL: Running 100000 steps at 90 kelvin.
TCL: Setting parameter langevinTemp to 90
TCL: Running for 100000 steps
ETITLE: TS BOND ANGLE DIHED IMPRP ELECT VDW BOUNDARY MISC KINETIC TOTAL TEMP POTENTIAL TOTAL3 TEMPAVG PRESSURE GPRESSURE VOLUME PRESSAVG GPRESSAVG
ENERGY: 200000 0.7358 2.2863 0.6379 0.0000 -14302.3894 2537.9414 0.0000 0.0000 343.7710 -11417.0171 58.0126 -11760.7880 -11416.4621 58.0126 728.6477 783.0969 29282.9054 728.6477 783.0969
ENERGY: 300000 0.6049 1.7873 0.7167 0.0000 -13990.2017 2307.2572 0.0000 0.0000 538.2061 -11141.6296 90.8242 -11679.8357 -11140.6548 90.0404 -1125.7442 -1061.5740 29589.8893 3.5619 3.4502
TCL: Running 100000 steps at 120 kelvin.
TCL: Setting parameter langevinTemp to 120
TCL: Running for 100000 steps
ETITLE: TS BOND ANGLE DIHED IMPRP ELECT VDW BOUNDARY MISC KINETIC TOTAL TEMP POTENTIAL TOTAL3 TEMPAVG PRESSURE GPRESSURE VOLUME PRESSAVG GPRESSAVG
ENERGY: 300000 0.6049 1.7873 0.7167 0.0000 -13990.2017 2307.2572 0.0000 0.0000 537.9338 -11141.9019 90.7782 -11679.8357 -11140.6043 90.7782 -1120.5286 -1062.3654 29589.8893 -1120.5286 -1062.3654
ENERGY: 400000 3.3446 1.9064 1.0555 0.0000 -13856.4895 2291.1049 0.0000 0.0000 695.2747 -10863.8034 117.3300 -11559.0781 -10861.2504 120.2321 -844.0308 -771.4878 29575.0269 4.8337 4.8830
TCL: Running 100000 steps at 150 kelvin.
TCL: Setting parameter langevinTemp to 150
TCL: Running for 100000 steps
ETITLE: TS BOND ANGLE DIHED IMPRP ELECT VDW BOUNDARY MISC KINETIC TOTAL TEMP POTENTIAL TOTAL3 TEMPAVG PRESSURE GPRESSURE VOLUME PRESSAVG GPRESSAVG
ENERGY: 400000 3.3446 1.9064 1.0555 0.0000 -13856.4895 2291.1049 0.0000 0.0000 694.9156 -10864.1626 117.2694 -11559.0781 -10863.0104 117.2694 -834.0542 -770.0597 29575.0269 -834.0542 -770.0597
ENERGY: 500000 1.2996 3.5247 1.7861 0.0000 -13812.8399 2405.4447 0.0000 0.0000 902.8603 -10497.9246 152.3608 -11400.7849 -10495.5168 149.9724 1081.4117 1182.2089 29094.9326 2.7772 2.6858
TCL: Running 100000 steps at 180 kelvin.
TCL: Setting parameter langevinTemp to 180
TCL: Running for 100000 steps
ETITLE: TS BOND ANGLE DIHED IMPRP ELECT VDW BOUNDARY MISC KINETIC TOTAL TEMP POTENTIAL TOTAL3 TEMPAVG PRESSURE GPRESSURE VOLUME PRESSAVG GPRESSAVG
ENERGY: 500000 1.2996 3.5247 1.7861 0.0000 -13812.8399 2405.4447 0.0000 0.0000 902.4219 -10498.3629 152.2868 -11400.7849 -10496.9814 152.2868 1131.3386 1182.6104 29094.9326 1131.3386 1182.6104
ENERGY: 600000 0.1129 3.9109 0.8638 0.0000 -13197.1399 2155.1175 0.0000 0.0000 1072.6207 -9964.5141 181.0085 -11037.1349 -9961.9091 180.0733 210.3556 284.3158 29098.7170 3.3071 3.3208
TCL: Running 100000 steps at 210 kelvin.
TCL: Setting parameter langevinTemp to 210
TCL: Running for 100000 steps
ETITLE: TS BOND ANGLE DIHED IMPRP ELECT VDW BOUNDARY MISC KINETIC TOTAL TEMP POTENTIAL TOTAL3 TEMPAVG PRESSURE GPRESSURE VOLUME PRESSAVG GPRESSAVG
ENERGY: 600000 0.1129 3.9109 0.8638 0.0000 -13197.1399 2155.1175 0.0000 0.0000 1072.0827 -9965.0522 180.9177 -11037.1349 -9962.9610 180.9177 220.7887 284.3610 29098.7170 220.7887 284.3610
ENERGY: 700000 3.1193 5.0242 1.0751 0.0000 -12439.2649 1832.5150 0.0000 0.0000 1254.3608 -9343.1705 211.6777 -10597.5313 -9339.5052 210.3794 -878.5208 -758.8889 29128.5752 4.2659 4.3557
TCL: Running 100000 steps at 240 kelvin.
TCL: Setting parameter langevinTemp to 240
TCL: Running for 100000 steps
ETITLE: TS BOND ANGLE DIHED IMPRP ELECT VDW BOUNDARY MISC KINETIC TOTAL TEMP POTENTIAL TOTAL3 TEMPAVG PRESSURE GPRESSURE VOLUME PRESSAVG GPRESSAVG
ENERGY: 700000 3.1193 5.0242 1.0751 0.0000 -12439.2649 1832.5150 0.0000 0.0000 1253.7542 -9343.7771 211.5754 -10597.5313 -9341.4057 211.5754 -837.0082 -757.8928 29128.5752 -837.0082 -757.8928
ENERGY: 800000 2.4570 3.6691 0.5189 0.0000 -11829.6855 1669.5116 0.0000 0.0000 1460.8183 -8692.7106 246.5182 -10153.5289 -8689.1607 240.4170 -592.7407 -524.8604 29606.8322 3.4910 3.3942
TCL: Running 100000 steps at 270 kelvin.
TCL: Setting parameter langevinTemp to 270
TCL: Running for 100000 steps
ETITLE: TS BOND ANGLE DIHED IMPRP ELECT VDW BOUNDARY MISC KINETIC TOTAL TEMP POTENTIAL TOTAL3 TEMPAVG PRESSURE GPRESSURE VOLUME PRESSAVG GPRESSAVG
ENERGY: 800000 2.4570 3.6691 0.5189 0.0000 -11829.6855 1669.5116 0.0000 0.0000 1460.1189 -8693.4100 246.4002 -10153.5289 -8690.7607 246.4002 -611.6357 -524.9926 29606.8322 -611.6357 -524.9926
ENERGY: 900000 0.5434 6.7210 1.0848 0.0000 -11227.1057 1526.3056 0.0000 0.0000 1585.1003 -8107.3505 267.4912 -9692.4508 -8105.1627 270.1332 -322.0833 -158.9598 29907.5569 3.1508 3.1494
TCL: Running 1000000 steps at 300 kelvin.
TCL: Setting parameter langevinTemp to 300
TCL: Running for 1000000 steps
ETITLE: TS BOND ANGLE DIHED IMPRP ELECT VDW BOUNDARY MISC KINETIC TOTAL TEMP POTENTIAL TOTAL3 TEMPAVG PRESSURE GPRESSURE VOLUME PRESSAVG GPRESSAVG
ENERGY: 900000 0.5434 6.7210 1.0848 0.0000 -11227.1057 1526.3056 0.0000 0.0000 1584.2805 -8108.1703 267.3529 -9692.4508 -8106.1628 267.3529 -244.9105 -157.4813 29907.5569 -244.9105 -157.4813
ENERGY: 1100000 0.1316 4.9913 3.0129 0.0000 -10653.5887 1374.5430 0.0000 0.0000 1826.8670 -7444.0429 308.2902 -9270.9099 -7439.2411 299.8866 -230.7671 -148.4959 30605.1440 3.5338 3.5948
ENERGY: 1300000 0.5351 5.3093 1.7805 0.0000 -10847.9947 1481.6905 0.0000 0.0000 1762.2566 -7596.4227 297.3869 -9358.6793 -7593.2997 300.7840 127.1872 209.1007 30768.4102 3.3245 3.1562
ENERGY: 1500000 2.9279 9.1176 0.8055 0.0000 -10774.6693 1457.1523 0.0000 0.0000 1771.8918 -7532.7741 299.0129 -9304.6659 -7532.1283 300.0449 150.4024 296.0677 30394.0459 2.3779 2.6341
ENERGY: 1700000 1.5406 10.4396 0.7272 0.0000 -10734.0323 1372.5887 0.0000 0.0000 1793.2960 -7555.4402 302.6250 -9348.7362 -7551.3703 300.4213 -398.7015 -345.5384 30495.1210 4.3603 4.3542
ENERGY: 1900000 1.4937 8.3559 0.6434 0.0000 -10684.2266 1368.2329 0.0000 0.0000 1772.9048 -7532.5960 299.1839 -9305.5008 -7530.6799 301.5452 -509.0730 -429.9915 30640.8117 3.6775 3.7408
TCL: Exiting due to exit command.
