Info: SIMULATION PARAMETERS:
Info: TIMESTEP               2
Info: NUMBER OF STEPS        0
Info: STEPS PER CYCLE        10
Info: PERIODIC CELL BASIS 1  36.281 0 0
Info: PERIODIC CELL BASIS 2  0 34.26 0
Info: PERIODIC CELL BASIS 3  0 0 35.723
Info: PERIODIC CELL CENTER   0 0 0
Info: WRAPPING WATERS AROUND PERIODIC BOUNDARIES ON OUTPUT.
Info: WRAPPING ALL CLUSTERS AROUND PERIODIC BOUNDARIES ON OUTPUT.
Info: FIRST LDB TIMESTEP     50
Info: LAST LDB TIMESTEP     -1
Info: HOM BACKGROUND SCALING 1
Info: PME BACKGROUND SCALING 1
Info: MIN ATOMS PER PATCH    40
Info: EMPTY PATCH LOAD       40 ATOMS
Info: INITIAL TEMPERATURE    300
Info: CENTER OF MASS MOVING INITIALLY? NO
Info: DIELECTRIC             1
Info: EXCLUDE                SCALED ONE-FOUR
Info: 1-4 ELECTROSTATICS SCALED BY 0.833333
Info: MODIFIED 1-4 VDW PARAMETERS WILL BE USED
Info: DCD FILENAME           mobley_7794077_equil.dcd
Info: DCD FREQUENCY          100000
Info: DCD FIRST STEP         100000
Info: DCD FILE WILL CONTAIN UNIT CELL DATA
Info: XST FILENAME           mobley_7794077_equil.xst
Info: XST FREQUENCY          100000
Info: NO VELOCITY DCD OUTPUT
Info: NO FORCE DCD OUTPUT
Info: OUTPUT FILENAME        mobley_7794077_equil
Info: BINARY OUTPUT FILES WILL BE USED
Info: RESTART FILENAME       mobley_7794077_equil.restart
Info: RESTART FREQUENCY      100000
Info: BINARY RESTART FILES WILL BE USED
Info: CUTOFF                 9
Info: PAIRLIST DISTANCE      11
Info: PAIRLIST SHRINK RATE   0.01
Info: PAIRLIST GROW RATE     0.01
Info: PAIRLIST TRIGGER       0.3
Info: PAIRLISTS PER CYCLE    2
Info: PAIRLISTS ENABLED
Info: MARGIN                 8
Info: HYDROGEN GROUP CUTOFF  2.5
Info: PATCH DIMENSION        21.5
Info: ENERGY OUTPUT STEPS    100000
Info: ENERGY EVALUATION STEPS    100000
Info: OUTPUT ENERGY PRECISION 4
Info: CROSSTERM ENERGY INCLUDED IN DIHEDRAL
Info: TIMING OUTPUT STEPS    1000000
Info: PRESSURE OUTPUT STEPS  100000
Info: LANGEVIN DYNAMICS ACTIVE
Info: LANGEVIN TEMPERATURE   30
Info: LANGEVIN USING BBK INTEGRATOR
Info: LANGEVIN DAMPING COEFFICIENT IS 1 INVERSE PS
Info: LANGEVIN DYNAMICS APPLIED TO HYDROGENS
Info: LANGEVIN PISTON PRESSURE CONTROL ACTIVE
Info:        TARGET PRESSURE IS 1.01325 BAR
Info:     OSCILLATION PERIOD IS 50 FS
Info:             DECAY TIME IS 25 FS
Info:     PISTON TEMPERATURE IS 300 K
Info:       PRESSURE CONTROL IS GROUP-BASED
Info:    INITIAL STRAIN RATE IS 0 0 0
Info:       CELL FLUCTUATION IS ISOTROPIC
Info: PARTICLE MESH EWALD (PME) ACTIVE
Info: PME TOLERANCE               1e-06
Info: PME EWALD COEFFICIENT       0.348832
Info: PME INTERPOLATION ORDER     4
Info: PME GRID DIMENSIONS         40 36 36
Info: PME MAXIMUM GRID SPACING    1
Info: FULL ELECTROSTATIC EVALUATION FREQUENCY      2
Info: USING VERLET I (r-RESPA) MTS SCHEME.
Info: C1 SPLITTING OF LONG RANGE ELECTROSTATICS
Info: PLACING ATOMS IN PATCHES BY HYDROGEN GROUPS
Info: RIGID BONDS TO HYDROGEN : ALL
Info:         ERROR TOLERANCE : 1e-08
Info:          MAX ITERATIONS : 100
Info: RIGID WATER USING SETTLE ALGORITHM
Info: RANDOM NUMBER SEED     1743212125
Info: USE HYDROGEN BONDS?    NO
Info: Using AMBER format force field!
Info: AMBER PARM FILE        mobley_7794077.prmtop
Info: COORDINATE PDB         mobley_7794077.pdb
Info: Exclusions will be read from PARM file!
Info: SCNB (VDW SCALING)     2
Info: USING ARITHMETIC MEAN TO COMBINE L-J SIGMA PARAMETERS
Info: BINARY COORDINATES     mobley_7794077_min.coor
Info: SUMMARY OF PARAMETERS:
Info: 11 BONDS
Info: 16 ANGLES
Info:   16 HARMONIC
Info:   0 COSINE-BASED
Info: 8 DIHEDRAL
Info: 0 IMPROPER
Info: 0 CROSSTERM
Info: 0 VDW
Info: 45 VDW_PAIRS
Info: 0 NBTHOLE_PAIRS
Info: STRUCTURE SUMMARY:
Info: 2964 ATOMS
Info: 2964 BONDS
Info: 24 ANGLES
Info: 39 DIHEDRALS
Info: 0 IMPROPERS
Info: 0 CROSSTERMS
Info: 3015 EXCLUSIONS
Info: 2952 RIGID BONDS
Info: 5940 DEGREES OF FREEDOM
Info: 995 HYDROGEN GROUPS
Info: 3 ATOMS IN LARGEST HYDROGEN GROUP
Info: 995 MIGRATION GROUPS
Info: 3 ATOMS IN LARGEST MIGRATION GROUP
Info: TOTAL MASS = 17889.8 amu
Info: TOTAL CHARGE = 9.98527e-05 e
Info: MASS DENSITY = 0.669038 g/cm^3
Info: ATOM DENSITY = 0.0667519 atoms/A^3
Info: ADDED 0 IMPLICIT EXCLUSIONS
Info: NONBONDED TABLE R-SQUARED SPACING: 0.0625
Info: NONBONDED TABLE SIZE: 705 POINTS
Info: REMOVING COM VELOCITY 0.00866242 0.0735987 0.143718
TCL: Running for 100000 steps
ETITLE: TS BOND ANGLE DIHED IMPRP ELECT VDW BOUNDARY MISC KINETIC TOTAL TEMP POTENTIAL TOTAL3 TEMPAVG PRESSURE GPRESSURE VOLUME PRESSAVG GPRESSAVG
ENERGY: 0 0.6455 1.1531 12.2854 0.0000 -13883.8938 2400.7996 0.0000 0.0000 1768.7674 -9700.2429 299.6917 -11469.0103 -9699.8987 299.6917 387.1582 412.8095 44403.2267 387.1582 412.8095
ENERGY: 100000 1.2323 1.8207 12.5741 0.0000 -14533.9496 2543.4341 0.0000 0.0000 172.3662 -11802.5222 29.2049 -11974.8884 -11802.1858 30.9713 513.9428 565.1908 29331.4863 2.5792 2.5905
TCL: Running 100000 steps at 60 kelvin.
TCL: Setting parameter langevinTemp to 60
TCL: Running for 100000 steps
ETITLE: TS BOND ANGLE DIHED IMPRP ELECT VDW BOUNDARY MISC KINETIC TOTAL TEMP POTENTIAL TOTAL3 TEMPAVG PRESSURE GPRESSURE VOLUME PRESSAVG GPRESSAVG
ENERGY: 100000 1.2323 1.8207 12.5741 0.0000 -14533.9496 2543.4341 0.0000 0.0000 172.2802 -11802.6082 29.1904 -11974.8884 -11802.1791 29.1904 500.2321 565.1075 29331.4863 500.2321 565.1075
ENERGY: 200000 1.9100 1.4957 13.1219 0.0000 -14447.2259 2502.8613 0.0000 0.0000 360.1910 -11567.6460 61.0291 -11927.8370 -11566.5986 60.0253 577.4451 625.2795 28735.1984 3.3752 3.4483
TCL: Running 100000 steps at 90 kelvin.
TCL: Setting parameter langevinTemp to 90
TCL: Running for 100000 steps
ETITLE: TS BOND ANGLE DIHED IMPRP ELECT VDW BOUNDARY MISC KINETIC TOTAL TEMP POTENTIAL TOTAL3 TEMPAVG PRESSURE GPRESSURE VOLUME PRESSAVG GPRESSAVG
ENERGY: 200000 1.9100 1.4957 13.1219 0.0000 -14447.2259 2502.8613 0.0000 0.0000 360.0200 -11567.8170 61.0001 -11927.8370 -11567.0606 61.0001 562.4513 625.5726 28735.1984 562.4513 625.5726
ENERGY: 300000 2.4628 2.1829 13.1145 0.0000 -14041.3041 2197.4816 0.0000 0.0000 527.9282 -11298.1341 89.4497 -11826.0624 -11296.6234 89.9208 -1825.4192 -1769.2460 29111.3475 4.3761 4.4833
TCL: Running 100000 steps at 120 kelvin.
TCL: Setting parameter langevinTemp to 120
TCL: Running for 100000 steps
ETITLE: TS BOND ANGLE DIHED IMPRP ELECT VDW BOUNDARY MISC KINETIC TOTAL TEMP POTENTIAL TOTAL3 TEMPAVG PRESSURE GPRESSURE VOLUME PRESSAVG GPRESSAVG
ENERGY: 300000 2.4628 2.1829 13.1145 0.0000 -14041.3041 2197.4816 0.0000 0.0000 527.6593 -11298.4031 89.4041 -11826.0624 -11296.9571 89.4041 -1816.9323 -1769.4277 29111.3475 -1816.9323 -1769.4277
ENERGY: 400000 1.1437 2.1869 12.8880 0.0000 -14139.6051 2389.5149 0.0000 0.0000 723.0032 -11010.8684 122.5023 -11733.8715 -11008.7001 120.0261 342.4000 381.5623 28607.4283 4.8925 4.9308
TCL: Running 100000 steps at 150 kelvin.
TCL: Setting parameter langevinTemp to 150
TCL: Running for 100000 steps
ETITLE: TS BOND ANGLE DIHED IMPRP ELECT VDW BOUNDARY MISC KINETIC TOTAL TEMP POTENTIAL TOTAL3 TEMPAVG PRESSURE GPRESSURE VOLUME PRESSAVG GPRESSAVG
ENERGY: 400000 1.1437 2.1869 12.8880 0.0000 -14139.6051 2389.5149 0.0000 0.0000 722.6391 -11011.2324 122.4406 -11733.8715 -11009.9914 122.4406 332.6698 381.6263 28607.4283 332.6698 381.6263
ENERGY: 500000 4.3502 2.6605 13.2366 0.0000 -13797.3381 2261.8118 0.0000 0.0000 865.7416 -10649.5374 146.6872 -11515.2790 -10647.6273 149.8873 158.9196 267.8388 28819.6848 4.0046 4.0990
TCL: Running 100000 steps at 180 kelvin.
TCL: Setting parameter langevinTemp to 180
TCL: Running for 100000 steps
ETITLE: TS BOND ANGLE DIHED IMPRP ELECT VDW BOUNDARY MISC KINETIC TOTAL TEMP POTENTIAL TOTAL3 TEMPAVG PRESSURE GPRESSURE VOLUME PRESSAVG GPRESSAVG
ENERGY: 500000 4.3502 2.6605 13.2366 0.0000 -13797.3381 2261.8118 0.0000 0.0000 865.2931 -10649.9859 146.6112 -11515.2790 -10648.4001 146.6112 215.0757 268.4694 28819.6848 215.0757 268.4694
ENERGY: 600000 1.7299 2.0956 13.5723 0.0000 -13379.7994 2128.7261 0.0000 0.0000 1060.1016 -10173.5739 179.6187 -11233.6755 -10168.6825 179.7470 50.5520 105.2717 28996.3391 2.5109 2.4996
TCL: Running 100000 steps at 210 kelvin.
TCL: Setting parameter langevinTemp to 210
TCL: Running for 100000 steps
ETITLE: TS BOND ANGLE DIHED IMPRP ELECT VDW BOUNDARY MISC KINETIC TOTAL TEMP POTENTIAL TOTAL3 TEMPAVG PRESSURE GPRESSURE VOLUME PRESSAVG GPRESSAVG
ENERGY: 600000 1.7299 2.0956 13.5723 0.0000 -13379.7994 2128.7261 0.0000 0.0000 1059.5501 -10174.1253 179.5252 -11233.6755 -10172.3031 179.5252 46.9955 107.5767 28996.3391 46.9955 107.5767
ENERGY: 700000 2.6454 4.5941 13.5263 0.0000 -12836.1552 2018.8334 0.0000 0.0000 1239.1230 -9557.4331 209.9512 -10796.5560 -9554.9029 209.9133 1039.9456 1134.1717 28647.2582 2.9529 3.0153
TCL: Running 100000 steps at 240 kelvin.
TCL: Setting parameter langevinTemp to 240
TCL: Running for 100000 steps
ETITLE: TS BOND ANGLE DIHED IMPRP ELECT VDW BOUNDARY MISC KINETIC TOTAL TEMP POTENTIAL TOTAL3 TEMPAVG PRESSURE GPRESSURE VOLUME PRESSAVG GPRESSAVG
ENERGY: 700000 2.6454 4.5941 13.5263 0.0000 -12836.1552 2018.8334 0.0000 0.0000 1238.5096 -9558.0464 209.8473 -10796.5560 -9556.2744 209.8473 1040.2237 1134.4879 28647.2582 1040.2237 1134.4879
ENERGY: 800000 4.2391 3.7055 14.2797 0.0000 -11902.4276 1626.1398 0.0000 0.0000 1402.8232 -8851.2403 237.6878 -10254.0635 -8847.0976 240.1022 -323.2594 -274.6187 29076.2432 2.6977 2.5664
TCL: Running 100000 steps at 270 kelvin.
TCL: Setting parameter langevinTemp to 270
TCL: Running for 100000 steps
ETITLE: TS BOND ANGLE DIHED IMPRP ELECT VDW BOUNDARY MISC KINETIC TOTAL TEMP POTENTIAL TOTAL3 TEMPAVG PRESSURE GPRESSURE VOLUME PRESSAVG GPRESSAVG
ENERGY: 800000 4.2391 3.7055 14.2797 0.0000 -11902.4276 1626.1398 0.0000 0.0000 1402.1403 -8851.9232 237.5721 -10254.0635 -8849.3175 237.5721 -350.6454 -273.4722 29076.2432 -350.6454 -273.4722
ENERGY: 900000 2.9445 4.8802 14.7587 0.0000 -11561.4307 1647.4324 0.0000 0.0000 1592.5489 -8298.8660 269.8340 -9891.4149 -8296.6032 270.2381 877.1001 934.4717 29334.5138 4.2810 4.4131
TCL: Running 1000000 steps at 300 kelvin.
TCL: Setting parameter langevinTemp to 300
TCL: Running for 1000000 steps
ETITLE: TS BOND ANGLE DIHED IMPRP ELECT VDW BOUNDARY MISC KINETIC TOTAL TEMP POTENTIAL TOTAL3 TEMPAVG PRESSURE GPRESSURE VOLUME PRESSAVG GPRESSAVG
ENERGY: 900000 2.9445 4.8802 14.7587 0.0000 -11561.4307 1647.4324 0.0000 0.0000 1591.7735 -8299.6414 269.7026 -9891.4149 -8297.4349 269.7026 854.1418 933.3298 29334.5138 854.1418 933.3298
ENERGY: 1100000 5.7282 8.2831 17.8857 0.0000 -11109.7387 1451.6042 0.0000 0.0000 1738.6095 -7887.6280 294.5819 -9626.2375 -7882.0166 300.3701 -127.5887 -88.2198 30332.0807 3.6884 3.7641
ENERGY: 1300000 3.3396 4.1010 14.3909 0.0000 -11057.5578 1438.7764 0.0000 0.0000 1742.1761 -7854.7737 295.1862 -9596.9498 -7849.6715 300.8008 -263.8148 -199.7535 30485.9424 2.8124 2.7919
ENERGY: 1500000 2.8812 8.2150 14.3144 0.0000 -11027.3481 1450.3185 0.0000 0.0000 1740.9620 -7810.6569 294.9805 -9551.6189 -7808.9415 300.1460 61.0881 152.1036 30222.1820 3.6272 3.6672
ENERGY: 1700000 4.2564 6.1114 13.7822 0.0000 -11231.9528 1584.8676 0.0000 0.0000 1783.5415 -7839.3938 302.1949 -9622.9353 -7837.6254 300.2268 974.2068 1015.9566 30189.7650 3.4086 3.6352
ENERGY: 1900000 2.1884 8.2852 14.1126 0.0000 -10994.3406 1422.7735 0.0000 0.0000 1710.8655 -7836.1154 289.8810 -9546.9809 -7834.3665 300.0151 -448.3014 -379.0787 30725.7045 3.1846 2.9985
TCL: Exiting due to exit command.
