Info: SIMULATION PARAMETERS:
Info: TIMESTEP               2
Info: NUMBER OF STEPS        0
Info: STEPS PER CYCLE        10
Info: PERIODIC CELL BASIS 1  37.133 0 0
Info: PERIODIC CELL BASIS 2  0 34.26 0
Info: PERIODIC CELL BASIS 3  0 0 34.471
Info: PERIODIC CELL CENTER   0 0 0
Info: WRAPPING WATERS AROUND PERIODIC BOUNDARIES ON OUTPUT.
Info: WRAPPING ALL CLUSTERS AROUND PERIODIC BOUNDARIES ON OUTPUT.
Info: FIRST LDB TIMESTEP     50
Info: LAST LDB TIMESTEP     -1
Info: HOM BACKGROUND SCALING 1
Info: PME BACKGROUND SCALING 1
Info: MIN ATOMS PER PATCH    40
Info: EMPTY PATCH LOAD       40 ATOMS
Info: INITIAL TEMPERATURE    300
Info: CENTER OF MASS MOVING INITIALLY? NO
Info: DIELECTRIC             1
Info: EXCLUDE                SCALED ONE-FOUR
Info: 1-4 ELECTROSTATICS SCALED BY 0.833333
Info: MODIFIED 1-4 VDW PARAMETERS WILL BE USED
Info: DCD FILENAME           mobley_4792268_equil.dcd
Info: DCD FREQUENCY          100000
Info: DCD FIRST STEP         100000
Info: DCD FILE WILL CONTAIN UNIT CELL DATA
Info: XST FILENAME           mobley_4792268_equil.xst
Info: XST FREQUENCY          100000
Info: NO VELOCITY DCD OUTPUT
Info: NO FORCE DCD OUTPUT
Info: OUTPUT FILENAME        mobley_4792268_equil
Info: BINARY OUTPUT FILES WILL BE USED
Info: RESTART FILENAME       mobley_4792268_equil.restart
Info: RESTART FREQUENCY      100000
Info: BINARY RESTART FILES WILL BE USED
Info: CUTOFF                 9
Info: PAIRLIST DISTANCE      11
Info: PAIRLIST SHRINK RATE   0.01
Info: PAIRLIST GROW RATE     0.01
Info: PAIRLIST TRIGGER       0.3
Info: PAIRLISTS PER CYCLE    2
Info: PAIRLISTS ENABLED
Info: MARGIN                 8
Info: HYDROGEN GROUP CUTOFF  2.5
Info: PATCH DIMENSION        21.5
Info: ENERGY OUTPUT STEPS    100000
Info: ENERGY EVALUATION STEPS    100000
Info: OUTPUT ENERGY PRECISION 4
Info: CROSSTERM ENERGY INCLUDED IN DIHEDRAL
Info: TIMING OUTPUT STEPS    1000000
Info: PRESSURE OUTPUT STEPS  100000
Info: LANGEVIN DYNAMICS ACTIVE
Info: LANGEVIN TEMPERATURE   30
Info: LANGEVIN USING BBK INTEGRATOR
Info: LANGEVIN DAMPING COEFFICIENT IS 1 INVERSE PS
Info: LANGEVIN DYNAMICS APPLIED TO HYDROGENS
Info: LANGEVIN PISTON PRESSURE CONTROL ACTIVE
Info:        TARGET PRESSURE IS 1.01325 BAR
Info:     OSCILLATION PERIOD IS 50 FS
Info:             DECAY TIME IS 25 FS
Info:     PISTON TEMPERATURE IS 300 K
Info:       PRESSURE CONTROL IS GROUP-BASED
Info:    INITIAL STRAIN RATE IS 0 0 0
Info:       CELL FLUCTUATION IS ISOTROPIC
Info: PARTICLE MESH EWALD (PME) ACTIVE
Info: PME TOLERANCE               1e-06
Info: PME EWALD COEFFICIENT       0.348832
Info: PME INTERPOLATION ORDER     4
Info: PME GRID DIMENSIONS         40 36 36
Info: PME MAXIMUM GRID SPACING    1
Info: FULL ELECTROSTATIC EVALUATION FREQUENCY      2
Info: USING VERLET I (r-RESPA) MTS SCHEME.
Info: C1 SPLITTING OF LONG RANGE ELECTROSTATICS
Info: PLACING ATOMS IN PATCHES BY HYDROGEN GROUPS
Info: RIGID BONDS TO HYDROGEN : ALL
Info:         ERROR TOLERANCE : 1e-08
Info:          MAX ITERATIONS : 100
Info: RIGID WATER USING SETTLE ALGORITHM
Info: RANDOM NUMBER SEED     1743253473
Info: USE HYDROGEN BONDS?    NO
Info: Using AMBER format force field!
Info: AMBER PARM FILE        mobley_4792268.prmtop
Info: COORDINATE PDB         mobley_4792268.pdb
Info: Exclusions will be read from PARM file!
Info: SCNB (VDW SCALING)     2
Info: USING ARITHMETIC MEAN TO COMBINE L-J SIGMA PARAMETERS
Info: BINARY COORDINATES     mobley_4792268_min.coor
Info: SUMMARY OF PARAMETERS:
Info: 8 BONDS
Info: 9 ANGLES
Info:   9 HARMONIC
Info:   0 COSINE-BASED
Info: 13 DIHEDRAL
Info: 0 IMPROPER
Info: 0 CROSSTERM
Info: 0 VDW
Info: 28 VDW_PAIRS
Info: 0 NBTHOLE_PAIRS
Info: STRUCTURE SUMMARY:
Info: 2933 ATOMS
Info: 2932 BONDS
Info: 28 ANGLES
Info: 43 DIHEDRALS
Info: 0 IMPROPERS
Info: 0 CROSSTERMS
Info: 2995 EXCLUSIONS
Info: 2926 RIGID BONDS
Info: 5873 DEGREES OF FREEDOM
Info: 979 HYDROGEN GROUPS
Info: 4 ATOMS IN LARGEST HYDROGEN GROUP
Info: 979 MIGRATION GROUPS
Info: 4 ATOMS IN LARGEST MIGRATION GROUP
Info: TOTAL MASS = 17613.7 amu
Info: TOTAL CHARGE = 0.000100005 e
Info: MASS DENSITY = 0.666973 g/cm^3
Info: ATOM DENSITY = 0.0668822 atoms/A^3
Info: ADDED 0 IMPLICIT EXCLUSIONS
Info: NONBONDED TABLE R-SQUARED SPACING: 0.0625
Info: NONBONDED TABLE SIZE: 705 POINTS
Info: REMOVING COM VELOCITY -0.147173 0.0598992 0.230584
TCL: Running for 100000 steps
ETITLE: TS BOND ANGLE DIHED IMPRP ELECT VDW BOUNDARY MISC KINETIC TOTAL TEMP POTENTIAL TOTAL3 TEMPAVG PRESSURE GPRESSURE VOLUME PRESSAVG GPRESSAVG
ENERGY: 0 0.0845 0.3956 1.3267 0.0000 -13564.8028 2352.1144 0.0000 0.0000 1777.2985 -9433.5831 304.5726 -11210.8816 -9433.2402 304.5726 171.5371 204.4642 43853.1989 171.5371 204.4642
ENERGY: 100000 0.4380 1.4304 1.9200 0.0000 -13984.0313 2319.1070 0.0000 0.0000 179.2454 -11481.8904 30.7170 -11661.1358 -11481.6110 30.8869 -993.6297 -934.0336 29514.3768 3.8493 3.8294
TCL: Running 100000 steps at 60 kelvin.
TCL: Setting parameter langevinTemp to 60
TCL: Running for 100000 steps
ETITLE: TS BOND ANGLE DIHED IMPRP ELECT VDW BOUNDARY MISC KINETIC TOTAL TEMP POTENTIAL TOTAL3 TEMPAVG PRESSURE GPRESSURE VOLUME PRESSAVG GPRESSAVG
ENERGY: 100000 0.4380 1.4304 1.9200 0.0000 -13984.0313 2319.1070 0.0000 0.0000 179.1611 -11481.9746 30.7025 -11661.1358 -11481.5300 30.7025 -989.4051 -934.1270 29514.3768 -989.4051 -934.1270
ENERGY: 200000 0.2792 1.9628 1.5945 0.0000 -14024.1202 2415.9796 0.0000 0.0000 353.4493 -11250.8550 60.5700 -11604.3043 -11249.8722 59.9662 20.6160 71.3501 29257.4862 4.4646 4.4318
TCL: Running 100000 steps at 90 kelvin.
TCL: Setting parameter langevinTemp to 90
TCL: Running for 100000 steps
ETITLE: TS BOND ANGLE DIHED IMPRP ELECT VDW BOUNDARY MISC KINETIC TOTAL TEMP POTENTIAL TOTAL3 TEMPAVG PRESSURE GPRESSURE VOLUME PRESSAVG GPRESSAVG
ENERGY: 200000 0.2792 1.9628 1.5945 0.0000 -14024.1202 2415.9796 0.0000 0.0000 353.2776 -11251.0267 60.5406 -11604.3043 -11250.2596 60.5406 14.2564 71.5097 29257.4862 14.2564 71.5097
ENERGY: 300000 0.4510 4.1049 2.5459 0.0000 -13688.2471 2190.2334 0.0000 0.0000 520.4655 -10970.4463 89.1913 -11490.9118 -10969.4956 89.9261 -1381.2378 -1345.9828 28990.8921 4.6506 4.6228
TCL: Running 100000 steps at 120 kelvin.
TCL: Setting parameter langevinTemp to 120
TCL: Running for 100000 steps
ETITLE: TS BOND ANGLE DIHED IMPRP ELECT VDW BOUNDARY MISC KINETIC TOTAL TEMP POTENTIAL TOTAL3 TEMPAVG PRESSURE GPRESSURE VOLUME PRESSAVG GPRESSAVG
ENERGY: 300000 0.4510 4.1049 2.5459 0.0000 -13688.2471 2190.2334 0.0000 0.0000 520.2082 -10970.7036 89.1472 -11490.9118 -10969.6054 89.1472 -1419.3088 -1346.4419 28990.8921 -1419.3088 -1346.4419
ENERGY: 400000 1.3032 2.6313 1.6667 0.0000 -13653.9803 2264.8946 0.0000 0.0000 718.4166 -10665.0678 123.1138 -11383.4844 -10663.3232 119.9798 -168.2170 -101.7065 28863.6073 4.8170 4.6946
TCL: Running 100000 steps at 150 kelvin.
TCL: Setting parameter langevinTemp to 150
TCL: Running for 100000 steps
ETITLE: TS BOND ANGLE DIHED IMPRP ELECT VDW BOUNDARY MISC KINETIC TOTAL TEMP POTENTIAL TOTAL3 TEMPAVG PRESSURE GPRESSURE VOLUME PRESSAVG GPRESSAVG
ENERGY: 400000 1.3032 2.6313 1.6667 0.0000 -13653.9803 2264.8946 0.0000 0.0000 718.0706 -10665.4139 123.0545 -11383.4844 -10663.8166 123.0545 -173.3089 -101.0203 28863.6073 -173.3089 -101.0203
ENERGY: 500000 1.4673 2.4138 1.4067 0.0000 -13431.3407 2159.2092 0.0000 0.0000 884.4894 -10382.3542 151.5734 -11266.8435 -10381.2159 150.2418 -505.1110 -480.9073 28191.1437 4.0774 4.0901
TCL: Running 100000 steps at 180 kelvin.
TCL: Setting parameter langevinTemp to 180
TCL: Running for 100000 steps
ETITLE: TS BOND ANGLE DIHED IMPRP ELECT VDW BOUNDARY MISC KINETIC TOTAL TEMP POTENTIAL TOTAL3 TEMPAVG PRESSURE GPRESSURE VOLUME PRESSAVG GPRESSAVG
ENERGY: 500000 1.4673 2.4138 1.4067 0.0000 -13431.3407 2159.2092 0.0000 0.0000 884.0640 -10382.7795 151.5005 -11266.8435 -10380.9484 151.5005 -543.7405 -482.2307 28191.1437 -543.7405 -482.2307
ENERGY: 600000 0.9699 3.9697 3.8559 0.0000 -13118.0242 2191.6577 0.0000 0.0000 1061.6091 -9855.9620 181.9261 -10917.5711 -9854.7470 180.1588 690.7487 734.8356 28991.5545 3.1936 3.2822
TCL: Running 100000 steps at 210 kelvin.
TCL: Setting parameter langevinTemp to 210
TCL: Running for 100000 steps
ETITLE: TS BOND ANGLE DIHED IMPRP ELECT VDW BOUNDARY MISC KINETIC TOTAL TEMP POTENTIAL TOTAL3 TEMPAVG PRESSURE GPRESSURE VOLUME PRESSAVG GPRESSAVG
ENERGY: 600000 0.9699 3.9697 3.8559 0.0000 -13118.0242 2191.6577 0.0000 0.0000 1061.1107 -9856.4604 181.8407 -10917.5711 -9854.3197 181.8407 674.9046 733.5535 28991.5545 674.9046 733.5535
ENERGY: 700000 0.9373 3.9173 2.5933 0.0000 -12323.2664 1797.4867 0.0000 0.0000 1286.8525 -9231.4793 220.5257 -10518.3317 -9227.2659 210.0872 -593.0592 -531.0057 28580.8677 4.5520 4.4992
TCL: Running 100000 steps at 240 kelvin.
TCL: Setting parameter langevinTemp to 240
TCL: Running for 100000 steps
ETITLE: TS BOND ANGLE DIHED IMPRP ELECT VDW BOUNDARY MISC KINETIC TOTAL TEMP POTENTIAL TOTAL3 TEMPAVG PRESSURE GPRESSURE VOLUME PRESSAVG GPRESSAVG
ENERGY: 700000 0.9373 3.9173 2.5933 0.0000 -12323.2664 1797.4867 0.0000 0.0000 1286.2446 -9232.0871 220.4215 -10518.3317 -9229.2452 220.4215 -596.1442 -530.5944 28580.8677 -596.1442 -530.5944
ENERGY: 800000 3.1697 3.9730 2.1529 0.0000 -11869.9492 1836.4788 0.0000 0.0000 1412.7294 -8611.4454 242.0970 -10024.1748 -8610.1536 239.9254 1073.4400 1125.9411 28891.3682 3.9324 3.9124
TCL: Running 100000 steps at 270 kelvin.
TCL: Setting parameter langevinTemp to 270
TCL: Running for 100000 steps
ETITLE: TS BOND ANGLE DIHED IMPRP ELECT VDW BOUNDARY MISC KINETIC TOTAL TEMP POTENTIAL TOTAL3 TEMPAVG PRESSURE GPRESSURE VOLUME PRESSAVG GPRESSAVG
ENERGY: 800000 3.1697 3.9730 2.1529 0.0000 -11869.9492 1836.4788 0.0000 0.0000 1412.0183 -8612.1565 241.9751 -10024.1748 -8609.5950 241.9751 1049.3817 1124.4843 28891.3682 1049.3817 1124.4843
ENERGY: 900000 2.4580 4.1086 3.8168 0.0000 -11104.5270 1418.7127 0.0000 0.0000 1603.5457 -8071.8853 274.7968 -9675.4310 -8064.2996 269.6663 -1222.2655 -1117.1885 29218.3656 3.2568 3.2842
TCL: Running 1000000 steps at 300 kelvin.
TCL: Setting parameter langevinTemp to 300
TCL: Running for 1000000 steps
ETITLE: TS BOND ANGLE DIHED IMPRP ELECT VDW BOUNDARY MISC KINETIC TOTAL TEMP POTENTIAL TOTAL3 TEMPAVG PRESSURE GPRESSURE VOLUME PRESSAVG GPRESSAVG
ENERGY: 900000 2.4580 4.1086 3.8168 0.0000 -11104.5270 1418.7127 0.0000 0.0000 1602.7409 -8072.6901 274.6589 -9675.4310 -8070.5956 274.6589 -1193.6676 -1113.3725 29218.3656 -1193.6676 -1113.3725
ENERGY: 1100000 2.2202 11.9287 3.9555 0.0000 -10739.3578 1451.5920 0.0000 0.0000 1797.4898 -7472.1717 308.0327 -9269.6615 -7469.2479 300.4083 175.9203 274.3180 30077.0763 3.9980 4.0413
ENERGY: 1300000 0.1566 7.4557 1.7337 0.0000 -10793.6491 1505.7300 0.0000 0.0000 1763.1871 -7515.3861 302.1543 -9278.5732 -7509.2928 299.5489 494.8582 573.1609 30112.0782 3.0001 2.8499
ENERGY: 1500000 1.7120 4.5274 2.1221 0.0000 -10686.4092 1489.5010 0.0000 0.0000 1726.5350 -7462.0117 295.8733 -9188.5467 -7458.7141 300.4741 731.3512 785.8501 29667.8394 2.7922 2.7528
ENERGY: 1700000 2.4552 10.0180 3.7839 0.0000 -10486.5036 1332.7836 0.0000 0.0000 1744.1935 -7393.2694 298.8994 -9137.4629 -7389.4947 299.2275 -690.7728 -674.8762 30735.4193 2.2368 2.2294
ENERGY: 1900000 2.8256 6.5534 3.8220 0.0000 -10612.6652 1442.9281 0.0000 0.0000 1758.9275 -7397.6086 301.4243 -9156.5361 -7395.2541 300.7318 428.2873 520.9711 29888.8887 3.1757 3.0658
TCL: Exiting due to exit command.
