Info: SIMULATION PARAMETERS:
Info: TIMESTEP               2
Info: NUMBER OF STEPS        0
Info: STEPS PER CYCLE        10
Info: PERIODIC CELL BASIS 1  34.207 0 0
Info: PERIODIC CELL BASIS 2  0 32.158 0
Info: PERIODIC CELL BASIS 3  0 0 39.527
Info: PERIODIC CELL CENTER   0 0 0
Info: WRAPPING WATERS AROUND PERIODIC BOUNDARIES ON OUTPUT.
Info: WRAPPING ALL CLUSTERS AROUND PERIODIC BOUNDARIES ON OUTPUT.
Info: FIRST LDB TIMESTEP     50
Info: LAST LDB TIMESTEP     -1
Info: HOM BACKGROUND SCALING 1
Info: PME BACKGROUND SCALING 1
Info: MIN ATOMS PER PATCH    40
Info: EMPTY PATCH LOAD       40 ATOMS
Info: INITIAL TEMPERATURE    300
Info: CENTER OF MASS MOVING INITIALLY? NO
Info: DIELECTRIC             1
Info: EXCLUDE                SCALED ONE-FOUR
Info: 1-4 ELECTROSTATICS SCALED BY 0.833333
Info: MODIFIED 1-4 VDW PARAMETERS WILL BE USED
Info: DCD FILENAME           mobley_2005792_equil.dcd
Info: DCD FREQUENCY          100000
Info: DCD FIRST STEP         100000
Info: DCD FILE WILL CONTAIN UNIT CELL DATA
Info: XST FILENAME           mobley_2005792_equil.xst
Info: XST FREQUENCY          100000
Info: NO VELOCITY DCD OUTPUT
Info: NO FORCE DCD OUTPUT
Info: OUTPUT FILENAME        mobley_2005792_equil
Info: BINARY OUTPUT FILES WILL BE USED
Info: RESTART FILENAME       mobley_2005792_equil.restart
Info: RESTART FREQUENCY      100000
Info: BINARY RESTART FILES WILL BE USED
Info: CUTOFF                 9
Info: PAIRLIST DISTANCE      11
Info: PAIRLIST SHRINK RATE   0.01
Info: PAIRLIST GROW RATE     0.01
Info: PAIRLIST TRIGGER       0.3
Info: PAIRLISTS PER CYCLE    2
Info: PAIRLISTS ENABLED
Info: MARGIN                 8
Info: HYDROGEN GROUP CUTOFF  2.5
Info: PATCH DIMENSION        21.5
Info: ENERGY OUTPUT STEPS    100000
Info: ENERGY EVALUATION STEPS    100000
Info: OUTPUT ENERGY PRECISION 4
Info: CROSSTERM ENERGY INCLUDED IN DIHEDRAL
Info: TIMING OUTPUT STEPS    1000000
Info: PRESSURE OUTPUT STEPS  100000
Info: LANGEVIN DYNAMICS ACTIVE
Info: LANGEVIN TEMPERATURE   30
Info: LANGEVIN USING BBK INTEGRATOR
Info: LANGEVIN DAMPING COEFFICIENT IS 1 INVERSE PS
Info: LANGEVIN DYNAMICS APPLIED TO HYDROGENS
Info: LANGEVIN PISTON PRESSURE CONTROL ACTIVE
Info:        TARGET PRESSURE IS 1.01325 BAR
Info:     OSCILLATION PERIOD IS 50 FS
Info:             DECAY TIME IS 25 FS
Info:     PISTON TEMPERATURE IS 300 K
Info:       PRESSURE CONTROL IS GROUP-BASED
Info:    INITIAL STRAIN RATE IS 0 0 0
Info:       CELL FLUCTUATION IS ISOTROPIC
Info: PARTICLE MESH EWALD (PME) ACTIVE
Info: PME TOLERANCE               1e-06
Info: PME EWALD COEFFICIENT       0.348832
Info: PME INTERPOLATION ORDER     4
Info: PME GRID DIMENSIONS         36 36 40
Info: PME MAXIMUM GRID SPACING    1
Info: FULL ELECTROSTATIC EVALUATION FREQUENCY      2
Info: USING VERLET I (r-RESPA) MTS SCHEME.
Info: C1 SPLITTING OF LONG RANGE ELECTROSTATICS
Info: PLACING ATOMS IN PATCHES BY HYDROGEN GROUPS
Info: RIGID BONDS TO HYDROGEN : ALL
Info:         ERROR TOLERANCE : 1e-08
Info:          MAX ITERATIONS : 100
Info: RIGID WATER USING SETTLE ALGORITHM
Info: RANDOM NUMBER SEED     1743234502
Info: USE HYDROGEN BONDS?    NO
Info: Using AMBER format force field!
Info: AMBER PARM FILE        mobley_2005792.prmtop
Info: COORDINATE PDB         mobley_2005792.pdb
Info: Exclusions will be read from PARM file!
Info: SCNB (VDW SCALING)     2
Info: USING ARITHMETIC MEAN TO COMBINE L-J SIGMA PARAMETERS
Info: BINARY COORDINATES     mobley_2005792_min.coor
Info: SUMMARY OF PARAMETERS:
Info: 6 BONDS
Info: 6 ANGLES
Info:   6 HARMONIC
Info:   0 COSINE-BASED
Info: 3 DIHEDRAL
Info: 0 IMPROPER
Info: 0 CROSSTERM
Info: 0 VDW
Info: 10 VDW_PAIRS
Info: 0 NBTHOLE_PAIRS
Info: STRUCTURE SUMMARY:
Info: 2950 ATOMS
Info: 2951 BONDS
Info: 36 ANGLES
Info: 64 DIHEDRALS
Info: 0 IMPROPERS
Info: 0 CROSSTERMS
Info: 3033 EXCLUSIONS
Info: 2938 RIGID BONDS
Info: 5912 DEGREES OF FREEDOM
Info: 988 HYDROGEN GROUPS
Info: 3 ATOMS IN LARGEST HYDROGEN GROUP
Info: 988 MIGRATION GROUPS
Info: 3 ATOMS IN LARGEST MIGRATION GROUP
Info: TOTAL MASS = 17737.8 amu
Info: TOTAL CHARGE = -0.000199966 e
Info: MASS DENSITY = 0.677425 g/cm^3
Info: ATOM DENSITY = 0.067846 atoms/A^3
Info: ADDED 0 IMPLICIT EXCLUSIONS
Info: NONBONDED TABLE R-SQUARED SPACING: 0.0625
Info: NONBONDED TABLE SIZE: 705 POINTS
Info: REMOVING COM VELOCITY -0.107127 -0.0557468 0.0102025
TCL: Running for 100000 steps
ETITLE: TS BOND ANGLE DIHED IMPRP ELECT VDW BOUNDARY MISC KINETIC TOTAL TEMP POTENTIAL TOTAL3 TEMPAVG PRESSURE GPRESSURE VOLUME PRESSAVG GPRESSAVG
ENERGY: 0 0.5351 0.2186 1.7314 0.0000 -13560.1940 2399.8530 0.0000 0.0000 1725.6934 -9432.1625 293.7782 -11157.8559 -9431.8362 293.7782 462.3917 513.6603 43480.8347 462.3917 513.6603
ENERGY: 100000 0.8575 1.0698 1.2884 0.0000 -14217.2568 2521.7175 0.0000 0.0000 175.9089 -11516.4148 29.9463 -11692.3237 -11515.9531 30.9579 330.7677 401.6535 29028.7648 3.7142 3.7031
TCL: Running 100000 steps at 60 kelvin.
TCL: Setting parameter langevinTemp to 60
TCL: Running for 100000 steps
ETITLE: TS BOND ANGLE DIHED IMPRP ELECT VDW BOUNDARY MISC KINETIC TOTAL TEMP POTENTIAL TOTAL3 TEMPAVG PRESSURE GPRESSURE VOLUME PRESSAVG GPRESSAVG
ENERGY: 100000 0.8575 1.0698 1.2884 0.0000 -14217.2568 2521.7175 0.0000 0.0000 175.8212 -11516.5025 29.9314 -11692.3237 -11516.1043 29.9314 346.3930 401.6197 29028.7648 346.3930 401.6197
ENERGY: 200000 0.8191 0.8536 2.6672 0.0000 -14030.4509 2397.5617 0.0000 0.0000 362.6858 -11265.8635 61.7428 -11628.5493 -11264.5976 60.0679 -293.9009 -211.8173 29063.2091 3.6500 3.5957
TCL: Running 100000 steps at 90 kelvin.
TCL: Setting parameter langevinTemp to 90
TCL: Running for 100000 steps
ETITLE: TS BOND ANGLE DIHED IMPRP ELECT VDW BOUNDARY MISC KINETIC TOTAL TEMP POTENTIAL TOTAL3 TEMPAVG PRESSURE GPRESSURE VOLUME PRESSAVG GPRESSAVG
ENERGY: 200000 0.8191 0.8536 2.6672 0.0000 -14030.4509 2397.5617 0.0000 0.0000 362.5143 -11266.0350 61.7136 -11628.5493 -11265.3028 61.7136 -279.2385 -211.2911 29063.2091 -279.2385 -211.2911
ENERGY: 300000 0.8187 1.6664 5.3544 0.0000 -13792.0294 2285.4377 0.0000 0.0000 531.9281 -10966.8243 90.5543 -11498.7523 -10965.9004 89.8929 -606.1922 -542.3091 28989.2468 5.1558 5.1906
TCL: Running 100000 steps at 120 kelvin.
TCL: Setting parameter langevinTemp to 120
TCL: Running for 100000 steps
ETITLE: TS BOND ANGLE DIHED IMPRP ELECT VDW BOUNDARY MISC KINETIC TOTAL TEMP POTENTIAL TOTAL3 TEMPAVG PRESSURE GPRESSURE VOLUME PRESSAVG GPRESSAVG
ENERGY: 300000 0.8187 1.6664 5.3544 0.0000 -13792.0294 2285.4377 0.0000 0.0000 531.6678 -10967.0845 90.5100 -11498.7523 -10966.1599 90.5100 -601.3495 -542.7403 28989.2468 -601.3495 -542.7403
ENERGY: 400000 2.7374 3.2247 4.4421 0.0000 -13650.1334 2230.1613 0.0000 0.0000 716.7775 -10692.7903 122.0226 -11409.5678 -10690.5304 119.9898 -954.6383 -887.6566 29257.8275 4.8428 4.9008
TCL: Running 100000 steps at 150 kelvin.
TCL: Setting parameter langevinTemp to 150
TCL: Running for 100000 steps
ETITLE: TS BOND ANGLE DIHED IMPRP ELECT VDW BOUNDARY MISC KINETIC TOTAL TEMP POTENTIAL TOTAL3 TEMPAVG PRESSURE GPRESSURE VOLUME PRESSAVG GPRESSAVG
ENERGY: 400000 2.7374 3.2247 4.4421 0.0000 -13650.1334 2230.1613 0.0000 0.0000 716.4090 -10693.1588 121.9599 -11409.5678 -10691.4665 121.9599 -956.3254 -887.2327 29257.8275 -956.3254 -887.2327
ENERGY: 500000 1.7962 2.6674 4.3203 0.0000 -13535.7452 2327.7853 0.0000 0.0000 873.8612 -10325.3149 148.7642 -11199.1760 -10323.7219 150.0050 818.3341 802.4566 29037.7760 4.1157 4.0882
TCL: Running 100000 steps at 180 kelvin.
TCL: Setting parameter langevinTemp to 180
TCL: Running for 100000 steps
ETITLE: TS BOND ANGLE DIHED IMPRP ELECT VDW BOUNDARY MISC KINETIC TOTAL TEMP POTENTIAL TOTAL3 TEMPAVG PRESSURE GPRESSURE VOLUME PRESSAVG GPRESSAVG
ENERGY: 500000 1.7962 2.6674 4.3203 0.0000 -13535.7452 2327.7853 0.0000 0.0000 873.4178 -10325.7582 148.6887 -11199.1760 -10324.4176 148.6887 761.6571 801.5221 29037.7760 761.6571 801.5221
ENERGY: 600000 1.4690 4.4927 4.9660 0.0000 -12999.1896 2052.4009 0.0000 0.0000 1054.9261 -9880.9350 179.5883 -10935.8611 -9876.4578 180.1890 -502.5839 -353.9261 28768.4913 4.0063 3.9165
TCL: Running 100000 steps at 210 kelvin.
TCL: Setting parameter langevinTemp to 210
TCL: Running for 100000 steps
ETITLE: TS BOND ANGLE DIHED IMPRP ELECT VDW BOUNDARY MISC KINETIC TOTAL TEMP POTENTIAL TOTAL3 TEMPAVG PRESSURE GPRESSURE VOLUME PRESSAVG GPRESSAVG
ENERGY: 600000 1.4690 4.4927 4.9660 0.0000 -12999.1896 2052.4009 0.0000 0.0000 1054.4030 -9881.4581 179.4992 -10935.8611 -9879.7769 179.4992 -421.5174 -352.4367 28768.4913 -421.5174 -352.4367
ENERGY: 700000 4.0411 3.8273 6.7477 0.0000 -12332.5292 1888.6927 0.0000 0.0000 1253.1375 -9176.0830 213.3313 -10429.2205 -9172.4964 209.6829 -215.4231 -122.9171 29010.1274 2.7278 2.6353
TCL: Running 100000 steps at 240 kelvin.
TCL: Setting parameter langevinTemp to 240
TCL: Running for 100000 steps
ETITLE: TS BOND ANGLE DIHED IMPRP ELECT VDW BOUNDARY MISC KINETIC TOTAL TEMP POTENTIAL TOTAL3 TEMPAVG PRESSURE GPRESSURE VOLUME PRESSAVG GPRESSAVG
ENERGY: 700000 4.0411 3.8273 6.7477 0.0000 -12332.5292 1888.6927 0.0000 0.0000 1252.5116 -9176.7089 213.2248 -10429.2205 -9174.3961 213.2248 -197.9701 -123.0169 29010.1274 -197.9701 -123.0169
ENERGY: 800000 5.0401 7.5109 9.2227 0.0000 -11615.8481 1630.7077 0.0000 0.0000 1382.7301 -8580.6366 235.3929 -9963.3667 -8576.2012 240.1765 -723.1801 -678.0431 29501.5292 4.3375 4.3800
TCL: Running 100000 steps at 270 kelvin.
TCL: Setting parameter langevinTemp to 270
TCL: Running for 100000 steps
ETITLE: TS BOND ANGLE DIHED IMPRP ELECT VDW BOUNDARY MISC KINETIC TOTAL TEMP POTENTIAL TOTAL3 TEMPAVG PRESSURE GPRESSURE VOLUME PRESSAVG GPRESSAVG
ENERGY: 800000 5.0401 7.5109 9.2227 0.0000 -11615.8481 1630.7077 0.0000 0.0000 1381.9867 -8581.3800 235.2664 -9963.3667 -8579.1607 235.2664 -759.3857 -679.2705 29501.5292 -759.3857 -679.2705
ENERGY: 900000 5.1706 4.1642 7.0410 0.0000 -11097.8309 1485.7502 0.0000 0.0000 1617.2889 -7978.4160 275.3237 -9595.7049 -7975.0867 269.8837 -505.8773 -437.6000 29869.3657 2.1066 2.0079
TCL: Running 1000000 steps at 300 kelvin.
TCL: Setting parameter langevinTemp to 300
TCL: Running for 1000000 steps
ETITLE: TS BOND ANGLE DIHED IMPRP ELECT VDW BOUNDARY MISC KINETIC TOTAL TEMP POTENTIAL TOTAL3 TEMPAVG PRESSURE GPRESSURE VOLUME PRESSAVG GPRESSAVG
ENERGY: 900000 5.1706 4.1642 7.0410 0.0000 -11097.8309 1485.7502 0.0000 0.0000 1616.4593 -7979.2456 275.1824 -9595.7049 -7976.3636 275.1824 -515.9546 -438.2605 29869.3657 -515.9546 -438.2605
ENERGY: 1100000 4.1791 5.5289 14.1214 0.0000 -10800.4009 1476.8083 0.0000 0.0000 1702.5624 -7597.2007 289.8405 -9299.7632 -7593.8274 300.3445 354.7597 401.6699 29884.6378 4.8129 4.9636
ENERGY: 1300000 6.3121 5.8060 9.1621 0.0000 -10661.4891 1376.7354 0.0000 0.0000 1841.1869 -7422.2867 313.4396 -9263.4736 -7417.9968 299.9951 -845.9911 -789.7782 30428.9858 1.6472 1.7261
ENERGY: 1500000 5.1437 5.0138 11.4087 0.0000 -10774.0482 1456.3390 0.0000 0.0000 1748.5121 -7547.6309 297.6628 -9296.1430 -7543.6616 299.8611 179.7587 176.0532 30180.5687 3.6818 3.6795
ENERGY: 1700000 3.3306 3.5234 8.5683 0.0000 -10541.4846 1354.6771 0.0000 0.0000 1726.0940 -7445.2912 293.8464 -9171.3852 -7440.7099 299.8655 -533.8305 -506.9878 30661.6303 3.6005 3.5624
ENERGY: 1900000 4.2047 4.2491 8.2047 0.0000 -10718.5231 1415.8166 0.0000 0.0000 1798.6362 -7487.4117 306.1958 -9286.0479 -7483.5611 300.1895 -330.4880 -248.1563 30362.8301 3.8729 3.8438
TCL: Exiting due to exit command.
