Info: SIMULATION PARAMETERS:
Info: TIMESTEP               2
Info: NUMBER OF STEPS        0
Info: STEPS PER CYCLE        10
Info: PERIODIC CELL BASIS 1  34.986 0 0
Info: PERIODIC CELL BASIS 2  0 34.26 0
Info: PERIODIC CELL BASIS 3  0 0 36.199
Info: PERIODIC CELL CENTER   0 0 0
Info: WRAPPING WATERS AROUND PERIODIC BOUNDARIES ON OUTPUT.
Info: WRAPPING ALL CLUSTERS AROUND PERIODIC BOUNDARIES ON OUTPUT.
Info: FIRST LDB TIMESTEP     50
Info: LAST LDB TIMESTEP     -1
Info: HOM BACKGROUND SCALING 1
Info: PME BACKGROUND SCALING 1
Info: MIN ATOMS PER PATCH    40
Info: EMPTY PATCH LOAD       40 ATOMS
Info: INITIAL TEMPERATURE    300
Info: CENTER OF MASS MOVING INITIALLY? NO
Info: DIELECTRIC             1
Info: EXCLUDE                SCALED ONE-FOUR
Info: 1-4 ELECTROSTATICS SCALED BY 0.833333
Info: MODIFIED 1-4 VDW PARAMETERS WILL BE USED
Info: DCD FILENAME           mobley_3762186_equil.dcd
Info: DCD FREQUENCY          100000
Info: DCD FIRST STEP         100000
Info: DCD FILE WILL CONTAIN UNIT CELL DATA
Info: XST FILENAME           mobley_3762186_equil.xst
Info: XST FREQUENCY          100000
Info: NO VELOCITY DCD OUTPUT
Info: NO FORCE DCD OUTPUT
Info: OUTPUT FILENAME        mobley_3762186_equil
Info: BINARY OUTPUT FILES WILL BE USED
Info: RESTART FILENAME       mobley_3762186_equil.restart
Info: RESTART FREQUENCY      100000
Info: BINARY RESTART FILES WILL BE USED
Info: CUTOFF                 9
Info: PAIRLIST DISTANCE      11
Info: PAIRLIST SHRINK RATE   0.01
Info: PAIRLIST GROW RATE     0.01
Info: PAIRLIST TRIGGER       0.3
Info: PAIRLISTS PER CYCLE    2
Info: PAIRLISTS ENABLED
Info: MARGIN                 8
Info: HYDROGEN GROUP CUTOFF  2.5
Info: PATCH DIMENSION        21.5
Info: ENERGY OUTPUT STEPS    100000
Info: ENERGY EVALUATION STEPS    100000
Info: OUTPUT ENERGY PRECISION 4
Info: CROSSTERM ENERGY INCLUDED IN DIHEDRAL
Info: TIMING OUTPUT STEPS    1000000
Info: PRESSURE OUTPUT STEPS  100000
Info: LANGEVIN DYNAMICS ACTIVE
Info: LANGEVIN TEMPERATURE   30
Info: LANGEVIN USING BBK INTEGRATOR
Info: LANGEVIN DAMPING COEFFICIENT IS 1 INVERSE PS
Info: LANGEVIN DYNAMICS APPLIED TO HYDROGENS
Info: LANGEVIN PISTON PRESSURE CONTROL ACTIVE
Info:        TARGET PRESSURE IS 1.01325 BAR
Info:     OSCILLATION PERIOD IS 50 FS
Info:             DECAY TIME IS 25 FS
Info:     PISTON TEMPERATURE IS 300 K
Info:       PRESSURE CONTROL IS GROUP-BASED
Info:    INITIAL STRAIN RATE IS 0 0 0
Info:       CELL FLUCTUATION IS ISOTROPIC
Info: PARTICLE MESH EWALD (PME) ACTIVE
Info: PME TOLERANCE               1e-06
Info: PME EWALD COEFFICIENT       0.348832
Info: PME INTERPOLATION ORDER     4
Info: PME GRID DIMENSIONS         36 36 40
Info: PME MAXIMUM GRID SPACING    1
Info: FULL ELECTROSTATIC EVALUATION FREQUENCY      2
Info: USING VERLET I (r-RESPA) MTS SCHEME.
Info: C1 SPLITTING OF LONG RANGE ELECTROSTATICS
Info: PLACING ATOMS IN PATCHES BY HYDROGEN GROUPS
Info: RIGID BONDS TO HYDROGEN : ALL
Info:         ERROR TOLERANCE : 1e-08
Info:          MAX ITERATIONS : 100
Info: RIGID WATER USING SETTLE ALGORITHM
Info: RANDOM NUMBER SEED     1743145021
Info: USE HYDROGEN BONDS?    NO
Info: Using AMBER format force field!
Info: AMBER PARM FILE        mobley_3762186.prmtop
Info: COORDINATE PDB         mobley_3762186.pdb
Info: Exclusions will be read from PARM file!
Info: SCNB (VDW SCALING)     2
Info: USING ARITHMETIC MEAN TO COMBINE L-J SIGMA PARAMETERS
Info: BINARY COORDINATES     mobley_3762186_min.coor
Info: SUMMARY OF PARAMETERS:
Info: 4 BONDS
Info: 3 ANGLES
Info:   3 HARMONIC
Info:   0 COSINE-BASED
Info: 0 DIHEDRAL
Info: 0 IMPROPER
Info: 0 CROSSTERM
Info: 0 VDW
Info: 15 VDW_PAIRS
Info: 0 NBTHOLE_PAIRS
Info: STRUCTURE SUMMARY:
Info: 2909 ATOMS
Info: 2908 BONDS
Info: 6 ANGLES
Info: 0 DIHEDRALS
Info: 0 IMPROPERS
Info: 0 CROSSTERMS
Info: 2914 EXCLUSIONS
Info: 2906 RIGID BONDS
Info: 5821 DEGREES OF FREEDOM
Info: 971 HYDROGEN GROUPS
Info: 3 ATOMS IN LARGEST HYDROGEN GROUP
Info: 971 MIGRATION GROUPS
Info: 3 ATOMS IN LARGEST MIGRATION GROUP
Info: TOTAL MASS = 17524.4 amu
Info: TOTAL CHARGE = 1.49012e-08 e
Info: MASS DENSITY = 0.670694 g/cm^3
Info: ATOM DENSITY = 0.0670449 atoms/A^3
Info: ADDED 0 IMPLICIT EXCLUSIONS
Info: NONBONDED TABLE R-SQUARED SPACING: 0.0625
Info: NONBONDED TABLE SIZE: 705 POINTS
Info: REMOVING COM VELOCITY -0.204563 0.0441862 -0.240747
TCL: Running for 100000 steps
ETITLE: TS BOND ANGLE DIHED IMPRP ELECT VDW BOUNDARY MISC KINETIC TOTAL TEMP POTENTIAL TOTAL3 TEMPAVG PRESSURE GPRESSURE VOLUME PRESSAVG GPRESSAVG
ENERGY: 0 0.0029 0.2046 0.0000 0.0000 -13524.8891 2367.8366 0.0000 0.0000 1728.3200 -9428.5250 298.8250 -11156.8450 -9428.1884 298.8250 351.1581 380.3003 43388.8584 351.1581 380.3003
ENERGY: 100000 0.0271 0.3996 0.0000 0.0000 -14036.6148 2484.1014 0.0000 0.0000 172.0940 -11379.9928 29.7549 -11552.0867 -11379.4272 30.9018 244.2293 300.4791 29257.6609 5.1581 5.1817
TCL: Running 100000 steps at 60 kelvin.
TCL: Setting parameter langevinTemp to 60
TCL: Running for 100000 steps
ETITLE: TS BOND ANGLE DIHED IMPRP ELECT VDW BOUNDARY MISC KINETIC TOTAL TEMP POTENTIAL TOTAL3 TEMPAVG PRESSURE GPRESSURE VOLUME PRESSAVG GPRESSAVG
ENERGY: 100000 0.0271 0.3996 0.0000 0.0000 -14036.6148 2484.1014 0.0000 0.0000 172.0075 -11380.0792 29.7399 -11552.0867 -11379.6807 29.7399 241.8994 300.6014 29257.6609 241.8994 300.6014
ENERGY: 200000 0.0312 0.2582 0.0000 0.0000 -13948.5699 2434.8637 0.0000 0.0000 353.3159 -11160.1010 61.0880 -11513.4169 -11159.4533 59.9635 38.2700 102.2897 29035.9114 3.8110 3.8997
TCL: Running 100000 steps at 90 kelvin.
TCL: Setting parameter langevinTemp to 90
TCL: Running for 100000 steps
ETITLE: TS BOND ANGLE DIHED IMPRP ELECT VDW BOUNDARY MISC KINETIC TOTAL TEMP POTENTIAL TOTAL3 TEMPAVG PRESSURE GPRESSURE VOLUME PRESSAVG GPRESSAVG
ENERGY: 200000 0.0312 0.2582 0.0000 0.0000 -13948.5699 2434.8637 0.0000 0.0000 353.1423 -11160.2746 61.0580 -11513.4169 -11159.6054 61.0580 56.6657 101.6782 29035.9114 56.6657 101.6782
ENERGY: 300000 0.3136 0.9234 0.0000 0.0000 -13885.8290 2447.1213 0.0000 0.0000 518.2391 -10919.2315 89.6031 -11437.4707 -10917.8023 89.9846 517.3766 573.1542 28809.0157 3.6864 3.6434
TCL: Running 100000 steps at 120 kelvin.
TCL: Setting parameter langevinTemp to 120
TCL: Running for 100000 steps
ETITLE: TS BOND ANGLE DIHED IMPRP ELECT VDW BOUNDARY MISC KINETIC TOTAL TEMP POTENTIAL TOTAL3 TEMPAVG PRESSURE GPRESSURE VOLUME PRESSAVG GPRESSAVG
ENERGY: 300000 0.3136 0.9234 0.0000 0.0000 -13885.8290 2447.1213 0.0000 0.0000 517.9731 -10919.4976 89.5571 -11437.4707 -10918.4771 89.5571 533.1593 573.6945 28809.0157 533.1593 573.6945
ENERGY: 400000 0.1105 0.6993 0.0000 0.0000 -13725.2937 2430.3852 0.0000 0.0000 688.1940 -10605.9047 118.9881 -11294.0987 -10604.5177 120.1450 841.7163 872.8317 28958.8129 5.5882 5.5925
TCL: Running 100000 steps at 150 kelvin.
TCL: Setting parameter langevinTemp to 150
TCL: Running for 100000 steps
ETITLE: TS BOND ANGLE DIHED IMPRP ELECT VDW BOUNDARY MISC KINETIC TOTAL TEMP POTENTIAL TOTAL3 TEMPAVG PRESSURE GPRESSURE VOLUME PRESSAVG GPRESSAVG
ENERGY: 400000 0.1105 0.6993 0.0000 0.0000 -13725.2937 2430.3852 0.0000 0.0000 687.8526 -10606.2461 118.9291 -11294.0987 -10604.9705 118.9291 822.8608 872.5900 28958.8129 822.8608 872.5900
ENERGY: 500000 1.4223 0.7123 0.0000 0.0000 -13416.2902 2259.6892 0.0000 0.0000 877.0887 -10277.3777 151.6479 -11154.4664 -10275.5268 149.9213 -149.6386 -127.5366 29050.4998 3.1547 3.1381
TCL: Running 100000 steps at 180 kelvin.
TCL: Setting parameter langevinTemp to 180
TCL: Running for 100000 steps
ETITLE: TS BOND ANGLE DIHED IMPRP ELECT VDW BOUNDARY MISC KINETIC TOTAL TEMP POTENTIAL TOTAL3 TEMPAVG PRESSURE GPRESSURE VOLUME PRESSAVG GPRESSAVG
ENERGY: 500000 1.4223 0.7123 0.0000 0.0000 -13416.2902 2259.6892 0.0000 0.0000 876.6620 -10277.8044 151.5741 -11154.4664 -10276.0778 151.5741 -183.3655 -127.8132 29050.4998 -183.3655 -127.8132
ENERGY: 600000 0.2336 0.9571 0.0000 0.0000 -12926.2162 2112.6568 0.0000 0.0000 1050.8044 -9761.5643 181.6832 -10812.3687 -9760.3959 179.8506 434.5259 524.5943 28197.2077 3.4898 3.5744
TCL: Running 100000 steps at 210 kelvin.
TCL: Setting parameter langevinTemp to 210
TCL: Running for 100000 steps
ETITLE: TS BOND ANGLE DIHED IMPRP ELECT VDW BOUNDARY MISC KINETIC TOTAL TEMP POTENTIAL TOTAL3 TEMPAVG PRESSURE GPRESSURE VOLUME PRESSAVG GPRESSAVG
ENERGY: 600000 0.2336 0.9571 0.0000 0.0000 -12926.2162 2112.6568 0.0000 0.0000 1050.3030 -9762.0657 181.5965 -10812.3687 -9760.2732 181.5965 459.7726 523.6089 28197.2077 459.7726 523.6089
ENERGY: 700000 0.4904 0.9503 0.0000 0.0000 -12286.6896 1897.1248 0.0000 0.0000 1306.3325 -9081.7917 225.8637 -10388.1241 -9077.9022 209.7264 355.3346 397.9413 28102.4766 4.7225 4.6740
TCL: Running 100000 steps at 240 kelvin.
TCL: Setting parameter langevinTemp to 240
TCL: Running for 100000 steps
ETITLE: TS BOND ANGLE DIHED IMPRP ELECT VDW BOUNDARY MISC KINETIC TOTAL TEMP POTENTIAL TOTAL3 TEMPAVG PRESSURE GPRESSURE VOLUME PRESSAVG GPRESSAVG
ENERGY: 700000 0.4904 0.9503 0.0000 0.0000 -12286.6896 1897.1248 0.0000 0.0000 1305.7310 -9082.3931 225.7597 -10388.1241 -9080.3254 225.7597 338.2324 400.5380 28102.4766 338.2324 400.5380
ENERGY: 800000 0.8799 0.6176 0.0000 0.0000 -11733.2439 1725.6866 0.0000 0.0000 1415.3475 -8590.7123 244.7123 -10006.0598 -8588.5888 240.1626 341.0503 463.9800 28136.2435 3.7364 3.8344
TCL: Running 100000 steps at 270 kelvin.
TCL: Setting parameter langevinTemp to 270
TCL: Running for 100000 steps
ETITLE: TS BOND ANGLE DIHED IMPRP ELECT VDW BOUNDARY MISC KINETIC TOTAL TEMP POTENTIAL TOTAL3 TEMPAVG PRESSURE GPRESSURE VOLUME PRESSAVG GPRESSAVG
ENERGY: 800000 0.8799 0.6176 0.0000 0.0000 -11733.2439 1725.6866 0.0000 0.0000 1414.6675 -8591.3923 244.5948 -10006.0598 -8589.1992 244.5948 374.2488 462.3780 28136.2435 374.2488 462.3780
ENERGY: 900000 1.2395 0.4861 0.0000 0.0000 -11167.1372 1565.1912 0.0000 0.0000 1556.0051 -8044.2153 269.0319 -9600.2204 -8043.4016 269.6987 -277.2806 -159.0024 29348.7876 3.0080 2.9146
TCL: Running 1000000 steps at 300 kelvin.
TCL: Setting parameter langevinTemp to 300
TCL: Running for 1000000 steps
ETITLE: TS BOND ANGLE DIHED IMPRP ELECT VDW BOUNDARY MISC KINETIC TOTAL TEMP POTENTIAL TOTAL3 TEMPAVG PRESSURE GPRESSURE VOLUME PRESSAVG GPRESSAVG
ENERGY: 900000 1.2395 0.4861 0.0000 0.0000 -11167.1372 1565.1912 0.0000 0.0000 1555.1686 -8045.0517 268.8873 -9600.2204 -8043.2855 268.8873 -258.1335 -160.6386 29348.7876 -258.1335 -160.6386
ENERGY: 1100000 1.2467 1.0382 0.0000 0.0000 -10612.1187 1445.1810 0.0000 0.0000 1783.9965 -7380.6563 308.4514 -9164.6528 -7378.8815 300.0252 64.0464 152.6726 30109.8802 3.5361 3.5797
ENERGY: 1300000 0.2782 2.1676 0.0000 0.0000 -10630.5966 1510.9958 0.0000 0.0000 1739.5432 -7377.6119 300.7655 -9117.1550 -7374.6507 300.3893 574.7175 675.1156 30273.4584 3.2299 3.0496
ENERGY: 1500000 0.1904 0.8570 0.0000 0.0000 -10572.9814 1433.2256 0.0000 0.0000 1723.6055 -7415.1029 298.0099 -9138.7084 -7410.3751 299.2719 -279.2655 -173.1367 30532.2224 2.1918 2.1814
ENERGY: 1700000 0.1788 2.1549 0.0000 0.0000 -10556.0623 1336.8139 0.0000 0.0000 1672.4895 -7544.4252 289.1720 -9216.9147 -7542.6835 300.1717 -1063.1268 -1001.5714 30244.2717 3.2236 3.2778
ENERGY: 1900000 0.2040 2.7482 0.0000 0.0000 -10569.7583 1417.0169 0.0000 0.0000 1695.7492 -7454.0401 293.1936 -9149.7893 -7450.8107 299.8356 -187.3756 -184.3539 30272.0389 4.0244 3.9912
TCL: Exiting due to exit command.
