Info: SIMULATION PARAMETERS:
Info: TIMESTEP               2
Info: NUMBER OF STEPS        0
Info: STEPS PER CYCLE        10
Info: PERIODIC CELL BASIS 1  35.89 0 0
Info: PERIODIC CELL BASIS 2  0 33.542 0
Info: PERIODIC CELL BASIS 3  0 0 36.583
Info: PERIODIC CELL CENTER   0 0 0
Info: WRAPPING WATERS AROUND PERIODIC BOUNDARIES ON OUTPUT.
Info: WRAPPING ALL CLUSTERS AROUND PERIODIC BOUNDARIES ON OUTPUT.
Info: FIRST LDB TIMESTEP     50
Info: LAST LDB TIMESTEP     -1
Info: HOM BACKGROUND SCALING 1
Info: PME BACKGROUND SCALING 1
Info: MIN ATOMS PER PATCH    40
Info: EMPTY PATCH LOAD       40 ATOMS
Info: INITIAL TEMPERATURE    300
Info: CENTER OF MASS MOVING INITIALLY? NO
Info: DIELECTRIC             1
Info: EXCLUDE                SCALED ONE-FOUR
Info: 1-4 ELECTROSTATICS SCALED BY 0.833333
Info: MODIFIED 1-4 VDW PARAMETERS WILL BE USED
Info: DCD FILENAME           mobley_4780078_equil.dcd
Info: DCD FREQUENCY          100000
Info: DCD FIRST STEP         100000
Info: DCD FILE WILL CONTAIN UNIT CELL DATA
Info: XST FILENAME           mobley_4780078_equil.xst
Info: XST FREQUENCY          100000
Info: NO VELOCITY DCD OUTPUT
Info: NO FORCE DCD OUTPUT
Info: OUTPUT FILENAME        mobley_4780078_equil
Info: BINARY OUTPUT FILES WILL BE USED
Info: RESTART FILENAME       mobley_4780078_equil.restart
Info: RESTART FREQUENCY      100000
Info: BINARY RESTART FILES WILL BE USED
Info: CUTOFF                 9
Info: PAIRLIST DISTANCE      11
Info: PAIRLIST SHRINK RATE   0.01
Info: PAIRLIST GROW RATE     0.01
Info: PAIRLIST TRIGGER       0.3
Info: PAIRLISTS PER CYCLE    2
Info: PAIRLISTS ENABLED
Info: MARGIN                 8
Info: HYDROGEN GROUP CUTOFF  2.5
Info: PATCH DIMENSION        21.5
Info: ENERGY OUTPUT STEPS    100000
Info: ENERGY EVALUATION STEPS    100000
Info: OUTPUT ENERGY PRECISION 4
Info: CROSSTERM ENERGY INCLUDED IN DIHEDRAL
Info: TIMING OUTPUT STEPS    1000000
Info: PRESSURE OUTPUT STEPS  100000
Info: LANGEVIN DYNAMICS ACTIVE
Info: LANGEVIN TEMPERATURE   30
Info: LANGEVIN USING BBK INTEGRATOR
Info: LANGEVIN DAMPING COEFFICIENT IS 1 INVERSE PS
Info: LANGEVIN DYNAMICS APPLIED TO HYDROGENS
Info: LANGEVIN PISTON PRESSURE CONTROL ACTIVE
Info:        TARGET PRESSURE IS 1.01325 BAR
Info:     OSCILLATION PERIOD IS 50 FS
Info:             DECAY TIME IS 25 FS
Info:     PISTON TEMPERATURE IS 300 K
Info:       PRESSURE CONTROL IS GROUP-BASED
Info:    INITIAL STRAIN RATE IS 0 0 0
Info:       CELL FLUCTUATION IS ISOTROPIC
Info: PARTICLE MESH EWALD (PME) ACTIVE
Info: PME TOLERANCE               1e-06
Info: PME EWALD COEFFICIENT       0.348832
Info: PME INTERPOLATION ORDER     4
Info: PME GRID DIMENSIONS         36 36 40
Info: PME MAXIMUM GRID SPACING    1
Info: FULL ELECTROSTATIC EVALUATION FREQUENCY      2
Info: USING VERLET I (r-RESPA) MTS SCHEME.
Info: C1 SPLITTING OF LONG RANGE ELECTROSTATICS
Info: PLACING ATOMS IN PATCHES BY HYDROGEN GROUPS
Info: RIGID BONDS TO HYDROGEN : ALL
Info:         ERROR TOLERANCE : 1e-08
Info:          MAX ITERATIONS : 100
Info: RIGID WATER USING SETTLE ALGORITHM
Info: RANDOM NUMBER SEED     1743217012
Info: USE HYDROGEN BONDS?    NO
Info: Using AMBER format force field!
Info: AMBER PARM FILE        mobley_4780078.prmtop
Info: COORDINATE PDB         mobley_4780078.pdb
Info: Exclusions will be read from PARM file!
Info: SCNB (VDW SCALING)     2
Info: USING ARITHMETIC MEAN TO COMBINE L-J SIGMA PARAMETERS
Info: BINARY COORDINATES     mobley_4780078_min.coor
Info: SUMMARY OF PARAMETERS:
Info: 8 BONDS
Info: 7 ANGLES
Info:   7 HARMONIC
Info:   0 COSINE-BASED
Info: 4 DIHEDRAL
Info: 0 IMPROPER
Info: 0 CROSSTERM
Info: 0 VDW
Info: 28 VDW_PAIRS
Info: 0 NBTHOLE_PAIRS
Info: STRUCTURE SUMMARY:
Info: 2962 ATOMS
Info: 2962 BONDS
Info: 31 ANGLES
Info: 44 DIHEDRALS
Info: 0 IMPROPERS
Info: 0 CROSSTERMS
Info: 3028 EXCLUSIONS
Info: 2953 RIGID BONDS
Info: 5933 DEGREES OF FREEDOM
Info: 990 HYDROGEN GROUPS
Info: 4 ATOMS IN LARGEST HYDROGEN GROUP
Info: 990 MIGRATION GROUPS
Info: 4 ATOMS IN LARGEST MIGRATION GROUP
Info: TOTAL MASS = 17795.9 amu
Info: TOTAL CHARGE = 2.23517e-08 e
Info: MASS DENSITY = 0.671021 g/cm^3
Info: ATOM DENSITY = 0.0672579 atoms/A^3
Info: ADDED 0 IMPLICIT EXCLUSIONS
Info: NONBONDED TABLE R-SQUARED SPACING: 0.0625
Info: NONBONDED TABLE SIZE: 705 POINTS
Info: REMOVING COM VELOCITY 0.107125 -0.0478349 0.122462
TCL: Running for 100000 steps
ETITLE: TS BOND ANGLE DIHED IMPRP ELECT VDW BOUNDARY MISC KINETIC TOTAL TEMP POTENTIAL TOTAL3 TEMPAVG PRESSURE GPRESSURE VOLUME PRESSAVG GPRESSAVG
ENERGY: 0 0.2046 0.2018 0.1749 0.0000 -13656.2770 2386.0518 0.0000 0.0000 1748.7883 -9520.8556 296.6561 -11269.6439 -9520.5178 296.6561 386.6283 423.4099 44039.4341 386.6283 423.4099
ENERGY: 100000 1.0301 0.8272 0.4442 0.0000 -14158.7718 2357.8276 0.0000 0.0000 176.4628 -11622.1801 29.9343 -11798.6428 -11621.6116 30.9607 -1058.9146 -1013.1492 29006.6370 4.6289 4.6520
TCL: Running 100000 steps at 60 kelvin.
TCL: Setting parameter langevinTemp to 60
TCL: Running for 100000 steps
ETITLE: TS BOND ANGLE DIHED IMPRP ELECT VDW BOUNDARY MISC KINETIC TOTAL TEMP POTENTIAL TOTAL3 TEMPAVG PRESSURE GPRESSURE VOLUME PRESSAVG GPRESSAVG
ENERGY: 100000 1.0301 0.8272 0.4442 0.0000 -14158.7718 2357.8276 0.0000 0.0000 176.3766 -11622.2663 29.9197 -11798.6428 -11621.8884 29.9197 -1068.7022 -1013.0774 29006.6370 -1068.7022 -1013.0774
ENERGY: 200000 0.7139 1.2976 0.6040 0.0000 -14200.1528 2490.6144 0.0000 0.0000 341.9823 -11364.9407 58.0122 -11706.9230 -11364.7765 59.8239 489.2110 547.8146 28712.7268 4.9459 4.8717
TCL: Running 100000 steps at 90 kelvin.
TCL: Setting parameter langevinTemp to 90
TCL: Running for 100000 steps
ETITLE: TS BOND ANGLE DIHED IMPRP ELECT VDW BOUNDARY MISC KINETIC TOTAL TEMP POTENTIAL TOTAL3 TEMPAVG PRESSURE GPRESSURE VOLUME PRESSAVG GPRESSAVG
ENERGY: 200000 0.7139 1.2976 0.6040 0.0000 -14200.1528 2490.6144 0.0000 0.0000 341.8053 -11365.1176 57.9822 -11706.9230 -11364.3872 57.9822 498.5135 547.2615 28712.7268 498.5135 547.2615
ENERGY: 300000 1.5092 1.6364 1.3470 0.0000 -13835.5892 2216.7257 0.0000 0.0000 529.2185 -11085.1524 89.7741 -11614.3708 -11083.7659 89.9387 -1532.4554 -1473.8237 28975.1199 3.9459 3.9028
TCL: Running 100000 steps at 120 kelvin.
TCL: Setting parameter langevinTemp to 120
TCL: Running for 100000 steps
ETITLE: TS BOND ANGLE DIHED IMPRP ELECT VDW BOUNDARY MISC KINETIC TOTAL TEMP POTENTIAL TOTAL3 TEMPAVG PRESSURE GPRESSURE VOLUME PRESSAVG GPRESSAVG
ENERGY: 300000 1.5092 1.6364 1.3470 0.0000 -13835.5892 2216.7257 0.0000 0.0000 528.9524 -11085.4184 89.7290 -11614.3708 -11083.9945 89.7290 -1530.5801 -1473.9795 28975.1199 -1530.5801 -1473.9795
ENERGY: 400000 0.4930 0.8961 2.3077 0.0000 -13949.5161 2438.1082 0.0000 0.0000 691.8472 -10815.8639 117.3616 -11507.7111 -10813.6022 120.0361 855.4691 888.9006 28708.0471 2.6629 2.5854
TCL: Running 100000 steps at 150 kelvin.
TCL: Setting parameter langevinTemp to 150
TCL: Running for 100000 steps
ETITLE: TS BOND ANGLE DIHED IMPRP ELECT VDW BOUNDARY MISC KINETIC TOTAL TEMP POTENTIAL TOTAL3 TEMPAVG PRESSURE GPRESSURE VOLUME PRESSAVG GPRESSAVG
ENERGY: 400000 0.4930 0.8961 2.3077 0.0000 -13949.5161 2438.1082 0.0000 0.0000 691.4941 -10816.2170 117.3017 -11507.7111 -10814.8251 117.3017 821.5969 889.4245 28708.0471 821.5969 889.4245
ENERGY: 500000 1.6408 2.2183 1.5415 0.0000 -13588.2922 2244.5493 0.0000 0.0000 893.2917 -10445.0507 151.5337 -11338.3424 -10442.4801 149.8318 -192.7509 -144.3211 28973.0043 4.2131 4.2301
TCL: Running 100000 steps at 180 kelvin.
TCL: Setting parameter langevinTemp to 180
TCL: Running for 100000 steps
ETITLE: TS BOND ANGLE DIHED IMPRP ELECT VDW BOUNDARY MISC KINETIC TOTAL TEMP POTENTIAL TOTAL3 TEMPAVG PRESSURE GPRESSURE VOLUME PRESSAVG GPRESSAVG
ENERGY: 500000 1.6408 2.2183 1.5415 0.0000 -13588.2922 2244.5493 0.0000 0.0000 892.8386 -10445.5038 151.4569 -11338.3424 -10443.5927 151.4569 -189.2289 -143.3083 28973.0043 -189.2289 -143.3083
ENERGY: 600000 3.0976 2.9959 1.8834 0.0000 -13066.4421 2081.2250 0.0000 0.0000 1047.1058 -9930.1345 177.6260 -10977.2403 -9928.5377 179.9904 -175.3460 -107.8592 28867.9509 4.2149 4.4236
TCL: Running 100000 steps at 210 kelvin.
TCL: Setting parameter langevinTemp to 210
TCL: Running for 100000 steps
ETITLE: TS BOND ANGLE DIHED IMPRP ELECT VDW BOUNDARY MISC KINETIC TOTAL TEMP POTENTIAL TOTAL3 TEMPAVG PRESSURE GPRESSURE VOLUME PRESSAVG GPRESSAVG
ENERGY: 600000 3.0976 2.9959 1.8834 0.0000 -13066.4421 2081.2250 0.0000 0.0000 1046.5633 -9930.6770 177.5340 -10977.2403 -9928.4959 177.5340 -177.9453 -108.5740 28867.9509 -177.9453 -108.5740
ENERGY: 700000 1.3955 3.3436 2.4867 0.0000 -12259.7576 1745.8999 0.0000 0.0000 1267.4604 -9239.1715 215.0059 -10506.6319 -9237.0384 209.7702 -820.4492 -725.0602 28707.5179 3.7345 3.7898
TCL: Running 100000 steps at 240 kelvin.
TCL: Setting parameter langevinTemp to 240
TCL: Running for 100000 steps
ETITLE: TS BOND ANGLE DIHED IMPRP ELECT VDW BOUNDARY MISC KINETIC TOTAL TEMP POTENTIAL TOTAL3 TEMPAVG PRESSURE GPRESSURE VOLUME PRESSAVG GPRESSAVG
ENERGY: 700000 1.3955 3.3436 2.4867 0.0000 -12259.7576 1745.8999 0.0000 0.0000 1266.8483 -9239.7836 214.9021 -10506.6319 -9238.0191 214.9021 -800.9534 -724.8986 28707.5179 -800.9534 -724.8986
ENERGY: 800000 2.8405 4.6895 1.8504 0.0000 -11841.3103 1741.8694 0.0000 0.0000 1433.7200 -8656.3405 243.2094 -10090.0605 -8651.3246 240.0654 194.4675 268.7045 29159.0637 3.8112 3.6202
TCL: Running 100000 steps at 270 kelvin.
TCL: Setting parameter langevinTemp to 270
TCL: Running for 100000 steps
ETITLE: TS BOND ANGLE DIHED IMPRP ELECT VDW BOUNDARY MISC KINETIC TOTAL TEMP POTENTIAL TOTAL3 TEMPAVG PRESSURE GPRESSURE VOLUME PRESSAVG GPRESSAVG
ENERGY: 800000 2.8405 4.6895 1.8504 0.0000 -11841.3102 1741.8694 0.0000 0.0000 1433.0002 -8657.0603 243.0873 -10090.0605 -8654.4972 243.0873 188.2169 268.6132 29159.0637 188.2169 268.6132
ENERGY: 900000 4.1204 5.4673 4.1873 0.0000 -11335.4597 1603.5505 0.0000 0.0000 1552.3431 -8165.7911 263.3321 -9718.1342 -8163.5102 269.2598 -38.5741 32.4197 29871.7371 3.1848 3.2801
TCL: Running 1000000 steps at 300 kelvin.
TCL: Setting parameter langevinTemp to 300
TCL: Running for 1000000 steps
ETITLE: TS BOND ANGLE DIHED IMPRP ELECT VDW BOUNDARY MISC KINETIC TOTAL TEMP POTENTIAL TOTAL3 TEMPAVG PRESSURE GPRESSURE VOLUME PRESSAVG GPRESSAVG
ENERGY: 900000 4.1204 5.4673 4.1873 0.0000 -11335.4597 1603.5505 0.0000 0.0000 1551.5739 -8166.5603 263.2016 -9718.1342 -8164.0663 263.2016 -49.8537 32.0054 29871.7371 -49.8537 32.0054
ENERGY: 1100000 6.1998 9.4350 3.6587 0.0000 -10964.7172 1593.9333 0.0000 0.0000 1751.9225 -7599.5680 297.1878 -9351.4905 -7596.8863 299.8229 794.1048 900.8688 30487.0201 2.6230 2.5578
ENERGY: 1300000 1.8674 4.8098 1.6627 0.0000 -10696.6522 1455.8420 0.0000 0.0000 1795.3601 -7437.1103 304.5563 -9232.4704 -7431.7754 300.1974 24.3840 99.8144 30684.6023 2.3573 2.5161
ENERGY: 1500000 3.4080 3.4142 3.1826 0.0000 -10776.2440 1459.7478 0.0000 0.0000 1735.1594 -7571.3320 294.3442 -9306.4915 -7569.1820 300.3360 -340.0906 -206.9254 31087.5633 2.1924 2.2564
ENERGY: 1700000 3.3216 5.1780 2.7857 0.0000 -10763.9632 1466.0363 0.0000 0.0000 1739.6587 -7546.9829 295.1074 -9286.6416 -7541.3420 300.5249 192.3063 338.2543 30269.0243 2.9951 2.9809
ENERGY: 1900000 1.7116 5.4912 3.3641 0.0000 -10660.2441 1397.3043 0.0000 0.0000 1782.9883 -7469.3847 302.4576 -9252.3730 -7464.5460 299.7839 -450.3246 -300.6735 30607.5542 3.3611 3.4539
TCL: Exiting due to exit command.
