Info: SIMULATION PARAMETERS:
Info: TIMESTEP               2
Info: NUMBER OF STEPS        0
Info: STEPS PER CYCLE        10
Info: PERIODIC CELL BASIS 1  34.986 0 0
Info: PERIODIC CELL BASIS 2  0 35.267 0
Info: PERIODIC CELL BASIS 3  0 0 35.516
Info: PERIODIC CELL CENTER   0 0 0
Info: WRAPPING WATERS AROUND PERIODIC BOUNDARIES ON OUTPUT.
Info: WRAPPING ALL CLUSTERS AROUND PERIODIC BOUNDARIES ON OUTPUT.
Info: FIRST LDB TIMESTEP     50
Info: LAST LDB TIMESTEP     -1
Info: HOM BACKGROUND SCALING 1
Info: PME BACKGROUND SCALING 1
Info: MIN ATOMS PER PATCH    40
Info: EMPTY PATCH LOAD       40 ATOMS
Info: INITIAL TEMPERATURE    300
Info: CENTER OF MASS MOVING INITIALLY? NO
Info: DIELECTRIC             1
Info: EXCLUDE                SCALED ONE-FOUR
Info: 1-4 ELECTROSTATICS SCALED BY 0.833333
Info: MODIFIED 1-4 VDW PARAMETERS WILL BE USED
Info: DCD FILENAME           mobley_5631798_equil.dcd
Info: DCD FREQUENCY          100000
Info: DCD FIRST STEP         100000
Info: DCD FILE WILL CONTAIN UNIT CELL DATA
Info: XST FILENAME           mobley_5631798_equil.xst
Info: XST FREQUENCY          100000
Info: NO VELOCITY DCD OUTPUT
Info: NO FORCE DCD OUTPUT
Info: OUTPUT FILENAME        mobley_5631798_equil
Info: BINARY OUTPUT FILES WILL BE USED
Info: RESTART FILENAME       mobley_5631798_equil.restart
Info: RESTART FREQUENCY      100000
Info: BINARY RESTART FILES WILL BE USED
Info: CUTOFF                 9
Info: PAIRLIST DISTANCE      11
Info: PAIRLIST SHRINK RATE   0.01
Info: PAIRLIST GROW RATE     0.01
Info: PAIRLIST TRIGGER       0.3
Info: PAIRLISTS PER CYCLE    2
Info: PAIRLISTS ENABLED
Info: MARGIN                 8
Info: HYDROGEN GROUP CUTOFF  2.5
Info: PATCH DIMENSION        21.5
Info: ENERGY OUTPUT STEPS    100000
Info: ENERGY EVALUATION STEPS    100000
Info: OUTPUT ENERGY PRECISION 4
Info: CROSSTERM ENERGY INCLUDED IN DIHEDRAL
Info: TIMING OUTPUT STEPS    1000000
Info: PRESSURE OUTPUT STEPS  100000
Info: LANGEVIN DYNAMICS ACTIVE
Info: LANGEVIN TEMPERATURE   30
Info: LANGEVIN USING BBK INTEGRATOR
Info: LANGEVIN DAMPING COEFFICIENT IS 1 INVERSE PS
Info: LANGEVIN DYNAMICS APPLIED TO HYDROGENS
Info: LANGEVIN PISTON PRESSURE CONTROL ACTIVE
Info:        TARGET PRESSURE IS 1.01325 BAR
Info:     OSCILLATION PERIOD IS 50 FS
Info:             DECAY TIME IS 25 FS
Info:     PISTON TEMPERATURE IS 300 K
Info:       PRESSURE CONTROL IS GROUP-BASED
Info:    INITIAL STRAIN RATE IS 0 0 0
Info:       CELL FLUCTUATION IS ISOTROPIC
Info: PARTICLE MESH EWALD (PME) ACTIVE
Info: PME TOLERANCE               1e-06
Info: PME EWALD COEFFICIENT       0.348832
Info: PME INTERPOLATION ORDER     4
Info: PME GRID DIMENSIONS         36 36 36
Info: PME MAXIMUM GRID SPACING    1
Info: FULL ELECTROSTATIC EVALUATION FREQUENCY      2
Info: USING VERLET I (r-RESPA) MTS SCHEME.
Info: C1 SPLITTING OF LONG RANGE ELECTROSTATICS
Info: PLACING ATOMS IN PATCHES BY HYDROGEN GROUPS
Info: RIGID BONDS TO HYDROGEN : ALL
Info:         ERROR TOLERANCE : 1e-08
Info:          MAX ITERATIONS : 100
Info: RIGID WATER USING SETTLE ALGORITHM
Info: RANDOM NUMBER SEED     1743142912
Info: USE HYDROGEN BONDS?    NO
Info: Using AMBER format force field!
Info: AMBER PARM FILE        mobley_5631798.prmtop
Info: COORDINATE PDB         mobley_5631798.pdb
Info: Exclusions will be read from PARM file!
Info: SCNB (VDW SCALING)     2
Info: USING ARITHMETIC MEAN TO COMBINE L-J SIGMA PARAMETERS
Info: BINARY COORDINATES     mobley_5631798_min.coor
Info: SUMMARY OF PARAMETERS:
Info: 3 BONDS
Info: 1 ANGLES
Info:   1 HARMONIC
Info:   0 COSINE-BASED
Info: 0 DIHEDRAL
Info: 0 IMPROPER
Info: 0 CROSSTERM
Info: 0 VDW
Info: 10 VDW_PAIRS
Info: 0 NBTHOLE_PAIRS
Info: STRUCTURE SUMMARY:
Info: 2932 ATOMS
Info: 2931 BONDS
Info: 3 ANGLES
Info: 0 DIHEDRALS
Info: 0 IMPROPERS
Info: 0 CROSSTERMS
Info: 2934 EXCLUSIONS
Info: 2931 RIGID BONDS
Info: 5865 DEGREES OF FREEDOM
Info: 977 HYDROGEN GROUPS
Info: 4 ATOMS IN LARGEST HYDROGEN GROUP
Info: 977 MIGRATION GROUPS
Info: 4 ATOMS IN LARGEST MIGRATION GROUP
Info: TOTAL MASS = 17600.7 amu
Info: TOTAL CHARGE = 9.99868e-05 e
Info: MASS DENSITY = 0.666962 g/cm^3
Info: ATOM DENSITY = 0.0669079 atoms/A^3
Info: ADDED 0 IMPLICIT EXCLUSIONS
Info: NONBONDED TABLE R-SQUARED SPACING: 0.0625
Info: NONBONDED TABLE SIZE: 705 POINTS
Info: REMOVING COM VELOCITY -0.05444 -0.0282277 0.0361892
TCL: Running for 100000 steps
ETITLE: TS BOND ANGLE DIHED IMPRP ELECT VDW BOUNDARY MISC KINETIC TOTAL TEMP POTENTIAL TOTAL3 TEMPAVG PRESSURE GPRESSURE VOLUME PRESSAVG GPRESSAVG
ENERGY: 0 0.0000 0.5956 0.0000 0.0000 -13602.0015 2396.3633 0.0000 0.0000 1682.4439 -9522.5987 288.7107 -11205.0426 -9522.2872 288.7107 435.1341 461.5991 43821.4614 435.1341 461.5991
ENERGY: 100000 0.0000 0.4316 0.0000 0.0000 -14066.6615 2320.9642 0.0000 0.0000 169.0948 -11576.1709 29.0170 -11745.2657 -11575.7077 30.8934 -1367.4913 -1300.4786 28770.1822 4.6826 4.6746
TCL: Running 100000 steps at 60 kelvin.
TCL: Setting parameter langevinTemp to 60
TCL: Running for 100000 steps
ETITLE: TS BOND ANGLE DIHED IMPRP ELECT VDW BOUNDARY MISC KINETIC TOTAL TEMP POTENTIAL TOTAL3 TEMPAVG PRESSURE GPRESSURE VOLUME PRESSAVG GPRESSAVG
ENERGY: 100000 0.0000 0.4316 0.0000 0.0000 -14066.6615 2320.9642 0.0000 0.0000 169.0069 -11576.2588 29.0019 -11745.2657 -11575.8468 29.0019 -1362.6541 -1300.1982 28770.1822 -1362.6541 -1300.1982
ENERGY: 200000 0.0000 1.2388 0.0000 0.0000 -14179.0875 2507.9574 0.0000 0.0000 344.8435 -11325.0477 59.1758 -11669.8912 -11324.2296 59.9871 742.8584 807.8671 28132.2717 4.4859 4.4829
TCL: Running 100000 steps at 90 kelvin.
TCL: Setting parameter langevinTemp to 90
TCL: Running for 100000 steps
ETITLE: TS BOND ANGLE DIHED IMPRP ELECT VDW BOUNDARY MISC KINETIC TOTAL TEMP POTENTIAL TOTAL3 TEMPAVG PRESSURE GPRESSURE VOLUME PRESSAVG GPRESSAVG
ENERGY: 200000 0.0000 1.2388 0.0000 0.0000 -14179.0875 2507.9574 0.0000 0.0000 344.6652 -11325.2260 59.1452 -11669.8912 -11324.5856 59.1452 747.1665 807.7146 28132.2717 747.1665 807.7146
ENERGY: 300000 0.0000 0.3668 0.0000 0.0000 -13945.4475 2399.2753 0.0000 0.0000 527.0789 -11018.7265 90.4478 -11545.8054 -11017.5821 90.0319 78.0566 144.8662 28422.0350 3.9058 3.9406
TCL: Running 100000 steps at 120 kelvin.
TCL: Setting parameter langevinTemp to 120
TCL: Running for 100000 steps
ETITLE: TS BOND ANGLE DIHED IMPRP ELECT VDW BOUNDARY MISC KINETIC TOTAL TEMP POTENTIAL TOTAL3 TEMPAVG PRESSURE GPRESSURE VOLUME PRESSAVG GPRESSAVG
ENERGY: 300000 0.0000 0.3668 0.0000 0.0000 -13945.4475 2399.2753 0.0000 0.0000 526.8163 -11018.9891 90.4027 -11545.8054 -11017.9519 90.4027 80.5230 144.9354 28422.0350 80.5230 144.9354
ENERGY: 400000 0.0000 0.6857 0.0000 0.0000 -13758.0878 2367.8942 0.0000 0.0000 690.8882 -10698.6197 118.5578 -11389.5079 -10697.0806 119.7744 462.8857 486.7953 28536.2654 3.7136 3.6440
TCL: Running 100000 steps at 150 kelvin.
TCL: Setting parameter langevinTemp to 150
TCL: Running for 100000 steps
ETITLE: TS BOND ANGLE DIHED IMPRP ELECT VDW BOUNDARY MISC KINETIC TOTAL TEMP POTENTIAL TOTAL3 TEMPAVG PRESSURE GPRESSURE VOLUME PRESSAVG GPRESSAVG
ENERGY: 400000 0.0000 0.6857 0.0000 0.0000 -13758.0878 2367.8942 0.0000 0.0000 690.5287 -10698.9792 118.4961 -11389.5079 -10697.8369 118.4961 430.3289 486.6082 28536.2654 430.3289 486.6082
ENERGY: 500000 0.0000 1.9143 0.0000 0.0000 -13568.1062 2307.2758 0.0000 0.0000 877.9892 -10380.9268 150.6647 -11258.9161 -10377.2635 150.1626 538.2082 533.1679 28501.6108 4.1484 3.9945
TCL: Running 100000 steps at 180 kelvin.
TCL: Setting parameter langevinTemp to 180
TCL: Running for 100000 steps
ETITLE: TS BOND ANGLE DIHED IMPRP ELECT VDW BOUNDARY MISC KINETIC TOTAL TEMP POTENTIAL TOTAL3 TEMPAVG PRESSURE GPRESSURE VOLUME PRESSAVG GPRESSAVG
ENERGY: 500000 0.0000 1.9143 0.0000 0.0000 -13568.1062 2307.2758 0.0000 0.0000 877.5555 -10381.3605 150.5903 -11258.9161 -10379.9297 150.5903 475.2245 534.5156 28501.6108 475.2245 534.5156
ENERGY: 600000 0.0000 0.8387 0.0000 0.0000 -13065.2316 2140.8353 0.0000 0.0000 1030.0009 -9893.5568 176.7502 -10923.5577 -9892.8700 180.4171 364.1377 477.7096 28361.3052 4.5919 4.5745
TCL: Running 100000 steps at 210 kelvin.
TCL: Setting parameter langevinTemp to 210
TCL: Running for 100000 steps
ETITLE: TS BOND ANGLE DIHED IMPRP ELECT VDW BOUNDARY MISC KINETIC TOTAL TEMP POTENTIAL TOTAL3 TEMPAVG PRESSURE GPRESSURE VOLUME PRESSAVG GPRESSAVG
ENERGY: 600000 0.0000 0.8387 0.0000 0.0000 -13065.2316 2140.8353 0.0000 0.0000 1029.4898 -9894.0679 176.6625 -10923.5577 -9891.7283 176.6625 405.4644 477.7813 28361.3052 405.4644 477.7813
ENERGY: 700000 0.0000 0.3545 0.0000 0.0000 -12306.6049 1817.1401 0.0000 0.0000 1243.7944 -9245.3159 213.4376 -10489.1104 -9243.4494 209.9015 -639.2330 -571.5583 28704.3151 2.0947 2.2620
TCL: Running 100000 steps at 240 kelvin.
TCL: Setting parameter langevinTemp to 240
TCL: Running for 100000 steps
ETITLE: TS BOND ANGLE DIHED IMPRP ELECT VDW BOUNDARY MISC KINETIC TOTAL TEMP POTENTIAL TOTAL3 TEMPAVG PRESSURE GPRESSURE VOLUME PRESSAVG GPRESSAVG
ENERGY: 700000 0.0000 0.3545 0.0000 0.0000 -12306.6049 1817.1401 0.0000 0.0000 1243.2049 -9245.9054 213.3365 -10489.1104 -9243.6103 213.3365 -634.4524 -572.2110 28704.3151 -634.4524 -572.2110
ENERGY: 800000 0.0000 2.6521 0.0000 0.0000 -11795.7844 1690.6547 0.0000 0.0000 1393.2858 -8709.1917 239.0906 -10102.4775 -8705.5484 239.6281 -418.0446 -408.3619 28884.5934 3.7355 3.8445
TCL: Running 100000 steps at 270 kelvin.
TCL: Setting parameter langevinTemp to 270
TCL: Running for 100000 steps
ETITLE: TS BOND ANGLE DIHED IMPRP ELECT VDW BOUNDARY MISC KINETIC TOTAL TEMP POTENTIAL TOTAL3 TEMPAVG PRESSURE GPRESSURE VOLUME PRESSAVG GPRESSAVG
ENERGY: 800000 0.0000 2.6521 0.0000 0.0000 -11795.7844 1690.6547 0.0000 0.0000 1392.5986 -8709.8789 238.9727 -10102.4775 -8707.5428 238.9727 -475.6042 -409.0368 28884.5934 -475.6042 -409.0368
ENERGY: 900000 0.0000 0.2149 0.0000 0.0000 -11242.3712 1572.2666 0.0000 0.0000 1606.0190 -8063.8707 275.5961 -9669.8897 -8063.1592 270.1149 -152.1186 -102.7075 29512.2780 4.1483 4.1668
TCL: Running 1000000 steps at 300 kelvin.
TCL: Setting parameter langevinTemp to 300
TCL: Running for 1000000 steps
ETITLE: TS BOND ANGLE DIHED IMPRP ELECT VDW BOUNDARY MISC KINETIC TOTAL TEMP POTENTIAL TOTAL3 TEMPAVG PRESSURE GPRESSURE VOLUME PRESSAVG GPRESSAVG
ENERGY: 900000 0.0000 0.2149 0.0000 0.0000 -11242.3712 1572.2666 0.0000 0.0000 1605.2311 -8064.6586 275.4609 -9669.8897 -8062.3846 275.4609 -175.4666 -104.8520 29512.2780 -175.4666 -104.8520
ENERGY: 1100000 0.0000 3.3139 0.0000 0.0000 -10695.4513 1479.0242 0.0000 0.0000 1718.9572 -7494.1560 294.9765 -9213.1132 -7490.0905 300.5634 272.0044 301.8342 30492.5544 2.4684 2.5031
ENERGY: 1300000 0.0000 1.2558 0.0000 0.0000 -10620.2437 1422.1069 0.0000 0.0000 1788.8645 -7408.0165 306.9728 -9196.8811 -7407.9729 299.5292 -77.9355 43.3423 30188.3439 1.8102 1.9760
ENERGY: 1500000 0.0000 0.2942 0.0000 0.0000 -10557.4643 1347.1597 0.0000 0.0000 1699.0773 -7510.9330 291.5651 -9210.0104 -7508.1914 300.2611 -794.3586 -700.3128 30155.1280 2.9443 2.8330
ENERGY: 1700000 0.0000 0.5060 0.0000 0.0000 -10783.2170 1545.0751 0.0000 0.0000 1731.6459 -7505.9901 297.1539 -9237.6360 -7505.5332 300.0582 1076.7726 1121.4055 29656.5102 3.7551 3.6766
ENERGY: 1900000 0.0000 0.6816 0.0000 0.0000 -10710.9164 1491.0926 0.0000 0.0000 1803.0646 -7416.0776 309.4095 -9219.1422 -7409.4522 300.3341 535.1628 598.0632 30034.1188 2.9618 2.9045
TCL: Exiting due to exit command.
