Info: SIMULATION PARAMETERS:
Info: TIMESTEP               2
Info: NUMBER OF STEPS        0
Info: STEPS PER CYCLE        10
Info: PERIODIC CELL BASIS 1  36.592 0 0
Info: PERIODIC CELL BASIS 2  0 35.267 0
Info: PERIODIC CELL BASIS 3  0 0 34.68
Info: PERIODIC CELL CENTER   0 0 0
Info: WRAPPING WATERS AROUND PERIODIC BOUNDARIES ON OUTPUT.
Info: WRAPPING ALL CLUSTERS AROUND PERIODIC BOUNDARIES ON OUTPUT.
Info: FIRST LDB TIMESTEP     50
Info: LAST LDB TIMESTEP     -1
Info: HOM BACKGROUND SCALING 1
Info: PME BACKGROUND SCALING 1
Info: MIN ATOMS PER PATCH    40
Info: EMPTY PATCH LOAD       40 ATOMS
Info: INITIAL TEMPERATURE    300
Info: CENTER OF MASS MOVING INITIALLY? NO
Info: DIELECTRIC             1
Info: EXCLUDE                SCALED ONE-FOUR
Info: 1-4 ELECTROSTATICS SCALED BY 0.833333
Info: MODIFIED 1-4 VDW PARAMETERS WILL BE USED
Info: DCD FILENAME           mobley_1800170_equil.dcd
Info: DCD FREQUENCY          100000
Info: DCD FIRST STEP         100000
Info: DCD FILE WILL CONTAIN UNIT CELL DATA
Info: XST FILENAME           mobley_1800170_equil.xst
Info: XST FREQUENCY          100000
Info: NO VELOCITY DCD OUTPUT
Info: NO FORCE DCD OUTPUT
Info: OUTPUT FILENAME        mobley_1800170_equil
Info: BINARY OUTPUT FILES WILL BE USED
Info: RESTART FILENAME       mobley_1800170_equil.restart
Info: RESTART FREQUENCY      100000
Info: BINARY RESTART FILES WILL BE USED
Info: CUTOFF                 9
Info: PAIRLIST DISTANCE      11
Info: PAIRLIST SHRINK RATE   0.01
Info: PAIRLIST GROW RATE     0.01
Info: PAIRLIST TRIGGER       0.3
Info: PAIRLISTS PER CYCLE    2
Info: PAIRLISTS ENABLED
Info: MARGIN                 8
Info: HYDROGEN GROUP CUTOFF  2.5
Info: PATCH DIMENSION        21.5
Info: ENERGY OUTPUT STEPS    100000
Info: ENERGY EVALUATION STEPS    100000
Info: OUTPUT ENERGY PRECISION 4
Info: CROSSTERM ENERGY INCLUDED IN DIHEDRAL
Info: TIMING OUTPUT STEPS    1000000
Info: PRESSURE OUTPUT STEPS  100000
Info: LANGEVIN DYNAMICS ACTIVE
Info: LANGEVIN TEMPERATURE   30
Info: LANGEVIN USING BBK INTEGRATOR
Info: LANGEVIN DAMPING COEFFICIENT IS 1 INVERSE PS
Info: LANGEVIN DYNAMICS APPLIED TO HYDROGENS
Info: LANGEVIN PISTON PRESSURE CONTROL ACTIVE
Info:        TARGET PRESSURE IS 1.01325 BAR
Info:     OSCILLATION PERIOD IS 50 FS
Info:             DECAY TIME IS 25 FS
Info:     PISTON TEMPERATURE IS 300 K
Info:       PRESSURE CONTROL IS GROUP-BASED
Info:    INITIAL STRAIN RATE IS 0 0 0
Info:       CELL FLUCTUATION IS ISOTROPIC
Info: PARTICLE MESH EWALD (PME) ACTIVE
Info: PME TOLERANCE               1e-06
Info: PME EWALD COEFFICIENT       0.348832
Info: PME INTERPOLATION ORDER     4
Info: PME GRID DIMENSIONS         40 36 36
Info: PME MAXIMUM GRID SPACING    1
Info: FULL ELECTROSTATIC EVALUATION FREQUENCY      2
Info: USING VERLET I (r-RESPA) MTS SCHEME.
Info: C1 SPLITTING OF LONG RANGE ELECTROSTATICS
Info: PLACING ATOMS IN PATCHES BY HYDROGEN GROUPS
Info: RIGID BONDS TO HYDROGEN : ALL
Info:         ERROR TOLERANCE : 1e-08
Info:          MAX ITERATIONS : 100
Info: RIGID WATER USING SETTLE ALGORITHM
Info: RANDOM NUMBER SEED     1743158490
Info: USE HYDROGEN BONDS?    NO
Info: Using AMBER format force field!
Info: AMBER PARM FILE        mobley_1800170.prmtop
Info: COORDINATE PDB         mobley_1800170.pdb
Info: Exclusions will be read from PARM file!
Info: SCNB (VDW SCALING)     2
Info: USING ARITHMETIC MEAN TO COMBINE L-J SIGMA PARAMETERS
Info: BINARY COORDINATES     mobley_1800170_min.coor
Info: SUMMARY OF PARAMETERS:
Info: 7 BONDS
Info: 7 ANGLES
Info:   7 HARMONIC
Info:   0 COSINE-BASED
Info: 2 DIHEDRAL
Info: 0 IMPROPER
Info: 0 CROSSTERM
Info: 0 VDW
Info: 28 VDW_PAIRS
Info: 0 NBTHOLE_PAIRS
Info: STRUCTURE SUMMARY:
Info: 2952 ATOMS
Info: 2951 BONDS
Info: 13 ANGLES
Info: 12 DIHEDRALS
Info: 0 IMPROPERS
Info: 0 CROSSTERMS
Info: 2976 EXCLUSIONS
Info: 2949 RIGID BONDS
Info: 5907 DEGREES OF FREEDOM
Info: 984 HYDROGEN GROUPS
Info: 4 ATOMS IN LARGEST HYDROGEN GROUP
Info: 984 MIGRATION GROUPS
Info: 4 ATOMS IN LARGEST MIGRATION GROUP
Info: TOTAL MASS = 17735.8 amu
Info: TOTAL CHARGE = 1.58325e-08 e
Info: MASS DENSITY = 0.658077 g/cm^3
Info: ATOM DENSITY = 0.0659603 atoms/A^3
Info: ADDED 0 IMPLICIT EXCLUSIONS
Info: NONBONDED TABLE R-SQUARED SPACING: 0.0625
Info: NONBONDED TABLE SIZE: 705 POINTS
Info: REMOVING COM VELOCITY -0.0415886 -0.220347 -0.0319813
TCL: Running for 100000 steps
ETITLE: TS BOND ANGLE DIHED IMPRP ELECT VDW BOUNDARY MISC KINETIC TOTAL TEMP POTENTIAL TOTAL3 TEMPAVG PRESSURE GPRESSURE VOLUME PRESSAVG GPRESSAVG
ENERGY: 0 0.0027 0.0619 0.0147 0.0000 -13599.3400 2404.6426 0.0000 0.0000 1731.2171 -9463.4009 294.9680 -11194.6181 -9463.0483 294.9680 533.6108 570.1741 44754.1954 533.6108 570.1741
ENERGY: 100000 0.0078 0.2419 0.0380 0.0000 -14255.2026 2447.7644 0.0000 0.0000 171.9213 -11635.2292 29.2923 -11807.1505 -11634.6812 30.9733 -313.5904 -263.3813 28925.3191 3.9500 3.9825
TCL: Running 100000 steps at 60 kelvin.
TCL: Setting parameter langevinTemp to 60
TCL: Running for 100000 steps
ETITLE: TS BOND ANGLE DIHED IMPRP ELECT VDW BOUNDARY MISC KINETIC TOTAL TEMP POTENTIAL TOTAL3 TEMPAVG PRESSURE GPRESSURE VOLUME PRESSAVG GPRESSAVG
ENERGY: 100000 0.0078 0.2419 0.0380 0.0000 -14255.2026 2447.7644 0.0000 0.0000 171.8311 -11635.3194 29.2769 -11807.1505 -11634.8895 29.2769 -309.5222 -263.2304 28925.3191 -309.5222 -263.2304
ENERGY: 200000 0.0529 0.5373 0.0472 0.0000 -14130.6132 2440.4623 0.0000 0.0000 352.5847 -11336.9288 60.0740 -11689.5135 -11336.1518 59.8821 -42.6684 18.6962 29031.6798 4.4499 4.3533
TCL: Running 100000 steps at 90 kelvin.
TCL: Setting parameter langevinTemp to 90
TCL: Running for 100000 steps
ETITLE: TS BOND ANGLE DIHED IMPRP ELECT VDW BOUNDARY MISC KINETIC TOTAL TEMP POTENTIAL TOTAL3 TEMPAVG PRESSURE GPRESSURE VOLUME PRESSAVG GPRESSAVG
ENERGY: 200000 0.0529 0.5373 0.0472 0.0000 -14130.6132 2440.4623 0.0000 0.0000 352.4114 -11337.1020 60.0445 -11689.5135 -11336.3298 60.0445 -34.9660 18.3094 29031.6798 -34.9660 18.3094
ENERGY: 300000 0.1201 1.6526 0.1010 0.0000 -14050.1286 2433.7012 0.0000 0.0000 543.1178 -11071.4359 92.5374 -11614.5537 -11069.5764 89.6877 451.1531 487.9559 28597.5118 4.2595 4.2752
TCL: Running 100000 steps at 120 kelvin.
TCL: Setting parameter langevinTemp to 120
TCL: Running for 100000 steps
ETITLE: TS BOND ANGLE DIHED IMPRP ELECT VDW BOUNDARY MISC KINETIC TOTAL TEMP POTENTIAL TOTAL3 TEMPAVG PRESSURE GPRESSURE VOLUME PRESSAVG GPRESSAVG
ENERGY: 300000 0.1201 1.6526 0.1010 0.0000 -14050.1286 2433.7012 0.0000 0.0000 542.8537 -11071.7000 92.4924 -11614.5537 -11070.6940 92.4924 445.3588 488.3282 28597.5118 445.3588 488.3282
ENERGY: 400000 0.0528 1.2804 0.1897 0.0000 -13804.5184 2304.8983 0.0000 0.0000 675.0173 -10823.0797 115.0107 -11498.0971 -10820.8048 119.8668 -406.2289 -369.4374 29025.9663 3.9787 4.1389
TCL: Running 100000 steps at 150 kelvin.
TCL: Setting parameter langevinTemp to 150
TCL: Running for 100000 steps
ETITLE: TS BOND ANGLE DIHED IMPRP ELECT VDW BOUNDARY MISC KINETIC TOTAL TEMP POTENTIAL TOTAL3 TEMPAVG PRESSURE GPRESSURE VOLUME PRESSAVG GPRESSAVG
ENERGY: 400000 0.0528 1.2804 0.1897 0.0000 -13804.5184 2304.8983 0.0000 0.0000 674.6692 -10823.4279 114.9514 -11498.0971 -10822.1179 114.9514 -416.4130 -368.8723 29025.9663 -416.4130 -368.8723
ENERGY: 500000 0.1105 1.6102 0.3842 0.0000 -13465.9247 2143.1134 0.0000 0.0000 880.6772 -10440.0291 150.0514 -11320.7063 -10437.4228 149.6814 -1123.0091 -1098.4344 29136.5515 1.9835 1.8492
TCL: Running 100000 steps at 180 kelvin.
TCL: Setting parameter langevinTemp to 180
TCL: Running for 100000 steps
ETITLE: TS BOND ANGLE DIHED IMPRP ELECT VDW BOUNDARY MISC KINETIC TOTAL TEMP POTENTIAL TOTAL3 TEMPAVG PRESSURE GPRESSURE VOLUME PRESSAVG GPRESSAVG
ENERGY: 500000 0.1105 1.6102 0.3842 0.0000 -13465.9247 2143.1134 0.0000 0.0000 880.2311 -10440.4752 149.9754 -11320.7063 -10438.6891 149.9754 -1148.8750 -1097.6328 29136.5515 -1148.8750 -1097.6328
ENERGY: 600000 0.1523 1.0749 0.1073 0.0000 -13200.9170 2215.3192 0.0000 0.0000 1020.8357 -9963.4276 173.9319 -10984.2633 -9961.1596 179.9019 858.3220 969.5404 28602.0727 4.0818 3.9279
TCL: Running 100000 steps at 210 kelvin.
TCL: Setting parameter langevinTemp to 210
TCL: Running for 100000 steps
ETITLE: TS BOND ANGLE DIHED IMPRP ELECT VDW BOUNDARY MISC KINETIC TOTAL TEMP POTENTIAL TOTAL3 TEMPAVG PRESSURE GPRESSURE VOLUME PRESSAVG GPRESSAVG
ENERGY: 600000 0.1523 1.0749 0.1073 0.0000 -13200.9170 2215.3192 0.0000 0.0000 1020.3182 -9963.9451 173.8437 -10984.2633 -9961.9655 173.8437 919.9561 970.1355 28602.0727 919.9561 970.1355
ENERGY: 700000 0.1546 1.8580 0.1924 0.0000 -12334.1941 1859.2044 0.0000 0.0000 1203.5086 -9269.2761 205.0561 -10472.7847 -9265.7499 210.0434 -141.6692 -74.1102 28786.5281 3.8413 3.9308
TCL: Running 100000 steps at 240 kelvin.
TCL: Setting parameter langevinTemp to 240
TCL: Running for 100000 steps
ETITLE: TS BOND ANGLE DIHED IMPRP ELECT VDW BOUNDARY MISC KINETIC TOTAL TEMP POTENTIAL TOTAL3 TEMPAVG PRESSURE GPRESSURE VOLUME PRESSAVG GPRESSAVG
ENERGY: 700000 0.1546 1.8580 0.1924 0.0000 -12334.1941 1859.2044 0.0000 0.0000 1202.9315 -9269.8532 204.9577 -10472.7847 -9267.2409 204.9577 -157.1832 -73.2534 28786.5281 -157.1832 -73.2534
ENERGY: 800000 0.3066 2.8466 0.2282 0.0000 -11806.3071 1715.4352 0.0000 0.0000 1439.2994 -8648.1912 245.2305 -10087.4906 -8644.3101 239.4655 -58.7571 29.9754 29210.7203 4.1217 4.1501
TCL: Running 100000 steps at 270 kelvin.
TCL: Setting parameter langevinTemp to 270
TCL: Running for 100000 steps
ETITLE: TS BOND ANGLE DIHED IMPRP ELECT VDW BOUNDARY MISC KINETIC TOTAL TEMP POTENTIAL TOTAL3 TEMPAVG PRESSURE GPRESSURE VOLUME PRESSAVG GPRESSAVG
ENERGY: 800000 0.3066 2.8466 0.2282 0.0000 -11806.3071 1715.4352 0.0000 0.0000 1438.6121 -8648.8785 245.1134 -10087.4906 -8646.6925 245.1134 -47.6377 30.0797 29210.7203 -47.6377 30.0797
ENERGY: 900000 0.5929 0.5320 0.2020 0.0000 -11224.0420 1620.8181 0.0000 0.0000 1589.1721 -8012.7248 270.7661 -9601.8969 -8011.6457 270.2417 453.0236 485.2185 29918.8639 2.8719 2.9197
TCL: Running 1000000 steps at 300 kelvin.
TCL: Setting parameter langevinTemp to 300
TCL: Running for 1000000 steps
ETITLE: TS BOND ANGLE DIHED IMPRP ELECT VDW BOUNDARY MISC KINETIC TOTAL TEMP POTENTIAL TOTAL3 TEMPAVG PRESSURE GPRESSURE VOLUME PRESSAVG GPRESSAVG
ENERGY: 900000 0.5929 0.5320 0.2020 0.0000 -11224.0420 1620.8181 0.0000 0.0000 1588.4031 -8013.4938 270.6351 -9601.8969 -8011.3071 270.6351 410.0692 485.3246 29918.8639 410.0692 485.3246
ENERGY: 1100000 3.1246 8.7724 0.4446 0.0000 -10788.6528 1407.3910 0.0000 0.0000 1826.4296 -7542.4905 311.1905 -9368.9202 -7540.4452 300.0654 -660.7204 -554.0884 30430.7237 5.2044 4.9909
ENERGY: 1300000 0.2670 3.7289 0.6824 0.0000 -10656.7084 1421.4356 0.0000 0.0000 1733.8284 -7496.7660 295.4130 -9230.5944 -7492.5758 299.5509 -359.0132 -283.2149 31000.6939 3.2025 3.1585
ENERGY: 1500000 0.8490 1.8874 0.0787 0.0000 -10761.2401 1474.5654 0.0000 0.0000 1770.2823 -7513.5773 301.6240 -9283.8595 -7511.6650 300.4307 133.1762 236.1523 30542.8273 3.4880 3.6482
ENERGY: 1700000 0.6112 5.2607 1.0535 0.0000 -10791.5990 1501.0132 0.0000 0.0000 1797.9460 -7485.7143 306.3374 -9283.6603 -7481.4991 300.4348 387.6643 463.9161 30310.5672 1.9429 2.1187
ENERGY: 1900000 0.9454 4.0338 0.3948 0.0000 -10657.6701 1467.4181 0.0000 0.0000 1792.2035 -7392.6744 305.3590 -9184.8779 -7389.9125 300.6194 238.6146 345.8038 30563.6582 3.5543 3.5016
TCL: Exiting due to exit command.
