Info: SIMULATION PARAMETERS:
Info: TIMESTEP               2
Info: NUMBER OF STEPS        0
Info: STEPS PER CYCLE        10
Info: PERIODIC CELL BASIS 1  34.986 0 0
Info: PERIODIC CELL BASIS 2  0 35.411 0
Info: PERIODIC CELL BASIS 3  0 0 35.723
Info: PERIODIC CELL CENTER   0 0 0
Info: WRAPPING WATERS AROUND PERIODIC BOUNDARIES ON OUTPUT.
Info: WRAPPING ALL CLUSTERS AROUND PERIODIC BOUNDARIES ON OUTPUT.
Info: FIRST LDB TIMESTEP     50
Info: LAST LDB TIMESTEP     -1
Info: HOM BACKGROUND SCALING 1
Info: PME BACKGROUND SCALING 1
Info: MIN ATOMS PER PATCH    40
Info: EMPTY PATCH LOAD       40 ATOMS
Info: INITIAL TEMPERATURE    300
Info: CENTER OF MASS MOVING INITIALLY? NO
Info: DIELECTRIC             1
Info: EXCLUDE                SCALED ONE-FOUR
Info: 1-4 ELECTROSTATICS SCALED BY 0.833333
Info: MODIFIED 1-4 VDW PARAMETERS WILL BE USED
Info: DCD FILENAME           mobley_2178600_equil.dcd
Info: DCD FREQUENCY          100000
Info: DCD FIRST STEP         100000
Info: DCD FILE WILL CONTAIN UNIT CELL DATA
Info: XST FILENAME           mobley_2178600_equil.xst
Info: XST FREQUENCY          100000
Info: NO VELOCITY DCD OUTPUT
Info: NO FORCE DCD OUTPUT
Info: OUTPUT FILENAME        mobley_2178600_equil
Info: BINARY OUTPUT FILES WILL BE USED
Info: RESTART FILENAME       mobley_2178600_equil.restart
Info: RESTART FREQUENCY      100000
Info: BINARY RESTART FILES WILL BE USED
Info: CUTOFF                 9
Info: PAIRLIST DISTANCE      11
Info: PAIRLIST SHRINK RATE   0.01
Info: PAIRLIST GROW RATE     0.01
Info: PAIRLIST TRIGGER       0.3
Info: PAIRLISTS PER CYCLE    2
Info: PAIRLISTS ENABLED
Info: MARGIN                 8
Info: HYDROGEN GROUP CUTOFF  2.5
Info: PATCH DIMENSION        21.5
Info: ENERGY OUTPUT STEPS    100000
Info: ENERGY EVALUATION STEPS    100000
Info: OUTPUT ENERGY PRECISION 4
Info: CROSSTERM ENERGY INCLUDED IN DIHEDRAL
Info: TIMING OUTPUT STEPS    1000000
Info: PRESSURE OUTPUT STEPS  100000
Info: LANGEVIN DYNAMICS ACTIVE
Info: LANGEVIN TEMPERATURE   30
Info: LANGEVIN USING BBK INTEGRATOR
Info: LANGEVIN DAMPING COEFFICIENT IS 1 INVERSE PS
Info: LANGEVIN DYNAMICS APPLIED TO HYDROGENS
Info: LANGEVIN PISTON PRESSURE CONTROL ACTIVE
Info:        TARGET PRESSURE IS 1.01325 BAR
Info:     OSCILLATION PERIOD IS 50 FS
Info:             DECAY TIME IS 25 FS
Info:     PISTON TEMPERATURE IS 300 K
Info:       PRESSURE CONTROL IS GROUP-BASED
Info:    INITIAL STRAIN RATE IS 0 0 0
Info:       CELL FLUCTUATION IS ISOTROPIC
Info: PARTICLE MESH EWALD (PME) ACTIVE
Info: PME TOLERANCE               1e-06
Info: PME EWALD COEFFICIENT       0.348832
Info: PME INTERPOLATION ORDER     4
Info: PME GRID DIMENSIONS         36 36 36
Info: PME MAXIMUM GRID SPACING    1
Info: FULL ELECTROSTATIC EVALUATION FREQUENCY      2
Info: USING VERLET I (r-RESPA) MTS SCHEME.
Info: C1 SPLITTING OF LONG RANGE ELECTROSTATICS
Info: PLACING ATOMS IN PATCHES BY HYDROGEN GROUPS
Info: RIGID BONDS TO HYDROGEN : ALL
Info:         ERROR TOLERANCE : 1e-08
Info:          MAX ITERATIONS : 100
Info: RIGID WATER USING SETTLE ALGORITHM
Info: RANDOM NUMBER SEED     1743248382
Info: USE HYDROGEN BONDS?    NO
Info: Using AMBER format force field!
Info: AMBER PARM FILE        mobley_2178600.prmtop
Info: COORDINATE PDB         mobley_2178600.pdb
Info: Exclusions will be read from PARM file!
Info: SCNB (VDW SCALING)     2
Info: USING ARITHMETIC MEAN TO COMBINE L-J SIGMA PARAMETERS
Info: BINARY COORDINATES     mobley_2178600_min.coor
Info: SUMMARY OF PARAMETERS:
Info: 6 BONDS
Info: 7 ANGLES
Info:   7 HARMONIC
Info:   0 COSINE-BASED
Info: 8 DIHEDRAL
Info: 0 IMPROPER
Info: 0 CROSSTERM
Info: 0 VDW
Info: 21 VDW_PAIRS
Info: 0 NBTHOLE_PAIRS
Info: STRUCTURE SUMMARY:
Info: 2960 ATOMS
Info: 2959 BONDS
Info: 30 ANGLES
Info: 42 DIHEDRALS
Info: 0 IMPROPERS
Info: 0 CROSSTERMS
Info: 3025 EXCLUSIONS
Info: 2954 RIGID BONDS
Info: 5926 DEGREES OF FREEDOM
Info: 987 HYDROGEN GROUPS
Info: 4 ATOMS IN LARGEST HYDROGEN GROUP
Info: 987 MIGRATION GROUPS
Info: 4 ATOMS IN LARGEST MIGRATION GROUP
Info: TOTAL MASS = 17780.3 amu
Info: TOTAL CHARGE = -9.99868e-05 e
Info: MASS DENSITY = 0.667141 g/cm^3
Info: ATOM DENSITY = 0.0668823 atoms/A^3
Info: ADDED 0 IMPLICIT EXCLUSIONS
Info: NONBONDED TABLE R-SQUARED SPACING: 0.0625
Info: NONBONDED TABLE SIZE: 705 POINTS
Info: REMOVING COM VELOCITY 0.0469244 -0.117538 -0.269216
TCL: Running for 100000 steps
ETITLE: TS BOND ANGLE DIHED IMPRP ELECT VDW BOUNDARY MISC KINETIC TOTAL TEMP POTENTIAL TOTAL3 TEMPAVG PRESSURE GPRESSURE VOLUME PRESSAVG GPRESSAVG
ENERGY: 0 0.0660 0.2821 1.3511 0.0000 -13665.7610 2433.6779 0.0000 0.0000 1761.1668 -9469.2172 299.1088 -11230.3840 -9468.8885 299.1088 608.1168 649.0874 44256.8405 608.1168 649.0874
ENERGY: 100000 0.1129 1.0624 1.6902 0.0000 -14313.7642 2568.7283 0.0000 0.0000 172.9012 -11569.2694 29.3648 -11742.1705 -11568.6377 30.9480 822.0264 870.4030 28739.4863 4.6799 4.6985
TCL: Running 100000 steps at 60 kelvin.
TCL: Setting parameter langevinTemp to 60
TCL: Running for 100000 steps
ETITLE: TS BOND ANGLE DIHED IMPRP ELECT VDW BOUNDARY MISC KINETIC TOTAL TEMP POTENTIAL TOTAL3 TEMPAVG PRESSURE GPRESSURE VOLUME PRESSAVG GPRESSAVG
ENERGY: 100000 0.1129 1.0624 1.6902 0.0000 -14313.7642 2568.7283 0.0000 0.0000 172.8110 -11569.3596 29.3495 -11742.1705 -11568.9876 29.3495 816.4849 870.6851 28739.4863 816.4849 870.6851
ENERGY: 200000 0.2313 1.8006 1.3564 0.0000 -14207.7372 2511.7958 0.0000 0.0000 346.0015 -11346.5516 58.7634 -11692.5531 -11345.7995 60.1007 612.1777 700.5196 28618.2200 3.6448 3.6078
TCL: Running 100000 steps at 90 kelvin.
TCL: Setting parameter langevinTemp to 90
TCL: Running for 100000 steps
ETITLE: TS BOND ANGLE DIHED IMPRP ELECT VDW BOUNDARY MISC KINETIC TOTAL TEMP POTENTIAL TOTAL3 TEMPAVG PRESSURE GPRESSURE VOLUME PRESSAVG GPRESSAVG
ENERGY: 200000 0.2313 1.8006 1.3564 0.0000 -14207.7372 2511.7958 0.0000 0.0000 345.8332 -11346.7199 58.7348 -11692.5531 -11345.9115 58.7348 646.7778 700.4485 28618.2200 646.7778 700.4485
ENERGY: 300000 0.2105 1.9313 1.4054 0.0000 -13932.0691 2314.3443 0.0000 0.0000 528.9394 -11085.2383 89.8327 -11614.1776 -11083.6966 89.9855 -806.3952 -740.5670 28970.4873 4.1202 4.1962
TCL: Running 100000 steps at 120 kelvin.
TCL: Setting parameter langevinTemp to 120
TCL: Running for 100000 steps
ETITLE: TS BOND ANGLE DIHED IMPRP ELECT VDW BOUNDARY MISC KINETIC TOTAL TEMP POTENTIAL TOTAL3 TEMPAVG PRESSURE GPRESSURE VOLUME PRESSAVG GPRESSAVG
ENERGY: 300000 0.2105 1.9313 1.4054 0.0000 -13932.0691 2314.3443 0.0000 0.0000 528.6663 -11085.5113 89.7864 -11614.1776 -11084.4112 89.7864 -803.5403 -740.3854 28970.4873 -803.5403 -740.3854
ENERGY: 400000 0.4807 4.1066 1.6689 0.0000 -13857.9457 2381.4020 0.0000 0.0000 707.7705 -10762.5170 120.2046 -11470.2875 -10760.6999 120.0604 349.5661 426.6632 28838.3420 3.5179 3.3987
TCL: Running 100000 steps at 150 kelvin.
TCL: Setting parameter langevinTemp to 150
TCL: Running for 100000 steps
ETITLE: TS BOND ANGLE DIHED IMPRP ELECT VDW BOUNDARY MISC KINETIC TOTAL TEMP POTENTIAL TOTAL3 TEMPAVG PRESSURE GPRESSURE VOLUME PRESSAVG GPRESSAVG
ENERGY: 400000 0.4807 4.1066 1.6689 0.0000 -13857.9457 2381.4020 0.0000 0.0000 707.4222 -10762.8653 120.1455 -11470.2875 -10761.4991 120.1455 360.6481 426.6785 28838.3420 360.6481 426.6785
ENERGY: 500000 0.6777 3.4498 1.7872 0.0000 -13447.2700 2151.1480 0.0000 0.0000 897.6468 -10392.5605 152.4524 -11290.2073 -10391.2567 149.8813 -905.0487 -898.0089 29294.2735 2.9114 3.0766
TCL: Running 100000 steps at 180 kelvin.
TCL: Setting parameter langevinTemp to 180
TCL: Running for 100000 steps
ETITLE: TS BOND ANGLE DIHED IMPRP ELECT VDW BOUNDARY MISC KINETIC TOTAL TEMP POTENTIAL TOTAL3 TEMPAVG PRESSURE GPRESSURE VOLUME PRESSAVG GPRESSAVG
ENERGY: 500000 0.6777 3.4498 1.7872 0.0000 -13447.2700 2151.1480 0.0000 0.0000 897.2029 -10393.0044 152.3770 -11290.2073 -10391.0906 152.3770 -944.0377 -898.7568 29294.2735 -944.0377 -898.7568
ENERGY: 600000 0.4168 3.3861 2.5721 0.0000 -13268.9243 2234.5817 0.0000 0.0000 1056.0742 -9971.8934 179.3590 -11027.9677 -9970.1079 179.6000 992.5183 1039.8451 28669.0607 4.1051 4.3436
TCL: Running 100000 steps at 210 kelvin.
TCL: Setting parameter langevinTemp to 210
TCL: Running for 100000 steps
ETITLE: TS BOND ANGLE DIHED IMPRP ELECT VDW BOUNDARY MISC KINETIC TOTAL TEMP POTENTIAL TOTAL3 TEMPAVG PRESSURE GPRESSURE VOLUME PRESSAVG GPRESSAVG
ENERGY: 600000 0.4168 3.3861 2.5721 0.0000 -13268.9243 2234.5817 0.0000 0.0000 1055.5273 -9972.4404 179.2661 -11027.9677 -9970.3144 179.2661 979.9701 1039.6878 28669.0607 979.9701 1039.6878
ENERGY: 700000 0.8116 7.4149 4.0803 0.0000 -12409.2672 1853.9466 0.0000 0.0000 1269.6648 -9273.3490 215.6343 -10543.0137 -9269.7502 210.1850 -183.4202 -146.4861 28465.6768 3.8278 3.6728
TCL: Running 100000 steps at 240 kelvin.
TCL: Setting parameter langevinTemp to 240
TCL: Running for 100000 steps
ETITLE: TS BOND ANGLE DIHED IMPRP ELECT VDW BOUNDARY MISC KINETIC TOTAL TEMP POTENTIAL TOTAL3 TEMPAVG PRESSURE GPRESSURE VOLUME PRESSAVG GPRESSAVG
ENERGY: 700000 0.8116 7.4149 4.0803 0.0000 -12409.2672 1853.9466 0.0000 0.0000 1269.0618 -9273.9520 215.5319 -10543.0137 -9271.9775 215.5319 -225.8560 -145.0635 28465.6768 -225.8560 -145.0635
ENERGY: 800000 0.9655 5.7177 2.2990 0.0000 -11768.7167 1682.4807 0.0000 0.0000 1434.5497 -8642.7041 243.6376 -10077.2538 -8640.2475 239.8411 -122.2243 22.6339 29104.7587 4.4943 4.5332
TCL: Running 100000 steps at 270 kelvin.
TCL: Setting parameter langevinTemp to 270
TCL: Running for 100000 steps
ETITLE: TS BOND ANGLE DIHED IMPRP ELECT VDW BOUNDARY MISC KINETIC TOTAL TEMP POTENTIAL TOTAL3 TEMPAVG PRESSURE GPRESSURE VOLUME PRESSAVG GPRESSAVG
ENERGY: 800000 0.9655 5.7177 2.2990 0.0000 -11768.7167 1682.4807 0.0000 0.0000 1433.8483 -8643.4055 243.5185 -10077.2538 -8641.1413 243.5185 -48.9710 21.7259 29104.7587 -48.9710 21.7259
ENERGY: 900000 0.8327 7.5417 4.1887 0.0000 -11324.4050 1597.4121 0.0000 0.0000 1583.8035 -8130.6264 268.9862 -9714.4299 -8129.3755 269.7265 -7.8821 102.9323 29804.0981 3.3957 3.2767
TCL: Running 1000000 steps at 300 kelvin.
TCL: Setting parameter langevinTemp to 300
TCL: Running for 1000000 steps
ETITLE: TS BOND ANGLE DIHED IMPRP ELECT VDW BOUNDARY MISC KINETIC TOTAL TEMP POTENTIAL TOTAL3 TEMPAVG PRESSURE GPRESSURE VOLUME PRESSAVG GPRESSAVG
ENERGY: 900000 0.8327 7.5417 4.1887 0.0000 -11324.4050 1597.4121 0.0000 0.0000 1583.0269 -8131.4030 268.8543 -9714.4299 -8129.1821 268.8543 24.6655 99.7789 29804.0981 24.6655 99.7789
ENERGY: 1100000 1.1830 8.6299 2.2753 0.0000 -10659.3325 1378.7036 0.0000 0.0000 1766.1311 -7502.4097 299.9519 -9268.5408 -7498.9189 300.3998 -585.0762 -474.4498 30752.1038 3.7927 3.8415
ENERGY: 1300000 1.2317 7.6406 2.2837 0.0000 -10657.3427 1394.6191 0.0000 0.0000 1739.2562 -7512.3114 295.3876 -9251.5676 -7508.4331 300.2199 -558.0471 -528.1256 31088.5229 4.4128 4.3455
ENERGY: 1500000 0.7591 5.9433 2.6189 0.0000 -10563.9399 1356.6974 0.0000 0.0000 1745.4287 -7452.4925 296.4359 -9197.9212 -7446.9408 300.2516 -415.1142 -304.7156 30502.0041 3.3657 3.4875
ENERGY: 1700000 1.7117 9.2140 3.0043 0.0000 -10678.3577 1400.2678 0.0000 0.0000 1743.7354 -7520.4245 296.1483 -9264.1599 -7516.7714 300.6620 -342.6912 -286.6756 30463.0882 3.8138 3.7183
ENERGY: 1900000 0.7080 9.7891 2.7648 0.0000 -10882.4003 1534.2047 0.0000 0.0000 1815.1881 -7519.7456 308.2836 -9334.9338 -7516.2494 300.6470 446.3620 552.4632 30691.5088 2.9144 2.9469
TCL: Exiting due to exit command.
