Info: SIMULATION PARAMETERS:
Info: TIMESTEP               2
Info: NUMBER OF STEPS        0
Info: STEPS PER CYCLE        10
Info: PERIODIC CELL BASIS 1  33.943 0 0
Info: PERIODIC CELL BASIS 2  0 33.542 0
Info: PERIODIC CELL BASIS 3  0 0 38.379
Info: PERIODIC CELL CENTER   0 0 0
Info: WRAPPING WATERS AROUND PERIODIC BOUNDARIES ON OUTPUT.
Info: WRAPPING ALL CLUSTERS AROUND PERIODIC BOUNDARIES ON OUTPUT.
Info: FIRST LDB TIMESTEP     50
Info: LAST LDB TIMESTEP     -1
Info: HOM BACKGROUND SCALING 1
Info: PME BACKGROUND SCALING 1
Info: MIN ATOMS PER PATCH    40
Info: EMPTY PATCH LOAD       40 ATOMS
Info: INITIAL TEMPERATURE    300
Info: CENTER OF MASS MOVING INITIALLY? NO
Info: DIELECTRIC             1
Info: EXCLUDE                SCALED ONE-FOUR
Info: 1-4 ELECTROSTATICS SCALED BY 0.833333
Info: MODIFIED 1-4 VDW PARAMETERS WILL BE USED
Info: DCD FILENAME           mobley_7463799_equil.dcd
Info: DCD FREQUENCY          100000
Info: DCD FIRST STEP         100000
Info: DCD FILE WILL CONTAIN UNIT CELL DATA
Info: XST FILENAME           mobley_7463799_equil.xst
Info: XST FREQUENCY          100000
Info: NO VELOCITY DCD OUTPUT
Info: NO FORCE DCD OUTPUT
Info: OUTPUT FILENAME        mobley_7463799_equil
Info: BINARY OUTPUT FILES WILL BE USED
Info: RESTART FILENAME       mobley_7463799_equil.restart
Info: RESTART FREQUENCY      100000
Info: BINARY RESTART FILES WILL BE USED
Info: CUTOFF                 9
Info: PAIRLIST DISTANCE      11
Info: PAIRLIST SHRINK RATE   0.01
Info: PAIRLIST GROW RATE     0.01
Info: PAIRLIST TRIGGER       0.3
Info: PAIRLISTS PER CYCLE    2
Info: PAIRLISTS ENABLED
Info: MARGIN                 8
Info: HYDROGEN GROUP CUTOFF  2.5
Info: PATCH DIMENSION        21.5
Info: ENERGY OUTPUT STEPS    100000
Info: ENERGY EVALUATION STEPS    100000
Info: OUTPUT ENERGY PRECISION 4
Info: CROSSTERM ENERGY INCLUDED IN DIHEDRAL
Info: TIMING OUTPUT STEPS    1000000
Info: PRESSURE OUTPUT STEPS  100000
Info: LANGEVIN DYNAMICS ACTIVE
Info: LANGEVIN TEMPERATURE   30
Info: LANGEVIN USING BBK INTEGRATOR
Info: LANGEVIN DAMPING COEFFICIENT IS 1 INVERSE PS
Info: LANGEVIN DYNAMICS APPLIED TO HYDROGENS
Info: LANGEVIN PISTON PRESSURE CONTROL ACTIVE
Info:        TARGET PRESSURE IS 1.01325 BAR
Info:     OSCILLATION PERIOD IS 50 FS
Info:             DECAY TIME IS 25 FS
Info:     PISTON TEMPERATURE IS 300 K
Info:       PRESSURE CONTROL IS GROUP-BASED
Info:    INITIAL STRAIN RATE IS 0 0 0
Info:       CELL FLUCTUATION IS ISOTROPIC
Info: PARTICLE MESH EWALD (PME) ACTIVE
Info: PME TOLERANCE               1e-06
Info: PME EWALD COEFFICIENT       0.348832
Info: PME INTERPOLATION ORDER     4
Info: PME GRID DIMENSIONS         36 36 40
Info: PME MAXIMUM GRID SPACING    1
Info: FULL ELECTROSTATIC EVALUATION FREQUENCY      2
Info: USING VERLET I (r-RESPA) MTS SCHEME.
Info: C1 SPLITTING OF LONG RANGE ELECTROSTATICS
Info: PLACING ATOMS IN PATCHES BY HYDROGEN GROUPS
Info: RIGID BONDS TO HYDROGEN : ALL
Info:         ERROR TOLERANCE : 1e-08
Info:          MAX ITERATIONS : 100
Info: RIGID WATER USING SETTLE ALGORITHM
Info: RANDOM NUMBER SEED     1743251369
Info: USE HYDROGEN BONDS?    NO
Info: Using AMBER format force field!
Info: AMBER PARM FILE        mobley_7463799.prmtop
Info: COORDINATE PDB         mobley_7463799.pdb
Info: Exclusions will be read from PARM file!
Info: SCNB (VDW SCALING)     2
Info: USING ARITHMETIC MEAN TO COMBINE L-J SIGMA PARAMETERS
Info: BINARY COORDINATES     mobley_7463799_min.coor
Info: SUMMARY OF PARAMETERS:
Info: 10 BONDS
Info: 13 ANGLES
Info:   13 HARMONIC
Info:   0 COSINE-BASED
Info: 9 DIHEDRAL
Info: 0 IMPROPER
Info: 0 CROSSTERM
Info: 0 VDW
Info: 36 VDW_PAIRS
Info: 0 NBTHOLE_PAIRS
Info: STRUCTURE SUMMARY:
Info: 2953 ATOMS
Info: 2953 BONDS
Info: 37 ANGLES
Info: 60 DIHEDRALS
Info: 0 IMPROPERS
Info: 0 CROSSTERMS
Info: 3038 EXCLUSIONS
Info: 2943 RIGID BONDS
Info: 5916 DEGREES OF FREEDOM
Info: 987 HYDROGEN GROUPS
Info: 3 ATOMS IN LARGEST HYDROGEN GROUP
Info: 987 MIGRATION GROUPS
Info: 3 ATOMS IN LARGEST MIGRATION GROUP
Info: TOTAL MASS = 17737.8 amu
Info: TOTAL CHARGE = -5.58794e-08 e
Info: MASS DENSITY = 0.674104 g/cm^3
Info: ATOM DENSITY = 0.0675819 atoms/A^3
Info: ADDED 0 IMPLICIT EXCLUSIONS
Info: NONBONDED TABLE R-SQUARED SPACING: 0.0625
Info: NONBONDED TABLE SIZE: 705 POINTS
Info: REMOVING COM VELOCITY -0.0275627 -0.104687 -0.130607
TCL: Running for 100000 steps
ETITLE: TS BOND ANGLE DIHED IMPRP ELECT VDW BOUNDARY MISC KINETIC TOTAL TEMP POTENTIAL TOTAL3 TEMPAVG PRESSURE GPRESSURE VOLUME PRESSAVG GPRESSAVG
ENERGY: 0 0.2037 0.1768 1.0222 0.0000 -13676.9443 2416.3029 0.0000 0.0000 1740.1327 -9519.1061 296.0360 -11259.2388 -9518.7830 296.0360 421.9275 465.1970 43695.1096 421.9275 465.1970
ENERGY: 100000 0.4771 1.3859 1.1535 0.0000 -14168.4775 2456.4599 0.0000 0.0000 176.5796 -11532.4215 30.0402 -11709.0011 -11532.0329 30.8895 -86.5327 -35.9929 29069.3863 4.6165 4.6534
TCL: Running 100000 steps at 60 kelvin.
TCL: Setting parameter langevinTemp to 60
TCL: Running for 100000 steps
ETITLE: TS BOND ANGLE DIHED IMPRP ELECT VDW BOUNDARY MISC KINETIC TOTAL TEMP POTENTIAL TOTAL3 TEMPAVG PRESSURE GPRESSURE VOLUME PRESSAVG GPRESSAVG
ENERGY: 100000 0.4771 1.3859 1.1535 0.0000 -14168.4775 2456.4599 0.0000 0.0000 176.4908 -11532.5103 30.0251 -11709.0011 -11532.1267 30.0251 -88.3734 -36.1631 29069.3863 -88.3734 -36.1631
ENERGY: 200000 0.5212 1.9799 1.2863 0.0000 -14033.9236 2397.6776 0.0000 0.0000 356.2405 -11276.2181 60.6046 -11632.4586 -11275.3849 60.0656 30.3002 86.5130 28549.4688 5.0230 5.1095
TCL: Running 100000 steps at 90 kelvin.
TCL: Setting parameter langevinTemp to 90
TCL: Running for 100000 steps
ETITLE: TS BOND ANGLE DIHED IMPRP ELECT VDW BOUNDARY MISC KINETIC TOTAL TEMP POTENTIAL TOTAL3 TEMPAVG PRESSURE GPRESSURE VOLUME PRESSAVG GPRESSAVG
ENERGY: 200000 0.5212 1.9799 1.2863 0.0000 -14033.9236 2397.6776 0.0000 0.0000 356.0695 -11276.3891 60.5755 -11632.4586 -11275.7119 60.5755 30.9616 86.5471 28549.4688 30.9616 86.5471
ENERGY: 300000 0.8784 3.4162 1.7031 0.0000 -13948.9208 2381.0368 0.0000 0.0000 545.6845 -11016.2017 92.8333 -11561.8862 -11014.5240 89.8445 155.7572 162.2849 28495.3453 3.7792 3.8001
TCL: Running 100000 steps at 120 kelvin.
TCL: Setting parameter langevinTemp to 120
TCL: Running for 100000 steps
ETITLE: TS BOND ANGLE DIHED IMPRP ELECT VDW BOUNDARY MISC KINETIC TOTAL TEMP POTENTIAL TOTAL3 TEMPAVG PRESSURE GPRESSURE VOLUME PRESSAVG GPRESSAVG
ENERGY: 300000 0.8784 3.4162 1.7031 0.0000 -13948.9208 2381.0368 0.0000 0.0000 545.4216 -11016.4646 92.7886 -11561.8862 -11015.2496 92.7886 105.2143 162.5577 28495.3453 105.2143 162.5577
ENERGY: 400000 1.7626 2.9502 1.3004 0.0000 -13754.4381 2313.3709 0.0000 0.0000 706.4969 -10728.5571 120.1912 -11435.0540 -10726.2303 120.0779 -33.9083 25.7892 28546.2787 5.1509 5.1848
TCL: Running 100000 steps at 150 kelvin.
TCL: Setting parameter langevinTemp to 150
TCL: Running for 100000 steps
ETITLE: TS BOND ANGLE DIHED IMPRP ELECT VDW BOUNDARY MISC KINETIC TOTAL TEMP POTENTIAL TOTAL3 TEMPAVG PRESSURE GPRESSURE VOLUME PRESSAVG GPRESSAVG
ENERGY: 400000 1.7626 2.9502 1.3004 0.0000 -13754.4381 2313.3709 0.0000 0.0000 706.1488 -10728.9052 120.1319 -11435.0540 -10727.3586 120.1319 -35.2656 26.2121 28546.2787 -35.2656 26.2121
ENERGY: 500000 1.7080 5.1982 1.9747 0.0000 -13536.9548 2252.7385 0.0000 0.0000 871.5819 -10403.7534 148.2758 -11275.3353 -10402.3638 150.0104 -41.8998 -26.6490 28660.6855 3.4693 3.3050
TCL: Running 100000 steps at 180 kelvin.
TCL: Setting parameter langevinTemp to 180
TCL: Running for 100000 steps
ETITLE: TS BOND ANGLE DIHED IMPRP ELECT VDW BOUNDARY MISC KINETIC TOTAL TEMP POTENTIAL TOTAL3 TEMPAVG PRESSURE GPRESSURE VOLUME PRESSAVG GPRESSAVG
ENERGY: 500000 1.7080 5.1982 1.9747 0.0000 -13536.9548 2252.7385 0.0000 0.0000 871.1362 -10404.1991 148.2000 -11275.3353 -10402.7449 148.2000 -79.4144 -27.1939 28660.6855 -79.4144 -27.1939
ENERGY: 600000 3.6944 4.1288 2.3001 0.0000 -12984.0348 1972.9232 0.0000 0.0000 1062.2249 -9938.7636 180.7085 -11000.9885 -9935.4989 180.0856 -1400.8497 -1329.0494 29108.8087 3.1777 3.0612
TCL: Running 100000 steps at 210 kelvin.
TCL: Setting parameter langevinTemp to 210
TCL: Running for 100000 steps
ETITLE: TS BOND ANGLE DIHED IMPRP ELECT VDW BOUNDARY MISC KINETIC TOTAL TEMP POTENTIAL TOTAL3 TEMPAVG PRESSURE GPRESSURE VOLUME PRESSAVG GPRESSAVG
ENERGY: 600000 3.6944 4.1288 2.3001 0.0000 -12984.0348 1972.9232 0.0000 0.0000 1061.7184 -9939.2701 180.6224 -11000.9885 -9937.0812 180.6224 -1395.4891 -1327.8226 29108.8087 -1395.4891 -1327.8226
ENERGY: 700000 2.6509 6.2107 3.2969 0.0000 -12586.3372 2031.4847 0.0000 0.0000 1260.9285 -9281.7656 214.5125 -10542.6940 -9278.8277 210.1640 861.6847 983.1973 28796.6097 3.7700 3.7962
TCL: Running 100000 steps at 240 kelvin.
TCL: Setting parameter langevinTemp to 240
TCL: Running for 100000 steps
ETITLE: TS BOND ANGLE DIHED IMPRP ELECT VDW BOUNDARY MISC KINETIC TOTAL TEMP POTENTIAL TOTAL3 TEMPAVG PRESSURE GPRESSURE VOLUME PRESSAVG GPRESSAVG
ENERGY: 700000 2.6509 6.2107 3.2969 0.0000 -12586.3372 2031.4847 0.0000 0.0000 1260.3335 -9282.3605 214.4113 -10542.6940 -9280.4303 214.4113 906.7253 982.5971 28796.6097 906.7253 982.5971
ENERGY: 800000 3.8374 6.6836 3.4084 0.0000 -11793.5257 1720.7561 0.0000 0.0000 1422.4864 -8636.3538 241.9972 -10058.8402 -8632.5800 239.6470 -70.6538 62.3102 29216.3860 4.2633 4.1802
TCL: Running 100000 steps at 270 kelvin.
TCL: Setting parameter langevinTemp to 270
TCL: Running for 100000 steps
ETITLE: TS BOND ANGLE DIHED IMPRP ELECT VDW BOUNDARY MISC KINETIC TOTAL TEMP POTENTIAL TOTAL3 TEMPAVG PRESSURE GPRESSURE VOLUME PRESSAVG GPRESSAVG
ENERGY: 800000 3.8374 6.6836 3.4084 0.0000 -11793.5257 1720.7561 0.0000 0.0000 1421.7817 -8637.0585 241.8773 -10058.8402 -8634.8764 241.8773 -23.4769 63.8034 29216.3860 -23.4769 63.8034
ENERGY: 900000 1.8483 9.7747 6.1805 0.0000 -11128.4987 1548.9998 0.0000 0.0000 1516.4435 -8045.2518 257.9814 -9561.6954 -8041.1389 270.3766 231.8626 366.9181 29458.1534 4.0542 3.8176
TCL: Running 1000000 steps at 300 kelvin.
TCL: Setting parameter langevinTemp to 300
TCL: Running for 1000000 steps
ETITLE: TS BOND ANGLE DIHED IMPRP ELECT VDW BOUNDARY MISC KINETIC TOTAL TEMP POTENTIAL TOTAL3 TEMPAVG PRESSURE GPRESSURE VOLUME PRESSAVG GPRESSAVG
ENERGY: 900000 1.8483 9.7747 6.1805 0.0000 -11128.4987 1548.9998 0.0000 0.0000 1515.6493 -8046.0460 257.8463 -9561.6954 -8043.6633 257.8463 283.5898 367.4362 29458.1534 283.5898 367.4362
ENERGY: 1100000 2.9627 9.5777 6.6276 0.0000 -10704.2862 1475.5161 0.0000 0.0000 1749.2992 -7460.3030 297.5955 -9209.6022 -7458.5332 300.2053 489.6383 648.9576 30267.0272 3.5398 3.3851
ENERGY: 1300000 3.6763 10.9591 2.0942 0.0000 -10673.2992 1428.8672 0.0000 0.0000 1722.6147 -7505.0876 293.0558 -9227.7023 -7500.2078 300.5226 230.5807 261.6391 30333.1339 3.9454 3.7552
ENERGY: 1500000 2.1869 7.6877 5.2555 0.0000 -10597.3670 1317.9507 0.0000 0.0000 1749.0994 -7515.1868 297.5615 -9264.2862 -7509.2917 300.8227 -765.1811 -728.9502 30120.4502 2.4438 2.5344
ENERGY: 1700000 1.6449 5.6375 6.0230 0.0000 -10713.9218 1480.4520 0.0000 0.0000 1703.9086 -7516.2559 289.8735 -9220.1645 -7513.7224 300.3646 285.2918 411.6885 30493.8610 3.2001 3.3005
ENERGY: 1900000 1.9448 13.1010 2.5053 0.0000 -10638.5800 1417.4346 0.0000 0.0000 1707.8791 -7495.7152 290.5490 -9203.5943 -7492.4689 300.5352 -323.0718 -212.7382 30581.7772 3.3747 3.5436
TCL: Exiting due to exit command.
