Info: SIMULATION PARAMETERS:
Info: TIMESTEP               2
Info: NUMBER OF STEPS        0
Info: STEPS PER CYCLE        10
Info: PERIODIC CELL BASIS 1  32.955 0 0
Info: PERIODIC CELL BASIS 2  0 36.451 0
Info: PERIODIC CELL BASIS 3  0 0 37.195
Info: PERIODIC CELL CENTER   0 0 0
Info: WRAPPING WATERS AROUND PERIODIC BOUNDARIES ON OUTPUT.
Info: WRAPPING ALL CLUSTERS AROUND PERIODIC BOUNDARIES ON OUTPUT.
Info: FIRST LDB TIMESTEP     50
Info: LAST LDB TIMESTEP     -1
Info: HOM BACKGROUND SCALING 1
Info: PME BACKGROUND SCALING 1
Info: MIN ATOMS PER PATCH    40
Info: EMPTY PATCH LOAD       40 ATOMS
Info: INITIAL TEMPERATURE    300
Info: CENTER OF MASS MOVING INITIALLY? NO
Info: DIELECTRIC             1
Info: EXCLUDE                SCALED ONE-FOUR
Info: 1-4 ELECTROSTATICS SCALED BY 0.833333
Info: MODIFIED 1-4 VDW PARAMETERS WILL BE USED
Info: DCD FILENAME           mobley_6198745_equil.dcd
Info: DCD FREQUENCY          100000
Info: DCD FIRST STEP         100000
Info: DCD FILE WILL CONTAIN UNIT CELL DATA
Info: XST FILENAME           mobley_6198745_equil.xst
Info: XST FREQUENCY          100000
Info: NO VELOCITY DCD OUTPUT
Info: NO FORCE DCD OUTPUT
Info: OUTPUT FILENAME        mobley_6198745_equil
Info: BINARY OUTPUT FILES WILL BE USED
Info: RESTART FILENAME       mobley_6198745_equil.restart
Info: RESTART FREQUENCY      100000
Info: BINARY RESTART FILES WILL BE USED
Info: CUTOFF                 9
Info: PAIRLIST DISTANCE      11
Info: PAIRLIST SHRINK RATE   0.01
Info: PAIRLIST GROW RATE     0.01
Info: PAIRLIST TRIGGER       0.3
Info: PAIRLISTS PER CYCLE    2
Info: PAIRLISTS ENABLED
Info: MARGIN                 8
Info: HYDROGEN GROUP CUTOFF  2.5
Info: PATCH DIMENSION        21.5
Info: ENERGY OUTPUT STEPS    100000
Info: ENERGY EVALUATION STEPS    100000
Info: OUTPUT ENERGY PRECISION 4
Info: CROSSTERM ENERGY INCLUDED IN DIHEDRAL
Info: TIMING OUTPUT STEPS    1000000
Info: PRESSURE OUTPUT STEPS  100000
Info: LANGEVIN DYNAMICS ACTIVE
Info: LANGEVIN TEMPERATURE   30
Info: LANGEVIN USING BBK INTEGRATOR
Info: LANGEVIN DAMPING COEFFICIENT IS 1 INVERSE PS
Info: LANGEVIN DYNAMICS APPLIED TO HYDROGENS
Info: LANGEVIN PISTON PRESSURE CONTROL ACTIVE
Info:        TARGET PRESSURE IS 1.01325 BAR
Info:     OSCILLATION PERIOD IS 50 FS
Info:             DECAY TIME IS 25 FS
Info:     PISTON TEMPERATURE IS 300 K
Info:       PRESSURE CONTROL IS GROUP-BASED
Info:    INITIAL STRAIN RATE IS 0 0 0
Info:       CELL FLUCTUATION IS ISOTROPIC
Info: PARTICLE MESH EWALD (PME) ACTIVE
Info: PME TOLERANCE               1e-06
Info: PME EWALD COEFFICIENT       0.348832
Info: PME INTERPOLATION ORDER     4
Info: PME GRID DIMENSIONS         36 40 40
Info: PME MAXIMUM GRID SPACING    1
Info: FULL ELECTROSTATIC EVALUATION FREQUENCY      2
Info: USING VERLET I (r-RESPA) MTS SCHEME.
Info: C1 SPLITTING OF LONG RANGE ELECTROSTATICS
Info: PLACING ATOMS IN PATCHES BY HYDROGEN GROUPS
Info: RIGID BONDS TO HYDROGEN : ALL
Info:         ERROR TOLERANCE : 1e-08
Info:          MAX ITERATIONS : 100
Info: RIGID WATER USING SETTLE ALGORITHM
Info: RANDOM NUMBER SEED     1743260671
Info: USE HYDROGEN BONDS?    NO
Info: Using AMBER format force field!
Info: AMBER PARM FILE        mobley_6198745.prmtop
Info: COORDINATE PDB         mobley_6198745.pdb
Info: Exclusions will be read from PARM file!
Info: SCNB (VDW SCALING)     2
Info: USING ARITHMETIC MEAN TO COMBINE L-J SIGMA PARAMETERS
Info: BINARY COORDINATES     mobley_6198745_min.coor
Info: SUMMARY OF PARAMETERS:
Info: 9 BONDS
Info: 11 ANGLES
Info:   11 HARMONIC
Info:   0 COSINE-BASED
Info: 17 DIHEDRAL
Info: 0 IMPROPER
Info: 0 CROSSTERM
Info: 0 VDW
Info: 36 VDW_PAIRS
Info: 0 NBTHOLE_PAIRS
Info: STRUCTURE SUMMARY:
Info: 2984 ATOMS
Info: 2983 BONDS
Info: 48 ANGLES
Info: 93 DIHEDRALS
Info: 0 IMPROPERS
Info: 0 CROSSTERMS
Info: 3082 EXCLUSIONS
Info: 2969 RIGID BONDS
Info: 5983 DEGREES OF FREEDOM
Info: 1000 HYDROGEN GROUPS
Info: 4 ATOMS IN LARGEST HYDROGEN GROUP
Info: 1000 MIGRATION GROUPS
Info: 4 ATOMS IN LARGEST MIGRATION GROUP
Info: TOTAL MASS = 17964 amu
Info: TOTAL CHARGE = 0.000199988 e
Info: MASS DENSITY = 0.667646 g/cm^3
Info: ATOM DENSITY = 0.0667857 atoms/A^3
Info: ADDED 0 IMPLICIT EXCLUSIONS
Info: NONBONDED TABLE R-SQUARED SPACING: 0.0625
Info: NONBONDED TABLE SIZE: 705 POINTS
Info: REMOVING COM VELOCITY -0.00545533 -0.00141565 -0.0332657
TCL: Running for 100000 steps
ETITLE: TS BOND ANGLE DIHED IMPRP ELECT VDW BOUNDARY MISC KINETIC TOTAL TEMP POTENTIAL TOTAL3 TEMPAVG PRESSURE GPRESSURE VOLUME PRESSAVG GPRESSAVG
ENERGY: 0 0.4420 2.1106 16.7171 0.0000 -13742.6484 2332.0450 0.0000 0.0000 1808.5834 -9582.7504 304.2355 -11391.3338 -9582.3876 304.2355 -42.3601 -6.9011 44680.2224 -42.3601 -6.9011
ENERGY: 100000 0.7154 3.2045 17.8338 0.0000 -14446.2980 2527.0433 0.0000 0.0000 176.4441 -11721.0569 29.6810 -11897.5010 -11720.6657 31.0872 408.2822 457.4044 29252.4841 4.7792 4.7914
TCL: Running 100000 steps at 60 kelvin.
TCL: Setting parameter langevinTemp to 60
TCL: Running for 100000 steps
ETITLE: TS BOND ANGLE DIHED IMPRP ELECT VDW BOUNDARY MISC KINETIC TOTAL TEMP POTENTIAL TOTAL3 TEMPAVG PRESSURE GPRESSURE VOLUME PRESSAVG GPRESSAVG
ENERGY: 100000 0.7154 3.2045 17.8338 0.0000 -14446.2980 2527.0433 0.0000 0.0000 176.3539 -11721.1471 29.6658 -11897.5010 -11720.7683 29.6658 385.8722 457.3947 29252.4841 385.8722 457.3947
ENERGY: 200000 1.1153 4.9199 17.7244 0.0000 -14459.9176 2660.4477 0.0000 0.0000 358.0105 -11417.6998 60.2237 -11775.7103 -11416.5372 59.9814 1756.8434 1826.0924 29273.0419 4.0931 4.0605
TCL: Running 100000 steps at 90 kelvin.
TCL: Setting parameter langevinTemp to 90
TCL: Running for 100000 steps
ETITLE: TS BOND ANGLE DIHED IMPRP ELECT VDW BOUNDARY MISC KINETIC TOTAL TEMP POTENTIAL TOTAL3 TEMPAVG PRESSURE GPRESSURE VOLUME PRESSAVG GPRESSAVG
ENERGY: 200000 1.1153 4.9199 17.7244 0.0000 -14459.9176 2660.4477 0.0000 0.0000 357.8249 -11417.8854 60.1924 -11775.7103 -11417.3006 60.1924 1756.9648 1826.7071 29273.0419 1756.9648 1826.7071
ENERGY: 300000 0.5605 4.6525 16.5270 0.0000 -14254.8903 2499.6621 0.0000 0.0000 540.7700 -11192.7183 90.9670 -11733.4883 -11191.8639 90.0994 676.3394 716.7913 29167.1523 2.0293 2.0324
TCL: Running 100000 steps at 120 kelvin.
TCL: Setting parameter langevinTemp to 120
TCL: Running for 100000 steps
ETITLE: TS BOND ANGLE DIHED IMPRP ELECT VDW BOUNDARY MISC KINETIC TOTAL TEMP POTENTIAL TOTAL3 TEMPAVG PRESSURE GPRESSURE VOLUME PRESSAVG GPRESSAVG
ENERGY: 300000 0.5605 4.6525 16.5270 0.0000 -14254.8903 2499.6621 0.0000 0.0000 540.5103 -11192.9780 90.9233 -11733.4883 -11191.5748 90.9233 669.1262 715.9879 29167.1523 669.1262 715.9879
ENERGY: 400000 0.8667 5.2968 16.5779 0.0000 -14037.3831 2420.3106 0.0000 0.0000 715.5442 -10878.7870 120.3671 -11594.3311 -10877.1466 119.9169 697.0649 696.0595 29180.9308 4.0789 4.1043
TCL: Running 100000 steps at 150 kelvin.
TCL: Setting parameter langevinTemp to 150
TCL: Running for 100000 steps
ETITLE: TS BOND ANGLE DIHED IMPRP ELECT VDW BOUNDARY MISC KINETIC TOTAL TEMP POTENTIAL TOTAL3 TEMPAVG PRESSURE GPRESSURE VOLUME PRESSAVG GPRESSAVG
ENERGY: 400000 0.8667 5.2968 16.5779 0.0000 -14037.3831 2420.3106 0.0000 0.0000 715.1908 -10879.1403 120.3077 -11594.3311 -10877.6728 120.3077 664.9711 696.6547 29180.9308 664.9711 696.6547
ENERGY: 500000 3.4450 11.2148 17.0609 0.0000 -13561.1257 2114.8885 0.0000 0.0000 882.5044 -10532.0122 148.4527 -11414.5165 -10529.9162 149.6012 -1338.2310 -1319.1091 29379.9858 2.6939 2.7218
TCL: Running 100000 steps at 180 kelvin.
TCL: Setting parameter langevinTemp to 180
TCL: Running for 100000 steps
ETITLE: TS BOND ANGLE DIHED IMPRP ELECT VDW BOUNDARY MISC KINETIC TOTAL TEMP POTENTIAL TOTAL3 TEMPAVG PRESSURE GPRESSURE VOLUME PRESSAVG GPRESSAVG
ENERGY: 500000 3.4450 11.2148 17.0609 0.0000 -13561.1257 2114.8885 0.0000 0.0000 882.0563 -10532.4602 148.3774 -11414.5165 -10530.5233 148.3774 -1363.0249 -1319.3474 29379.9858 -1363.0249 -1319.3474
ENERGY: 600000 4.5113 8.2541 16.3762 0.0000 -13236.9462 2100.2836 0.0000 0.0000 1064.5066 -10043.0144 179.0687 -11107.5210 -10041.1849 179.6410 157.5649 213.1347 28726.1692 3.4700 3.4224
TCL: Running 100000 steps at 210 kelvin.
TCL: Setting parameter langevinTemp to 210
TCL: Running for 100000 steps
ETITLE: TS BOND ANGLE DIHED IMPRP ELECT VDW BOUNDARY MISC KINETIC TOTAL TEMP POTENTIAL TOTAL3 TEMPAVG PRESSURE GPRESSURE VOLUME PRESSAVG GPRESSAVG
ENERGY: 600000 4.5113 8.2541 16.3762 0.0000 -13236.9462 2100.2836 0.0000 0.0000 1063.9610 -10043.5600 178.9769 -11107.5210 -10041.6902 178.9769 163.2665 212.4929 28726.1692 163.2665 212.4929
ENERGY: 700000 4.0008 11.9849 17.5652 0.0000 -12542.7264 1892.1965 0.0000 0.0000 1242.9647 -9374.0143 209.0885 -10616.9791 -9372.0090 209.8640 -39.9909 48.0528 29141.3380 3.1502 3.2552
TCL: Running 100000 steps at 240 kelvin.
TCL: Setting parameter langevinTemp to 240
TCL: Running for 100000 steps
ETITLE: TS BOND ANGLE DIHED IMPRP ELECT VDW BOUNDARY MISC KINETIC TOTAL TEMP POTENTIAL TOTAL3 TEMPAVG PRESSURE GPRESSURE VOLUME PRESSAVG GPRESSAVG
ENERGY: 700000 4.0008 11.9849 17.5652 0.0000 -12542.7264 1892.1965 0.0000 0.0000 1242.3617 -9374.6173 208.9871 -10616.9791 -9372.5711 208.9871 -23.0907 47.3304 29141.3380 -23.0907 47.3304
ENERGY: 800000 4.3171 11.2054 18.4388 0.0000 -11946.2953 1771.2438 0.0000 0.0000 1439.7398 -8701.3504 242.1895 -10141.0902 -8699.3491 239.8105 832.7470 916.0131 29053.5698 2.9652 2.9194
TCL: Running 100000 steps at 270 kelvin.
TCL: Setting parameter langevinTemp to 270
TCL: Running for 100000 steps
ETITLE: TS BOND ANGLE DIHED IMPRP ELECT VDW BOUNDARY MISC KINETIC TOTAL TEMP POTENTIAL TOTAL3 TEMPAVG PRESSURE GPRESSURE VOLUME PRESSAVG GPRESSAVG
ENERGY: 800000 4.3171 11.2054 18.4388 0.0000 -11946.2953 1771.2438 0.0000 0.0000 1439.0273 -8702.0629 242.0697 -10141.0902 -8699.9909 242.0697 826.4725 916.3792 29053.5698 826.4725 916.3792
ENERGY: 900000 3.3219 8.8479 20.0583 0.0000 -11391.5171 1570.5747 0.0000 0.0000 1609.3330 -8179.3813 270.7181 -9788.7143 -8176.0640 269.4892 131.8582 287.4891 29731.0837 2.1025 2.0039
TCL: Running 1000000 steps at 300 kelvin.
TCL: Setting parameter langevinTemp to 300
TCL: Running for 1000000 steps
ETITLE: TS BOND ANGLE DIHED IMPRP ELECT VDW BOUNDARY MISC KINETIC TOTAL TEMP POTENTIAL TOTAL3 TEMPAVG PRESSURE GPRESSURE VOLUME PRESSAVG GPRESSAVG
ENERGY: 900000 3.3219 8.8479 20.0583 0.0000 -11391.5171 1570.5747 0.0000 0.0000 1608.5972 -8180.1171 270.5943 -9788.7143 -8178.2865 270.5943 215.2981 288.4023 29731.0837 215.2981 288.4023
ENERGY: 1100000 5.8411 12.1764 16.7994 0.0000 -10864.5005 1477.2491 0.0000 0.0000 1749.8536 -7602.5809 294.3561 -9352.4345 -7596.8878 300.6658 154.1121 240.4993 30875.4662 2.4065 2.5159
ENERGY: 1300000 4.0750 8.4419 19.7457 0.0000 -10849.1034 1489.5802 0.0000 0.0000 1759.9047 -7567.3559 296.0469 -9327.2606 -7564.7878 300.6291 439.7027 534.2537 31136.0242 2.6857 2.6766
ENERGY: 1500000 5.3701 12.4292 20.8640 0.0000 -10723.7310 1396.9143 0.0000 0.0000 1767.8831 -7520.2703 297.3890 -9288.1534 -7516.8722 300.7878 97.7623 243.7691 30607.1624 3.6639 3.4226
ENERGY: 1700000 5.0662 19.6472 19.7435 0.0000 -11007.9410 1512.8017 0.0000 0.0000 1740.8302 -7709.8522 292.8382 -9450.6824 -7705.3197 300.1744 390.2561 447.1676 30552.9085 3.7166 3.7053
ENERGY: 1900000 4.1397 17.6436 18.4708 0.0000 -10876.0473 1485.1980 0.0000 0.0000 1807.8217 -7542.7736 304.1074 -9350.5952 -7539.0610 300.7628 419.6492 488.9596 30703.5605 4.1148 4.0677
TCL: Exiting due to exit command.
