Info: SIMULATION PARAMETERS:
Info: TIMESTEP               2
Info: NUMBER OF STEPS        0
Info: STEPS PER CYCLE        10
Info: PERIODIC CELL BASIS 1  34.986 0 0
Info: PERIODIC CELL BASIS 2  0 35.779 0
Info: PERIODIC CELL BASIS 3  0 0 35.723
Info: PERIODIC CELL CENTER   0 0 0
Info: WRAPPING WATERS AROUND PERIODIC BOUNDARIES ON OUTPUT.
Info: WRAPPING ALL CLUSTERS AROUND PERIODIC BOUNDARIES ON OUTPUT.
Info: FIRST LDB TIMESTEP     50
Info: LAST LDB TIMESTEP     -1
Info: HOM BACKGROUND SCALING 1
Info: PME BACKGROUND SCALING 1
Info: MIN ATOMS PER PATCH    40
Info: EMPTY PATCH LOAD       40 ATOMS
Info: INITIAL TEMPERATURE    300
Info: CENTER OF MASS MOVING INITIALLY? NO
Info: DIELECTRIC             1
Info: EXCLUDE                SCALED ONE-FOUR
Info: 1-4 ELECTROSTATICS SCALED BY 0.833333
Info: MODIFIED 1-4 VDW PARAMETERS WILL BE USED
Info: DCD FILENAME           mobley_6309289_equil.dcd
Info: DCD FREQUENCY          100000
Info: DCD FIRST STEP         100000
Info: DCD FILE WILL CONTAIN UNIT CELL DATA
Info: XST FILENAME           mobley_6309289_equil.xst
Info: XST FREQUENCY          100000
Info: NO VELOCITY DCD OUTPUT
Info: NO FORCE DCD OUTPUT
Info: OUTPUT FILENAME        mobley_6309289_equil
Info: BINARY OUTPUT FILES WILL BE USED
Info: RESTART FILENAME       mobley_6309289_equil.restart
Info: RESTART FREQUENCY      100000
Info: BINARY RESTART FILES WILL BE USED
Info: CUTOFF                 9
Info: PAIRLIST DISTANCE      11
Info: PAIRLIST SHRINK RATE   0.01
Info: PAIRLIST GROW RATE     0.01
Info: PAIRLIST TRIGGER       0.3
Info: PAIRLISTS PER CYCLE    2
Info: PAIRLISTS ENABLED
Info: MARGIN                 8
Info: HYDROGEN GROUP CUTOFF  2.5
Info: PATCH DIMENSION        21.5
Info: ENERGY OUTPUT STEPS    100000
Info: ENERGY EVALUATION STEPS    100000
Info: OUTPUT ENERGY PRECISION 4
Info: CROSSTERM ENERGY INCLUDED IN DIHEDRAL
Info: TIMING OUTPUT STEPS    1000000
Info: PRESSURE OUTPUT STEPS  100000
Info: LANGEVIN DYNAMICS ACTIVE
Info: LANGEVIN TEMPERATURE   30
Info: LANGEVIN USING BBK INTEGRATOR
Info: LANGEVIN DAMPING COEFFICIENT IS 1 INVERSE PS
Info: LANGEVIN DYNAMICS APPLIED TO HYDROGENS
Info: LANGEVIN PISTON PRESSURE CONTROL ACTIVE
Info:        TARGET PRESSURE IS 1.01325 BAR
Info:     OSCILLATION PERIOD IS 50 FS
Info:             DECAY TIME IS 25 FS
Info:     PISTON TEMPERATURE IS 300 K
Info:       PRESSURE CONTROL IS GROUP-BASED
Info:    INITIAL STRAIN RATE IS 0 0 0
Info:       CELL FLUCTUATION IS ISOTROPIC
Info: PARTICLE MESH EWALD (PME) ACTIVE
Info: PME TOLERANCE               1e-06
Info: PME EWALD COEFFICIENT       0.348832
Info: PME INTERPOLATION ORDER     4
Info: PME GRID DIMENSIONS         36 36 36
Info: PME MAXIMUM GRID SPACING    1
Info: FULL ELECTROSTATIC EVALUATION FREQUENCY      2
Info: USING VERLET I (r-RESPA) MTS SCHEME.
Info: C1 SPLITTING OF LONG RANGE ELECTROSTATICS
Info: PLACING ATOMS IN PATCHES BY HYDROGEN GROUPS
Info: RIGID BONDS TO HYDROGEN : ALL
Info:         ERROR TOLERANCE : 1e-08
Info:          MAX ITERATIONS : 100
Info: RIGID WATER USING SETTLE ALGORITHM
Info: RANDOM NUMBER SEED     1743214241
Info: USE HYDROGEN BONDS?    NO
Info: Using AMBER format force field!
Info: AMBER PARM FILE        mobley_6309289.prmtop
Info: COORDINATE PDB         mobley_6309289.pdb
Info: Exclusions will be read from PARM file!
Info: SCNB (VDW SCALING)     2
Info: USING ARITHMETIC MEAN TO COMBINE L-J SIGMA PARAMETERS
Info: BINARY COORDINATES     mobley_6309289_min.coor
Info: SUMMARY OF PARAMETERS:
Info: 7 BONDS
Info: 9 ANGLES
Info:   9 HARMONIC
Info:   0 COSINE-BASED
Info: 8 DIHEDRAL
Info: 0 IMPROPER
Info: 0 CROSSTERM
Info: 0 VDW
Info: 28 VDW_PAIRS
Info: 0 NBTHOLE_PAIRS
Info: STRUCTURE SUMMARY:
Info: 2957 ATOMS
Info: 2957 BONDS
Info: 33 ANGLES
Info: 54 DIHEDRALS
Info: 0 IMPROPERS
Info: 0 CROSSTERMS
Info: 3035 EXCLUSIONS
Info: 2951 RIGID BONDS
Info: 5920 DEGREES OF FREEDOM
Info: 986 HYDROGEN GROUPS
Info: 3 ATOMS IN LARGEST HYDROGEN GROUP
Info: 986 MIGRATION GROUPS
Info: 3 ATOMS IN LARGEST MIGRATION GROUP
Info: TOTAL MASS = 17740.8 amu
Info: TOTAL CHARGE = 0.000299975 e
Info: MASS DENSITY = 0.658814 g/cm^3
Info: ATOM DENSITY = 0.0661273 atoms/A^3
Info: ADDED 0 IMPLICIT EXCLUSIONS
Info: NONBONDED TABLE R-SQUARED SPACING: 0.0625
Info: NONBONDED TABLE SIZE: 705 POINTS
Info: REMOVING COM VELOCITY -0.0602379 0.0276139 -0.00824626
TCL: Running for 100000 steps
ETITLE: TS BOND ANGLE DIHED IMPRP ELECT VDW BOUNDARY MISC KINETIC TOTAL TEMP POTENTIAL TOTAL3 TEMPAVG PRESSURE GPRESSURE VOLUME PRESSAVG GPRESSAVG
ENERGY: 0 0.1481 0.1627 2.4443 0.0000 -13720.1853 2448.6880 0.0000 0.0000 1720.3193 -9548.4228 292.4676 -11268.7422 -9548.1046 292.4676 692.8846 727.0014 44716.7687 692.8846 727.0014
ENERGY: 100000 0.5936 1.0577 2.5636 0.0000 -14220.1290 2467.1156 0.0000 0.0000 178.8131 -11569.9855 30.3996 -11748.7986 -11569.3650 30.9265 -94.8755 -17.4186 28587.2102 4.4508 4.5786
TCL: Running 100000 steps at 60 kelvin.
TCL: Setting parameter langevinTemp to 60
TCL: Running for 100000 steps
ETITLE: TS BOND ANGLE DIHED IMPRP ELECT VDW BOUNDARY MISC KINETIC TOTAL TEMP POTENTIAL TOTAL3 TEMPAVG PRESSURE GPRESSURE VOLUME PRESSAVG GPRESSAVG
ENERGY: 100000 0.5936 1.0577 2.5636 0.0000 -14220.1290 2467.1156 0.0000 0.0000 178.7246 -11570.0740 30.3846 -11748.7986 -11569.6856 30.3846 -83.2069 -17.3975 28587.2102 -83.2069 -17.3975
ENERGY: 200000 0.1000 1.8636 2.9072 0.0000 -14172.4453 2451.8629 0.0000 0.0000 365.9237 -11349.7879 62.2099 -11715.7117 -11348.8283 59.9981 252.1655 310.5137 28283.0766 3.6744 3.4799
TCL: Running 100000 steps at 90 kelvin.
TCL: Setting parameter langevinTemp to 90
TCL: Running for 100000 steps
ETITLE: TS BOND ANGLE DIHED IMPRP ELECT VDW BOUNDARY MISC KINETIC TOTAL TEMP POTENTIAL TOTAL3 TEMPAVG PRESSURE GPRESSURE VOLUME PRESSAVG GPRESSAVG
ENERGY: 200000 0.1000 1.8636 2.9072 0.0000 -14172.4453 2451.8629 0.0000 0.0000 365.7444 -11349.9673 62.1794 -11715.7117 -11349.1813 62.1794 264.5599 310.4239 28283.0766 264.5599 310.4239
ENERGY: 300000 0.1737 2.0188 2.4158 0.0000 -13975.7681 2348.0406 0.0000 0.0000 532.8548 -11090.2644 90.5894 -11623.1192 -11088.2239 89.9198 -424.6795 -344.6459 28509.1562 3.4858 3.5172
TCL: Running 100000 steps at 120 kelvin.
TCL: Setting parameter langevinTemp to 120
TCL: Running for 100000 steps
ETITLE: TS BOND ANGLE DIHED IMPRP ELECT VDW BOUNDARY MISC KINETIC TOTAL TEMP POTENTIAL TOTAL3 TEMPAVG PRESSURE GPRESSURE VOLUME PRESSAVG GPRESSAVG
ENERGY: 300000 0.1737 2.0188 2.4158 0.0000 -13975.7681 2348.0406 0.0000 0.0000 532.5903 -11090.5289 90.5445 -11623.1192 -11089.4669 90.5445 -412.3549 -343.8229 28509.1562 -412.3549 -343.8229
ENERGY: 400000 1.3251 2.5581 2.6814 0.0000 -13819.5756 2331.0044 0.0000 0.0000 705.3894 -10776.6172 119.9217 -11482.0066 -10774.4975 119.8878 -134.0092 -103.0938 28663.1572 4.1054 4.0916
TCL: Running 100000 steps at 150 kelvin.
TCL: Setting parameter langevinTemp to 150
TCL: Running for 100000 steps
ETITLE: TS BOND ANGLE DIHED IMPRP ELECT VDW BOUNDARY MISC KINETIC TOTAL TEMP POTENTIAL TOTAL3 TEMPAVG PRESSURE GPRESSURE VOLUME PRESSAVG GPRESSAVG
ENERGY: 400000 1.3251 2.5581 2.6814 0.0000 -13819.5756 2331.0044 0.0000 0.0000 705.0314 -10776.9752 119.8608 -11482.0066 -10775.5101 119.8608 -169.6913 -103.0862 28663.1572 -169.6913 -103.0862
ENERGY: 500000 0.5311 2.4681 3.4852 0.0000 -13639.9118 2359.4600 0.0000 0.0000 872.9955 -10400.9720 148.4160 -11273.9675 -10399.0771 150.2221 1127.3137 1147.7153 28635.2241 3.7257 3.7088
TCL: Running 100000 steps at 180 kelvin.
TCL: Setting parameter langevinTemp to 180
TCL: Running for 100000 steps
ETITLE: TS BOND ANGLE DIHED IMPRP ELECT VDW BOUNDARY MISC KINETIC TOTAL TEMP POTENTIAL TOTAL3 TEMPAVG PRESSURE GPRESSURE VOLUME PRESSAVG GPRESSAVG
ENERGY: 500000 0.5311 2.4681 3.4852 0.0000 -13639.9118 2359.4600 0.0000 0.0000 872.5394 -10401.4281 148.3384 -11273.9675 -10400.2024 148.3384 1103.8202 1148.0268 28635.2241 1103.8202 1148.0268
ENERGY: 600000 0.8238 5.6500 2.7756 0.0000 -12998.4582 2003.2410 0.0000 0.0000 1069.2494 -9916.7184 181.7807 -10985.9678 -9914.0298 180.2500 -881.5572 -805.7567 28849.5613 3.3412 3.3910
TCL: Running 100000 steps at 210 kelvin.
TCL: Setting parameter langevinTemp to 210
TCL: Running for 100000 steps
ETITLE: TS BOND ANGLE DIHED IMPRP ELECT VDW BOUNDARY MISC KINETIC TOTAL TEMP POTENTIAL TOTAL3 TEMPAVG PRESSURE GPRESSURE VOLUME PRESSAVG GPRESSAVG
ENERGY: 600000 0.8238 5.6500 2.7756 0.0000 -12998.4582 2003.2410 0.0000 0.0000 1068.7326 -9917.2352 181.6928 -10985.9678 -9915.0773 181.6928 -865.1521 -806.6008 28849.5613 -865.1521 -806.6008
ENERGY: 700000 1.7419 4.0533 3.0745 0.0000 -12511.0972 1975.4718 0.0000 0.0000 1226.0010 -9300.7547 208.4297 -10526.7557 -9295.8317 209.8048 724.0636 742.9619 28824.9208 3.1531 3.3289
TCL: Running 100000 steps at 240 kelvin.
TCL: Setting parameter langevinTemp to 240
TCL: Running for 100000 steps
ETITLE: TS BOND ANGLE DIHED IMPRP ELECT VDW BOUNDARY MISC KINETIC TOTAL TEMP POTENTIAL TOTAL3 TEMPAVG PRESSURE GPRESSURE VOLUME PRESSAVG GPRESSAVG
ENERGY: 700000 1.7419 4.0533 3.0745 0.0000 -12511.0972 1975.4718 0.0000 0.0000 1225.3784 -9301.3773 208.3238 -10526.7557 -9299.6958 208.3238 682.8060 745.1855 28824.9208 682.8060 745.1855
ENERGY: 800000 2.4020 6.6800 2.9254 0.0000 -11647.2227 1617.2936 0.0000 0.0000 1397.0433 -8620.8784 237.5082 -10017.9217 -8618.8000 240.3121 -514.1299 -420.8149 28916.6862 3.8166 3.8479
TCL: Running 100000 steps at 270 kelvin.
TCL: Setting parameter langevinTemp to 270
TCL: Running for 100000 steps
ETITLE: TS BOND ANGLE DIHED IMPRP ELECT VDW BOUNDARY MISC KINETIC TOTAL TEMP POTENTIAL TOTAL3 TEMPAVG PRESSURE GPRESSURE VOLUME PRESSAVG GPRESSAVG
ENERGY: 800000 2.4020 6.6800 2.9254 0.0000 -11647.2227 1617.2936 0.0000 0.0000 1396.3252 -8621.5965 237.3861 -10017.9217 -8619.4102 237.3861 -503.8801 -418.9080 28916.6862 -503.8801 -418.9080
ENERGY: 900000 0.9544 9.4728 2.6842 0.0000 -11368.3324 1643.5432 0.0000 0.0000 1586.2611 -8125.4166 269.6767 -9711.6777 -8122.0245 270.0373 383.4953 389.0384 29791.2039 4.6060 4.5624
TCL: Running 1000000 steps at 300 kelvin.
TCL: Setting parameter langevinTemp to 300
TCL: Running for 1000000 steps
ETITLE: TS BOND ANGLE DIHED IMPRP ELECT VDW BOUNDARY MISC KINETIC TOTAL TEMP POTENTIAL TOTAL3 TEMPAVG PRESSURE GPRESSURE VOLUME PRESSAVG GPRESSAVG
ENERGY: 900000 0.9544 9.4728 2.6842 0.0000 -11368.3324 1643.5432 0.0000 0.0000 1585.4677 -8126.2100 269.5418 -9711.6777 -8123.7036 269.5418 313.3929 389.1369 29791.2039 313.3929 389.1369
ENERGY: 1100000 1.2749 7.0347 2.6819 0.0000 -10807.6410 1445.3749 0.0000 0.0000 1765.3996 -7585.8750 300.1316 -9351.2746 -7583.2765 300.4754 73.6143 130.4694 30266.3694 2.5784 2.4602
ENERGY: 1300000 0.2694 8.0182 2.7199 0.0000 -10697.7750 1454.0561 0.0000 0.0000 1794.7244 -7437.9871 305.1170 -9232.7115 -7433.9011 300.2485 443.4357 496.7867 30135.6221 1.9256 1.9763
ENERGY: 1500000 1.9699 7.8466 3.4343 0.0000 -10831.8112 1501.9601 0.0000 0.0000 1735.9658 -7580.6347 295.1276 -9316.6004 -7576.1849 299.8357 -4.0602 97.9679 30547.0044 4.1709 4.2760
ENERGY: 1700000 0.7158 5.7283 3.2448 0.0000 -10639.6807 1381.1729 0.0000 0.0000 1815.1736 -7433.6452 308.5936 -9248.8188 -7432.1982 300.2925 -596.2407 -512.8609 31126.9594 2.2809 2.1308
ENERGY: 1900000 1.6839 7.2741 3.4102 0.0000 -10675.2185 1414.7762 0.0000 0.0000 1789.1225 -7458.9515 304.1647 -9248.0740 -7458.5755 300.3128 -50.2440 2.4909 30588.1580 3.2829 3.0466
TCL: Exiting due to exit command.
