Info: SIMULATION PARAMETERS:
Info: TIMESTEP               2
Info: NUMBER OF STEPS        0
Info: STEPS PER CYCLE        10
Info: PERIODIC CELL BASIS 1  33.998 0 0
Info: PERIODIC CELL BASIS 2  0 35.411 0
Info: PERIODIC CELL BASIS 3  0 0 36.199
Info: PERIODIC CELL CENTER   0 0 0
Info: WRAPPING WATERS AROUND PERIODIC BOUNDARIES ON OUTPUT.
Info: WRAPPING ALL CLUSTERS AROUND PERIODIC BOUNDARIES ON OUTPUT.
Info: FIRST LDB TIMESTEP     50
Info: LAST LDB TIMESTEP     -1
Info: HOM BACKGROUND SCALING 1
Info: PME BACKGROUND SCALING 1
Info: MIN ATOMS PER PATCH    40
Info: EMPTY PATCH LOAD       40 ATOMS
Info: INITIAL TEMPERATURE    300
Info: CENTER OF MASS MOVING INITIALLY? NO
Info: DIELECTRIC             1
Info: EXCLUDE                SCALED ONE-FOUR
Info: 1-4 ELECTROSTATICS SCALED BY 0.833333
Info: MODIFIED 1-4 VDW PARAMETERS WILL BE USED
Info: DCD FILENAME           mobley_7455579_equil.dcd
Info: DCD FREQUENCY          100000
Info: DCD FIRST STEP         100000
Info: DCD FILE WILL CONTAIN UNIT CELL DATA
Info: XST FILENAME           mobley_7455579_equil.xst
Info: XST FREQUENCY          100000
Info: NO VELOCITY DCD OUTPUT
Info: NO FORCE DCD OUTPUT
Info: OUTPUT FILENAME        mobley_7455579_equil
Info: BINARY OUTPUT FILES WILL BE USED
Info: RESTART FILENAME       mobley_7455579_equil.restart
Info: RESTART FREQUENCY      100000
Info: BINARY RESTART FILES WILL BE USED
Info: CUTOFF                 9
Info: PAIRLIST DISTANCE      11
Info: PAIRLIST SHRINK RATE   0.01
Info: PAIRLIST GROW RATE     0.01
Info: PAIRLIST TRIGGER       0.3
Info: PAIRLISTS PER CYCLE    2
Info: PAIRLISTS ENABLED
Info: MARGIN                 8
Info: HYDROGEN GROUP CUTOFF  2.5
Info: PATCH DIMENSION        21.5
Info: ENERGY OUTPUT STEPS    100000
Info: ENERGY EVALUATION STEPS    100000
Info: OUTPUT ENERGY PRECISION 4
Info: CROSSTERM ENERGY INCLUDED IN DIHEDRAL
Info: TIMING OUTPUT STEPS    1000000
Info: PRESSURE OUTPUT STEPS  100000
Info: LANGEVIN DYNAMICS ACTIVE
Info: LANGEVIN TEMPERATURE   30
Info: LANGEVIN USING BBK INTEGRATOR
Info: LANGEVIN DAMPING COEFFICIENT IS 1 INVERSE PS
Info: LANGEVIN DYNAMICS APPLIED TO HYDROGENS
Info: LANGEVIN PISTON PRESSURE CONTROL ACTIVE
Info:        TARGET PRESSURE IS 1.01325 BAR
Info:     OSCILLATION PERIOD IS 50 FS
Info:             DECAY TIME IS 25 FS
Info:     PISTON TEMPERATURE IS 300 K
Info:       PRESSURE CONTROL IS GROUP-BASED
Info:    INITIAL STRAIN RATE IS 0 0 0
Info:       CELL FLUCTUATION IS ISOTROPIC
Info: PARTICLE MESH EWALD (PME) ACTIVE
Info: PME TOLERANCE               1e-06
Info: PME EWALD COEFFICIENT       0.348832
Info: PME INTERPOLATION ORDER     4
Info: PME GRID DIMENSIONS         36 36 40
Info: PME MAXIMUM GRID SPACING    1
Info: FULL ELECTROSTATIC EVALUATION FREQUENCY      2
Info: USING VERLET I (r-RESPA) MTS SCHEME.
Info: C1 SPLITTING OF LONG RANGE ELECTROSTATICS
Info: PLACING ATOMS IN PATCHES BY HYDROGEN GROUPS
Info: RIGID BONDS TO HYDROGEN : ALL
Info:         ERROR TOLERANCE : 1e-08
Info:          MAX ITERATIONS : 100
Info: RIGID WATER USING SETTLE ALGORITHM
Info: RANDOM NUMBER SEED     1743249062
Info: USE HYDROGEN BONDS?    NO
Info: Using AMBER format force field!
Info: AMBER PARM FILE        mobley_7455579.prmtop
Info: COORDINATE PDB         mobley_7455579.pdb
Info: Exclusions will be read from PARM file!
Info: SCNB (VDW SCALING)     2
Info: USING ARITHMETIC MEAN TO COMBINE L-J SIGMA PARAMETERS
Info: BINARY COORDINATES     mobley_7455579_min.coor
Info: SUMMARY OF PARAMETERS:
Info: 9 BONDS
Info: 11 ANGLES
Info:   11 HARMONIC
Info:   0 COSINE-BASED
Info: 11 DIHEDRAL
Info: 0 IMPROPER
Info: 0 CROSSTERM
Info: 0 VDW
Info: 45 VDW_PAIRS
Info: 0 NBTHOLE_PAIRS
Info: STRUCTURE SUMMARY:
Info: 2939 ATOMS
Info: 2938 BONDS
Info: 28 ANGLES
Info: 36 DIHEDRALS
Info: 0 IMPROPERS
Info: 0 CROSSTERMS
Info: 2998 EXCLUSIONS
Info: 2932 RIGID BONDS
Info: 5885 DEGREES OF FREEDOM
Info: 981 HYDROGEN GROUPS
Info: 4 ATOMS IN LARGEST HYDROGEN GROUP
Info: 981 MIGRATION GROUPS
Info: 4 ATOMS IN LARGEST MIGRATION GROUP
Info: TOTAL MASS = 17649.7 amu
Info: TOTAL CHARGE = 0.000199918 e
Info: MASS DENSITY = 0.672526 g/cm^3
Info: ATOM DENSITY = 0.0674391 atoms/A^3
Info: ADDED 0 IMPLICIT EXCLUSIONS
Info: NONBONDED TABLE R-SQUARED SPACING: 0.0625
Info: NONBONDED TABLE SIZE: 705 POINTS
Info: REMOVING COM VELOCITY 0.00609034 -0.0728252 0.130783
TCL: Running for 100000 steps
ETITLE: TS BOND ANGLE DIHED IMPRP ELECT VDW BOUNDARY MISC KINETIC TOTAL TEMP POTENTIAL TOTAL3 TEMPAVG PRESSURE GPRESSURE VOLUME PRESSAVG GPRESSAVG
ENERGY: 0 0.2443 0.5657 2.4499 0.0000 -13615.7901 2391.0499 0.0000 0.0000 1770.6966 -9450.7837 302.8224 -11221.4803 -9450.4559 302.8224 410.5017 454.6146 43580.0911 410.5017 454.6146
ENERGY: 100000 0.4396 1.2018 2.1617 0.0000 -14311.7130 2562.8129 0.0000 0.0000 172.1055 -11572.9916 29.4333 -11745.0971 -11572.2898 30.8942 803.4816 841.2684 28509.5034 4.4766 4.5419
TCL: Running 100000 steps at 60 kelvin.
TCL: Setting parameter langevinTemp to 60
TCL: Running for 100000 steps
ETITLE: TS BOND ANGLE DIHED IMPRP ELECT VDW BOUNDARY MISC KINETIC TOTAL TEMP POTENTIAL TOTAL3 TEMPAVG PRESSURE GPRESSURE VOLUME PRESSAVG GPRESSAVG
ENERGY: 100000 0.4396 1.2018 2.1617 0.0000 -14311.7130 2562.8129 0.0000 0.0000 172.0173 -11573.0798 29.4182 -11745.0971 -11572.6947 29.4182 790.0662 841.3332 28509.5034 790.0662 841.3332
ENERGY: 200000 0.2373 1.5941 2.3204 0.0000 -14057.9603 2424.4036 0.0000 0.0000 353.6725 -11275.7324 60.4847 -11629.4049 -11274.9981 60.1098 27.9903 66.0035 28643.8015 4.6520 4.5394
TCL: Running 100000 steps at 90 kelvin.
TCL: Setting parameter langevinTemp to 90
TCL: Running for 100000 steps
ETITLE: TS BOND ANGLE DIHED IMPRP ELECT VDW BOUNDARY MISC KINETIC TOTAL TEMP POTENTIAL TOTAL3 TEMPAVG PRESSURE GPRESSURE VOLUME PRESSAVG GPRESSAVG
ENERGY: 200000 0.2373 1.5941 2.3204 0.0000 -14057.9603 2424.4036 0.0000 0.0000 353.5011 -11275.9038 60.4553 -11629.4049 -11275.2413 60.4553 24.7110 66.0566 28643.8015 24.7110 66.0566
ENERGY: 300000 0.5905 3.2397 2.3484 0.0000 -14028.2069 2520.3711 0.0000 0.0000 531.9784 -10969.6788 90.9783 -11501.6572 -10968.3349 89.8801 1226.7304 1298.4487 28842.7692 3.7672 3.8485
TCL: Running 100000 steps at 120 kelvin.
TCL: Setting parameter langevinTemp to 120
TCL: Running for 100000 steps
ETITLE: TS BOND ANGLE DIHED IMPRP ELECT VDW BOUNDARY MISC KINETIC TOTAL TEMP POTENTIAL TOTAL3 TEMPAVG PRESSURE GPRESSURE VOLUME PRESSAVG GPRESSAVG
ENERGY: 300000 0.5905 3.2397 2.3484 0.0000 -14028.2069 2520.3711 0.0000 0.0000 531.7319 -10969.9253 90.9362 -11501.6572 -10968.7027 90.9362 1252.5376 1298.5057 28842.7692 1252.5376 1298.5057
ENERGY: 400000 0.7802 2.5171 3.9245 0.0000 -13692.1778 2307.9548 0.0000 0.0000 687.1375 -10689.8637 117.5134 -11377.0012 -10689.4897 119.9397 -424.9713 -355.3730 29306.5693 4.7841 4.7970
TCL: Running 100000 steps at 150 kelvin.
TCL: Setting parameter langevinTemp to 150
TCL: Running for 100000 steps
ETITLE: TS BOND ANGLE DIHED IMPRP ELECT VDW BOUNDARY MISC KINETIC TOTAL TEMP POTENTIAL TOTAL3 TEMPAVG PRESSURE GPRESSURE VOLUME PRESSAVG GPRESSAVG
ENERGY: 400000 0.7802 2.5171 3.9245 0.0000 -13692.1778 2307.9548 0.0000 0.0000 686.8044 -10690.1968 117.4565 -11377.0012 -10688.8082 117.4565 -413.7768 -356.5446 29306.5693 -413.7768 -356.5446
ENERGY: 500000 0.7235 3.8524 3.0034 0.0000 -13448.3174 2200.6661 0.0000 0.0000 907.0551 -10333.0168 155.1235 -11240.0719 -10331.3484 150.0755 -303.4132 -234.8356 28790.2453 4.8803 4.8324
TCL: Running 100000 steps at 180 kelvin.
TCL: Setting parameter langevinTemp to 180
TCL: Running for 100000 steps
ETITLE: TS BOND ANGLE DIHED IMPRP ELECT VDW BOUNDARY MISC KINETIC TOTAL TEMP POTENTIAL TOTAL3 TEMPAVG PRESSURE GPRESSURE VOLUME PRESSAVG GPRESSAVG
ENERGY: 500000 0.7235 3.8524 3.0034 0.0000 -13448.3174 2200.6661 0.0000 0.0000 906.6186 -10333.4533 155.0488 -11240.0719 -10331.6916 155.0488 -296.4012 -236.2236 28790.2453 -296.4012 -236.2236
ENERGY: 600000 1.2826 4.0951 2.3916 0.0000 -13124.0531 2154.1062 0.0000 0.0000 1069.5149 -9892.6627 182.9072 -10962.1775 -9890.4663 180.2755 332.5773 359.2488 28783.6646 4.2687 4.1023
TCL: Running 100000 steps at 210 kelvin.
TCL: Setting parameter langevinTemp to 210
TCL: Running for 100000 steps
ETITLE: TS BOND ANGLE DIHED IMPRP ELECT VDW BOUNDARY MISC KINETIC TOTAL TEMP POTENTIAL TOTAL3 TEMPAVG PRESSURE GPRESSURE VOLUME PRESSAVG GPRESSAVG
ENERGY: 600000 1.2826 4.0951 2.3916 0.0000 -13124.0531 2154.1062 0.0000 0.0000 1068.9972 -9893.1803 182.8186 -10962.1775 -9891.4406 182.8186 304.1977 359.2744 28783.6646 304.1977 359.2744
ENERGY: 700000 1.0512 4.7820 1.8381 0.0000 -12304.7517 1842.1801 0.0000 0.0000 1231.7045 -9223.1957 210.6447 -10454.9002 -9219.8612 210.0651 -56.0864 -47.2126 28323.9044 3.5433 3.8483
TCL: Running 100000 steps at 240 kelvin.
TCL: Setting parameter langevinTemp to 240
TCL: Running for 100000 steps
ETITLE: TS BOND ANGLE DIHED IMPRP ELECT VDW BOUNDARY MISC KINETIC TOTAL TEMP POTENTIAL TOTAL3 TEMPAVG PRESSURE GPRESSURE VOLUME PRESSAVG GPRESSAVG
ENERGY: 700000 1.0512 4.7820 1.8381 0.0000 -12304.7517 1842.1801 0.0000 0.0000 1231.0821 -9223.8182 210.5382 -10454.9002 -9222.0058 210.5382 -107.5617 -46.1209 28323.9044 -107.5617 -46.1209
ENERGY: 800000 1.0655 3.8821 2.5237 0.0000 -11726.9521 1690.1729 0.0000 0.0000 1424.5341 -8604.7739 243.6221 -10029.3080 -8601.5090 240.2952 -109.4686 4.6760 29001.0879 5.2317 5.2887
TCL: Running 100000 steps at 270 kelvin.
TCL: Setting parameter langevinTemp to 270
TCL: Running for 100000 steps
ETITLE: TS BOND ANGLE DIHED IMPRP ELECT VDW BOUNDARY MISC KINETIC TOTAL TEMP POTENTIAL TOTAL3 TEMPAVG PRESSURE GPRESSURE VOLUME PRESSAVG GPRESSAVG
ENERGY: 800000 1.0655 3.8821 2.5237 0.0000 -11726.9521 1690.1729 0.0000 0.0000 1423.8338 -8605.4742 243.5024 -10029.3080 -8602.8301 243.5024 -78.5170 6.1013 29001.0879 -78.5170 6.1013
ENERGY: 900000 3.0929 10.2996 3.3406 0.0000 -11095.2743 1492.9533 0.0000 0.0000 1603.7745 -7981.8133 274.2756 -9585.5878 -7981.7012 269.8734 -435.5167 -388.3513 29564.7714 3.5370 3.5913
TCL: Running 1000000 steps at 300 kelvin.
TCL: Setting parameter langevinTemp to 300
TCL: Running for 1000000 steps
ETITLE: TS BOND ANGLE DIHED IMPRP ELECT VDW BOUNDARY MISC KINETIC TOTAL TEMP POTENTIAL TOTAL3 TEMPAVG PRESSURE GPRESSURE VOLUME PRESSAVG GPRESSAVG
ENERGY: 900000 3.0929 10.2996 3.3406 0.0000 -11095.2743 1492.9533 0.0000 0.0000 1603.0092 -7982.5787 274.1447 -9585.5878 -7979.5888 274.1447 -460.4818 -388.6620 29564.7714 -460.4818 -388.6620
ENERGY: 1100000 0.4035 4.4828 3.4774 0.0000 -10579.0290 1377.7834 0.0000 0.0000 1755.1426 -7437.7393 300.1624 -9192.8819 -7432.6239 299.4215 -588.6142 -450.1547 30668.3304 3.2824 3.3950
ENERGY: 1300000 1.1968 7.6127 3.0252 0.0000 -10685.5501 1403.6443 0.0000 0.0000 1801.5051 -7468.5660 308.0913 -9270.0711 -7465.6417 299.6687 -152.6533 -150.0916 29968.0027 2.3818 2.5203
ENERGY: 1500000 3.5015 7.3581 4.2293 0.0000 -10662.1611 1429.1742 0.0000 0.0000 1740.0129 -7477.8850 297.5750 -9217.8979 -7475.6146 300.6115 50.0928 92.1301 30083.0214 3.2398 3.3531
ENERGY: 1700000 0.6269 8.3502 3.7797 0.0000 -10738.5650 1488.2537 0.0000 0.0000 1724.3746 -7513.1799 294.9005 -9237.5545 -7508.3655 300.1558 608.0279 698.4848 30063.3491 2.7171 2.7611
ENERGY: 1900000 1.4886 6.0582 3.4498 0.0000 -10786.3324 1483.5971 0.0000 0.0000 1756.9737 -7534.7650 300.4756 -9291.7387 -7530.3891 299.3142 266.3262 406.0835 29975.8488 2.0810 2.1002
TCL: Exiting due to exit command.
