Info: SIMULATION PARAMETERS:
Info: TIMESTEP               2
Info: NUMBER OF STEPS        0
Info: STEPS PER CYCLE        10
Info: PERIODIC CELL BASIS 1  36.005 0 0
Info: PERIODIC CELL BASIS 2  0 34.26 0
Info: PERIODIC CELL BASIS 3  0 0 35.723
Info: PERIODIC CELL CENTER   0 0 0
Info: WRAPPING WATERS AROUND PERIODIC BOUNDARIES ON OUTPUT.
Info: WRAPPING ALL CLUSTERS AROUND PERIODIC BOUNDARIES ON OUTPUT.
Info: FIRST LDB TIMESTEP     50
Info: LAST LDB TIMESTEP     -1
Info: HOM BACKGROUND SCALING 1
Info: PME BACKGROUND SCALING 1
Info: MIN ATOMS PER PATCH    40
Info: EMPTY PATCH LOAD       40 ATOMS
Info: INITIAL TEMPERATURE    300
Info: CENTER OF MASS MOVING INITIALLY? NO
Info: DIELECTRIC             1
Info: EXCLUDE                SCALED ONE-FOUR
Info: 1-4 ELECTROSTATICS SCALED BY 0.833333
Info: MODIFIED 1-4 VDW PARAMETERS WILL BE USED
Info: DCD FILENAME           mobley_9246215_equil.dcd
Info: DCD FREQUENCY          100000
Info: DCD FIRST STEP         100000
Info: DCD FILE WILL CONTAIN UNIT CELL DATA
Info: XST FILENAME           mobley_9246215_equil.xst
Info: XST FREQUENCY          100000
Info: NO VELOCITY DCD OUTPUT
Info: NO FORCE DCD OUTPUT
Info: OUTPUT FILENAME        mobley_9246215_equil
Info: BINARY OUTPUT FILES WILL BE USED
Info: RESTART FILENAME       mobley_9246215_equil.restart
Info: RESTART FREQUENCY      100000
Info: BINARY RESTART FILES WILL BE USED
Info: CUTOFF                 9
Info: PAIRLIST DISTANCE      11
Info: PAIRLIST SHRINK RATE   0.01
Info: PAIRLIST GROW RATE     0.01
Info: PAIRLIST TRIGGER       0.3
Info: PAIRLISTS PER CYCLE    2
Info: PAIRLISTS ENABLED
Info: MARGIN                 8
Info: HYDROGEN GROUP CUTOFF  2.5
Info: PATCH DIMENSION        21.5
Info: ENERGY OUTPUT STEPS    100000
Info: ENERGY EVALUATION STEPS    100000
Info: OUTPUT ENERGY PRECISION 4
Info: CROSSTERM ENERGY INCLUDED IN DIHEDRAL
Info: TIMING OUTPUT STEPS    1000000
Info: PRESSURE OUTPUT STEPS  100000
Info: LANGEVIN DYNAMICS ACTIVE
Info: LANGEVIN TEMPERATURE   30
Info: LANGEVIN USING BBK INTEGRATOR
Info: LANGEVIN DAMPING COEFFICIENT IS 1 INVERSE PS
Info: LANGEVIN DYNAMICS APPLIED TO HYDROGENS
Info: LANGEVIN PISTON PRESSURE CONTROL ACTIVE
Info:        TARGET PRESSURE IS 1.01325 BAR
Info:     OSCILLATION PERIOD IS 50 FS
Info:             DECAY TIME IS 25 FS
Info:     PISTON TEMPERATURE IS 300 K
Info:       PRESSURE CONTROL IS GROUP-BASED
Info:    INITIAL STRAIN RATE IS 0 0 0
Info:       CELL FLUCTUATION IS ISOTROPIC
Info: PARTICLE MESH EWALD (PME) ACTIVE
Info: PME TOLERANCE               1e-06
Info: PME EWALD COEFFICIENT       0.348832
Info: PME INTERPOLATION ORDER     4
Info: PME GRID DIMENSIONS         40 36 36
Info: PME MAXIMUM GRID SPACING    1
Info: FULL ELECTROSTATIC EVALUATION FREQUENCY      2
Info: USING VERLET I (r-RESPA) MTS SCHEME.
Info: C1 SPLITTING OF LONG RANGE ELECTROSTATICS
Info: PLACING ATOMS IN PATCHES BY HYDROGEN GROUPS
Info: RIGID BONDS TO HYDROGEN : ALL
Info:         ERROR TOLERANCE : 1e-08
Info:          MAX ITERATIONS : 100
Info: RIGID WATER USING SETTLE ALGORITHM
Info: RANDOM NUMBER SEED     1743238518
Info: USE HYDROGEN BONDS?    NO
Info: Using AMBER format force field!
Info: AMBER PARM FILE        mobley_9246215.prmtop
Info: COORDINATE PDB         mobley_9246215.pdb
Info: Exclusions will be read from PARM file!
Info: SCNB (VDW SCALING)     2
Info: USING ARITHMETIC MEAN TO COMBINE L-J SIGMA PARAMETERS
Info: BINARY COORDINATES     mobley_9246215_min.coor
Info: SUMMARY OF PARAMETERS:
Info: 6 BONDS
Info: 7 ANGLES
Info: 5 DIHEDRAL
Info: 0 IMPROPER
Info: 0 CROSSTERM
Info: 0 VDW
Info: 21 VDW_PAIRS
Info: 0 NBTHOLE_PAIRS
Info: STRUCTURE SUMMARY:
Info: 2911 ATOMS
Info: 2910 BONDS
Info: 18 ANGLES
Info: 32 DIHEDRALS
Info: 0 IMPROPERS
Info: 0 CROSSTERMS
Info: 2948 EXCLUSIONS
Info: 2906 RIGID BONDS
Info: 5827 DEGREES OF FREEDOM
Info: 971 HYDROGEN GROUPS
Info: 3 ATOMS IN LARGEST HYDROGEN GROUP
Info: 971 MIGRATION GROUPS
Info: 3 ATOMS IN LARGEST MIGRATION GROUP
Info: TOTAL MASS = 17471.6 amu
Info: TOTAL CHARGE = 0.000200043 e
Info: MASS DENSITY = 0.658405 g/cm^3
Info: ATOM DENSITY = 0.0660608 atoms/A^3
Info: ADDED 0 IMPLICIT EXCLUSIONS
Info: NONBONDED TABLE R-SQUARED SPACING: 0.0625
Info: NONBONDED TABLE SIZE: 705 POINTS
Info: REMOVING COM VELOCITY 0.0416822 0.0998889 -0.0106646
TCL: Running for 100000 steps
ETITLE: TS BOND ANGLE DIHED IMPRP ELECT VDW BOUNDARY MISC KINETIC TOTAL TEMP POTENTIAL TOTAL3 TEMPAVG PRESSURE GPRESSURE VOLUME PRESSAVG GPRESSAVG
ENERGY: 0 0.0191 0.1686 5.7478 0.0000 -13435.0846 2385.1062 0.0000 0.0000 1733.9162 -9310.1267 299.4839 -11044.0428 -9309.7648 299.4839 612.3516 642.7910 44065.4386 612.3516 642.7910
ENERGY: 100000 0.1576 0.5368 6.2782 0.0000 -13940.5725 2382.6265 0.0000 0.0000 172.3364 -11378.6369 29.7661 -11550.9734 -11378.0219 30.9915 -517.9961 -460.6940 28667.1018 3.9889 3.9224
TCL: Running 100000 steps at 60 kelvin.
TCL: Setting parameter langevinTemp to 60
TCL: Running for 100000 steps
ETITLE: TS BOND ANGLE DIHED IMPRP ELECT VDW BOUNDARY MISC KINETIC TOTAL TEMP POTENTIAL TOTAL3 TEMPAVG PRESSURE GPRESSURE VOLUME PRESSAVG GPRESSAVG
ENERGY: 100000 0.1576 0.5368 6.2782 0.0000 -13940.5725 2382.6265 0.0000 0.0000 172.2503 -11378.7231 29.7513 -11550.9734 -11378.3202 29.7513 -520.8844 -460.6809 28667.1018 -520.8844 -460.6809
ENERGY: 200000 0.0776 1.1041 4.1630 0.0000 -13823.3418 2324.7878 0.0000 0.0000 347.4853 -11145.7240 60.0180 -11493.2093 -11144.7083 59.8026 -600.9908 -564.2414 28551.3381 2.9554 2.9327
TCL: Running 100000 steps at 90 kelvin.
TCL: Setting parameter langevinTemp to 90
TCL: Running for 100000 steps
ETITLE: TS BOND ANGLE DIHED IMPRP ELECT VDW BOUNDARY MISC KINETIC TOTAL TEMP POTENTIAL TOTAL3 TEMPAVG PRESSURE GPRESSURE VOLUME PRESSAVG GPRESSAVG
ENERGY: 200000 0.0776 1.1041 4.1630 0.0000 -13823.3418 2324.7878 0.0000 0.0000 347.3084 -11145.9010 59.9875 -11493.2093 -11145.1946 59.9875 -624.2704 -564.0695 28551.3381 -624.2704 -564.0695
ENERGY: 300000 0.6229 1.2054 4.4248 0.0000 -13734.0353 2329.4012 0.0000 0.0000 514.6203 -10883.7607 88.8858 -11398.3810 -10881.9269 89.8197 -356.3763 -301.8385 28571.0622 5.3084 5.2505
TCL: Running 100000 steps at 120 kelvin.
TCL: Setting parameter langevinTemp to 120
TCL: Running for 100000 steps
ETITLE: TS BOND ANGLE DIHED IMPRP ELECT VDW BOUNDARY MISC KINETIC TOTAL TEMP POTENTIAL TOTAL3 TEMPAVG PRESSURE GPRESSURE VOLUME PRESSAVG GPRESSAVG
ENERGY: 300000 0.6229 1.2054 4.4248 0.0000 -13734.0353 2329.4012 0.0000 0.0000 514.3658 -10884.0152 88.8418 -11398.3810 -10882.6998 88.8418 -355.6596 -301.2477 28571.0622 -355.6596 -301.2477
ENERGY: 400000 1.2758 2.2299 4.6564 0.0000 -13471.9615 2181.6065 0.0000 0.0000 693.5631 -10588.6298 119.7930 -11282.1929 -10586.5904 120.0802 -1250.6858 -1193.1212 28771.6709 3.6602 3.6606
TCL: Running 100000 steps at 150 kelvin.
TCL: Setting parameter langevinTemp to 150
TCL: Running for 100000 steps
ETITLE: TS BOND ANGLE DIHED IMPRP ELECT VDW BOUNDARY MISC KINETIC TOTAL TEMP POTENTIAL TOTAL3 TEMPAVG PRESSURE GPRESSURE VOLUME PRESSAVG GPRESSAVG
ENERGY: 400000 1.2758 2.2299 4.6564 0.0000 -13471.9615 2181.6065 0.0000 0.0000 693.2085 -10588.9843 119.7317 -11282.1929 -10587.4960 119.7317 -1244.5191 -1192.0861 28771.6709 -1244.5191 -1192.0861
ENERGY: 500000 0.2253 2.6484 4.2627 0.0000 -13334.8915 2222.6824 0.0000 0.0000 855.0100 -10250.0627 147.6783 -11105.0727 -10247.7973 149.7499 -101.5338 -37.6034 28502.5674 3.4077 3.4073
TCL: Running 100000 steps at 180 kelvin.
TCL: Setting parameter langevinTemp to 180
TCL: Running for 100000 steps
ETITLE: TS BOND ANGLE DIHED IMPRP ELECT VDW BOUNDARY MISC KINETIC TOTAL TEMP POTENTIAL TOTAL3 TEMPAVG PRESSURE GPRESSURE VOLUME PRESSAVG GPRESSAVG
ENERGY: 500000 0.2253 2.6484 4.2627 0.0000 -13334.8915 2222.6824 0.0000 0.0000 854.5721 -10250.5006 147.6026 -11105.0727 -10248.9493 147.6026 -91.8874 -36.5018 28502.5674 -91.8874 -36.5018
ENERGY: 600000 0.3415 3.4343 4.6124 0.0000 -12947.8342 2115.0314 0.0000 0.0000 1009.1424 -9815.2723 174.3002 -10824.4147 -9813.7660 179.8914 320.4462 326.8666 28262.8060 4.4363 4.6205
TCL: Running 100000 steps at 210 kelvin.
TCL: Setting parameter langevinTemp to 210
TCL: Running for 100000 steps
ETITLE: TS BOND ANGLE DIHED IMPRP ELECT VDW BOUNDARY MISC KINETIC TOTAL TEMP POTENTIAL TOTAL3 TEMPAVG PRESSURE GPRESSURE VOLUME PRESSAVG GPRESSAVG
ENERGY: 600000 0.3415 3.4343 4.6124 0.0000 -12947.8342 2115.0314 0.0000 0.0000 1008.6249 -9815.7898 174.2108 -10824.4147 -9814.1020 174.2108 275.6849 326.8322 28262.8060 275.6849 326.8322
ENERGY: 700000 1.0313 2.2413 8.1020 0.0000 -12340.4106 1958.9042 0.0000 0.0000 1218.1131 -9152.0188 210.3938 -10370.1319 -9148.2281 209.9591 814.0832 821.0433 28365.9137 5.2735 5.1985
TCL: Running 100000 steps at 240 kelvin.
TCL: Setting parameter langevinTemp to 240
TCL: Running for 100000 steps
ETITLE: TS BOND ANGLE DIHED IMPRP ELECT VDW BOUNDARY MISC KINETIC TOTAL TEMP POTENTIAL TOTAL3 TEMPAVG PRESSURE GPRESSURE VOLUME PRESSAVG GPRESSAVG
ENERGY: 700000 1.0313 2.2413 8.1020 0.0000 -12340.4106 1958.9042 0.0000 0.0000 1217.5245 -9152.6074 210.2922 -10370.1319 -9150.1187 210.2922 769.4277 822.8357 28365.9137 769.4277 822.8357
ENERGY: 800000 1.0020 3.3072 9.5261 0.0000 -11478.8939 1632.9718 0.0000 0.0000 1366.4894 -8465.5975 236.0215 -9832.0868 -8464.2929 239.6650 -214.4740 -142.5700 28815.3203 3.7970 3.7181
TCL: Running 100000 steps at 270 kelvin.
TCL: Setting parameter langevinTemp to 270
TCL: Running for 100000 steps
ETITLE: TS BOND ANGLE DIHED IMPRP ELECT VDW BOUNDARY MISC KINETIC TOTAL TEMP POTENTIAL TOTAL3 TEMPAVG PRESSURE GPRESSURE VOLUME PRESSAVG GPRESSAVG
ENERGY: 800000 1.0020 3.3072 9.5261 0.0000 -11478.8939 1632.9718 0.0000 0.0000 1365.8215 -8466.2653 235.9062 -9832.0868 -8463.8599 235.9062 -217.6386 -145.2100 28815.3203 -217.6386 -145.2100
ENERGY: 900000 1.7976 3.5582 6.6261 0.0000 -11125.0495 1570.5196 0.0000 0.0000 1587.7067 -7954.8414 274.2304 -9542.5481 -7951.1532 269.9515 -21.3333 26.8803 29425.2673 3.4936 3.7342
TCL: Running 1000000 steps at 300 kelvin.
TCL: Setting parameter langevinTemp to 300
TCL: Running for 1000000 steps
ETITLE: TS BOND ANGLE DIHED IMPRP ELECT VDW BOUNDARY MISC KINETIC TOTAL TEMP POTENTIAL TOTAL3 TEMPAVG PRESSURE GPRESSURE VOLUME PRESSAVG GPRESSAVG
ENERGY: 900000 1.7976 3.5582 6.6261 0.0000 -11125.0495 1570.5196 0.0000 0.0000 1586.9199 -7955.6282 274.0945 -9542.5481 -7953.4203 274.0945 -61.7377 28.2526 29425.2673 -61.7377 28.2526
ENERGY: 1100000 0.8649 3.1337 5.3512 0.0000 -10538.7348 1370.4931 0.0000 0.0000 1708.8904 -7450.0014 295.1614 -9158.8919 -7448.0967 300.2341 -584.7042 -476.1406 30162.3078 3.7826 3.9370
ENERGY: 1300000 0.5008 6.6432 6.9984 0.0000 -10572.5396 1455.5395 0.0000 0.0000 1811.0141 -7291.8435 312.8003 -9102.8576 -7289.6135 300.2172 393.5555 443.8837 30132.4991 3.5578 3.6646
ENERGY: 1500000 0.8153 5.6846 5.9075 0.0000 -10529.7433 1466.4592 0.0000 0.0000 1745.3779 -7305.4987 301.4636 -9050.8766 -7301.0680 300.8370 526.8218 535.2856 30315.7130 2.7067 2.6545
ENERGY: 1700000 2.2144 6.0156 5.9861 0.0000 -10698.8136 1475.9084 0.0000 0.0000 1724.5886 -7484.1006 297.8728 -9208.6892 -7482.7874 300.0405 -8.1561 58.0039 29965.0848 3.1460 3.3024
ENERGY: 1900000 1.5064 2.2825 7.9226 0.0000 -10626.3282 1397.4474 0.0000 0.0000 1710.0289 -7507.1404 295.3581 -9217.1693 -7504.4192 299.7439 -460.4291 -382.0012 29776.3922 2.8291 2.7617
TCL: Exiting due to exit command.
