Info: SIMULATION PARAMETERS:
Info: TIMESTEP               2
Info: NUMBER OF STEPS        0
Info: STEPS PER CYCLE        10
Info: PERIODIC CELL BASIS 1  36.281 0 0
Info: PERIODIC CELL BASIS 2  0 35.779 0
Info: PERIODIC CELL BASIS 3  0 0 34.68
Info: PERIODIC CELL CENTER   0 0 0
Info: WRAPPING WATERS AROUND PERIODIC BOUNDARIES ON OUTPUT.
Info: WRAPPING ALL CLUSTERS AROUND PERIODIC BOUNDARIES ON OUTPUT.
Info: FIRST LDB TIMESTEP     50
Info: LAST LDB TIMESTEP     -1
Info: HOM BACKGROUND SCALING 1
Info: PME BACKGROUND SCALING 1
Info: MIN ATOMS PER PATCH    40
Info: EMPTY PATCH LOAD       40 ATOMS
Info: INITIAL TEMPERATURE    300
Info: CENTER OF MASS MOVING INITIALLY? NO
Info: DIELECTRIC             1
Info: EXCLUDE                SCALED ONE-FOUR
Info: 1-4 ELECTROSTATICS SCALED BY 0.833333
Info: MODIFIED 1-4 VDW PARAMETERS WILL BE USED
Info: DCD FILENAME           mobley_2183616_equil.dcd
Info: DCD FREQUENCY          100000
Info: DCD FIRST STEP         100000
Info: DCD FILE WILL CONTAIN UNIT CELL DATA
Info: XST FILENAME           mobley_2183616_equil.xst
Info: XST FREQUENCY          100000
Info: NO VELOCITY DCD OUTPUT
Info: NO FORCE DCD OUTPUT
Info: OUTPUT FILENAME        mobley_2183616_equil
Info: BINARY OUTPUT FILES WILL BE USED
Info: RESTART FILENAME       mobley_2183616_equil.restart
Info: RESTART FREQUENCY      100000
Info: BINARY RESTART FILES WILL BE USED
Info: CUTOFF                 9
Info: PAIRLIST DISTANCE      11
Info: PAIRLIST SHRINK RATE   0.01
Info: PAIRLIST GROW RATE     0.01
Info: PAIRLIST TRIGGER       0.3
Info: PAIRLISTS PER CYCLE    2
Info: PAIRLISTS ENABLED
Info: MARGIN                 8
Info: HYDROGEN GROUP CUTOFF  2.5
Info: PATCH DIMENSION        21.5
Info: ENERGY OUTPUT STEPS    100000
Info: ENERGY EVALUATION STEPS    100000
Info: OUTPUT ENERGY PRECISION 4
Info: CROSSTERM ENERGY INCLUDED IN DIHEDRAL
Info: TIMING OUTPUT STEPS    1000000
Info: PRESSURE OUTPUT STEPS  100000
Info: LANGEVIN DYNAMICS ACTIVE
Info: LANGEVIN TEMPERATURE   30
Info: LANGEVIN USING BBK INTEGRATOR
Info: LANGEVIN DAMPING COEFFICIENT IS 1 INVERSE PS
Info: LANGEVIN DYNAMICS APPLIED TO HYDROGENS
Info: LANGEVIN PISTON PRESSURE CONTROL ACTIVE
Info:        TARGET PRESSURE IS 1.01325 BAR
Info:     OSCILLATION PERIOD IS 50 FS
Info:             DECAY TIME IS 25 FS
Info:     PISTON TEMPERATURE IS 300 K
Info:       PRESSURE CONTROL IS GROUP-BASED
Info:    INITIAL STRAIN RATE IS 0 0 0
Info:       CELL FLUCTUATION IS ISOTROPIC
Info: PARTICLE MESH EWALD (PME) ACTIVE
Info: PME TOLERANCE               1e-06
Info: PME EWALD COEFFICIENT       0.348832
Info: PME INTERPOLATION ORDER     4
Info: PME GRID DIMENSIONS         40 36 36
Info: PME MAXIMUM GRID SPACING    1
Info: FULL ELECTROSTATIC EVALUATION FREQUENCY      2
Info: USING VERLET I (r-RESPA) MTS SCHEME.
Info: C1 SPLITTING OF LONG RANGE ELECTROSTATICS
Info: PLACING ATOMS IN PATCHES BY HYDROGEN GROUPS
Info: RIGID BONDS TO HYDROGEN : ALL
Info:         ERROR TOLERANCE : 1e-08
Info:          MAX ITERATIONS : 100
Info: RIGID WATER USING SETTLE ALGORITHM
Info: RANDOM NUMBER SEED     1743245764
Info: USE HYDROGEN BONDS?    NO
Info: Using AMBER format force field!
Info: AMBER PARM FILE        mobley_2183616.prmtop
Info: COORDINATE PDB         mobley_2183616.pdb
Info: Exclusions will be read from PARM file!
Info: SCNB (VDW SCALING)     2
Info: USING ARITHMETIC MEAN TO COMBINE L-J SIGMA PARAMETERS
Info: BINARY COORDINATES     mobley_2183616_min.coor
Info: SUMMARY OF PARAMETERS:
Info: 7 BONDS
Info: 8 ANGLES
Info:   8 HARMONIC
Info:   0 COSINE-BASED
Info: 9 DIHEDRAL
Info: 0 IMPROPER
Info: 0 CROSSTERM
Info: 0 VDW
Info: 21 VDW_PAIRS
Info: 0 NBTHOLE_PAIRS
Info: STRUCTURE SUMMARY:
Info: 2931 ATOMS
Info: 2931 BONDS
Info: 42 ANGLES
Info: 65 DIHEDRALS
Info: 0 IMPROPERS
Info: 0 CROSSTERMS
Info: 3027 EXCLUSIONS
Info: 2921 RIGID BONDS
Info: 5872 DEGREES OF FREEDOM
Info: 979 HYDROGEN GROUPS
Info: 4 ATOMS IN LARGEST HYDROGEN GROUP
Info: 979 MIGRATION GROUPS
Info: 4 ATOMS IN LARGEST MIGRATION GROUP
Info: TOTAL MASS = 17591.7 amu
Info: TOTAL CHARGE = -1.67638e-08 e
Info: MASS DENSITY = 0.648905 g/cm^3
Info: ATOM DENSITY = 0.0651072 atoms/A^3
Info: ADDED 0 IMPLICIT EXCLUSIONS
Info: NONBONDED TABLE R-SQUARED SPACING: 0.0625
Info: NONBONDED TABLE SIZE: 705 POINTS
Info: REMOVING COM VELOCITY 0.198682 0.021958 -0.0837753
TCL: Running for 100000 steps
ETITLE: TS BOND ANGLE DIHED IMPRP ELECT VDW BOUNDARY MISC KINETIC TOTAL TEMP POTENTIAL TOTAL3 TEMPAVG PRESSURE GPRESSURE VOLUME PRESSAVG GPRESSAVG
ENERGY: 0 0.3410 0.6739 0.5353 0.0000 -13494.0234 2383.9359 0.0000 0.0000 1673.1529 -9435.3845 286.7741 -11108.5373 -9435.0771 286.7741 472.5425 508.3608 45018.0351 472.5425 508.3608
ENERGY: 100000 0.3300 1.1988 0.9703 0.0000 -14170.8063 2516.5388 0.0000 0.0000 176.0043 -11475.7640 30.1667 -11651.7683 -11475.2342 30.9289 574.2389 622.1102 28488.7953 3.3668 3.3820
TCL: Running 100000 steps at 60 kelvin.
TCL: Setting parameter langevinTemp to 60
TCL: Running for 100000 steps
ETITLE: TS BOND ANGLE DIHED IMPRP ELECT VDW BOUNDARY MISC KINETIC TOTAL TEMP POTENTIAL TOTAL3 TEMPAVG PRESSURE GPRESSURE VOLUME PRESSAVG GPRESSAVG
ENERGY: 100000 0.3300 1.1988 0.9703 0.0000 -14170.8063 2516.5388 0.0000 0.0000 175.9164 -11475.8518 30.1516 -11651.7683 -11475.4338 30.1516 563.4685 622.0303 28488.7953 563.4685 622.0303
ENERGY: 200000 0.5511 3.5544 1.5945 0.0000 -14008.9474 2443.7995 0.0000 0.0000 357.4466 -11202.0013 61.2654 -11559.4479 -11201.1486 59.9757 328.8271 378.2473 28373.0622 4.4843 4.4536
TCL: Running 100000 steps at 90 kelvin.
TCL: Setting parameter langevinTemp to 90
TCL: Running for 100000 steps
ETITLE: TS BOND ANGLE DIHED IMPRP ELECT VDW BOUNDARY MISC KINETIC TOTAL TEMP POTENTIAL TOTAL3 TEMPAVG PRESSURE GPRESSURE VOLUME PRESSAVG GPRESSAVG
ENERGY: 200000 0.5511 3.5544 1.5945 0.0000 -14008.9474 2443.7995 0.0000 0.0000 357.2666 -11202.1814 61.2346 -11559.4479 -11201.5516 61.2346 327.8541 378.4473 28373.0622 327.8541 378.4473
ENERGY: 300000 1.7882 3.2240 2.2703 0.0000 -13886.5424 2380.1362 0.0000 0.0000 519.9038 -10979.2199 89.1102 -11499.1237 -10977.4748 89.9167 -53.3863 -2.4202 28577.1864 3.3552 3.4193
TCL: Running 100000 steps at 120 kelvin.
TCL: Setting parameter langevinTemp to 120
TCL: Running for 100000 steps
ETITLE: TS BOND ANGLE DIHED IMPRP ELECT VDW BOUNDARY MISC KINETIC TOTAL TEMP POTENTIAL TOTAL3 TEMPAVG PRESSURE GPRESSURE VOLUME PRESSAVG GPRESSAVG
ENERGY: 300000 1.7882 3.2240 2.2703 0.0000 -13886.5424 2380.1362 0.0000 0.0000 519.6481 -10979.4757 89.0663 -11499.1237 -10978.5033 89.0663 -58.9542 -2.2430 28577.1864 -58.9542 -2.2430
ENERGY: 400000 1.0721 3.9653 2.1857 0.0000 -13568.4821 2240.4595 0.0000 0.0000 688.5855 -10632.2140 118.0218 -11320.7996 -10631.2546 119.8966 -597.8707 -550.6516 28751.3555 5.1900 5.2013
TCL: Running 100000 steps at 150 kelvin.
TCL: Setting parameter langevinTemp to 150
TCL: Running for 100000 steps
ETITLE: TS BOND ANGLE DIHED IMPRP ELECT VDW BOUNDARY MISC KINETIC TOTAL TEMP POTENTIAL TOTAL3 TEMPAVG PRESSURE GPRESSURE VOLUME PRESSAVG GPRESSAVG
ENERGY: 400000 1.0721 3.9653 2.1857 0.0000 -13568.4821 2240.4595 0.0000 0.0000 688.2310 -10632.5686 117.9610 -11320.7996 -10631.0665 117.9610 -602.1205 -550.7655 28751.3555 -602.1205 -550.7655
ENERGY: 500000 2.3407 6.9519 2.4889 0.0000 -13267.5730 2118.8136 0.0000 0.0000 861.5305 -10275.4474 147.6641 -11136.9779 -10273.2735 150.1204 -913.6020 -880.9323 28881.5633 3.9659 4.0425
TCL: Running 100000 steps at 180 kelvin.
TCL: Setting parameter langevinTemp to 180
TCL: Running for 100000 steps
ETITLE: TS BOND ANGLE DIHED IMPRP ELECT VDW BOUNDARY MISC KINETIC TOTAL TEMP POTENTIAL TOTAL3 TEMPAVG PRESSURE GPRESSURE VOLUME PRESSAVG GPRESSAVG
ENERGY: 500000 2.3407 6.9519 2.4889 0.0000 -13267.5730 2118.8136 0.0000 0.0000 861.1017 -10275.8762 147.5906 -11136.9779 -10274.2176 147.5906 -947.7114 -881.2795 28881.5633 -947.7114 -881.2795
ENERGY: 600000 1.8559 6.9121 4.2674 0.0000 -12955.2540 2119.8957 0.0000 0.0000 1048.8829 -9773.4399 179.7759 -10822.3228 -9771.5566 179.8139 294.6319 364.0921 28753.3592 3.1946 3.1795
TCL: Running 100000 steps at 210 kelvin.
TCL: Setting parameter langevinTemp to 210
TCL: Running for 100000 steps
ETITLE: TS BOND ANGLE DIHED IMPRP ELECT VDW BOUNDARY MISC KINETIC TOTAL TEMP POTENTIAL TOTAL3 TEMPAVG PRESSURE GPRESSURE VOLUME PRESSAVG GPRESSAVG
ENERGY: 600000 1.8559 6.9121 4.2674 0.0000 -12955.2540 2119.8957 0.0000 0.0000 1048.3569 -9773.9660 179.6857 -10822.3228 -9771.8636 179.6857 299.0366 362.2369 28753.3592 299.0366 362.2369
ENERGY: 700000 3.9349 5.1349 2.2802 0.0000 -12214.4216 1835.6758 0.0000 0.0000 1197.5411 -9169.8549 205.2555 -10367.3959 -9168.1334 210.2393 -337.4327 -207.2302 28729.2178 5.2858 5.3213
TCL: Running 100000 steps at 240 kelvin.
TCL: Setting parameter langevinTemp to 240
TCL: Running for 100000 steps
ETITLE: TS BOND ANGLE DIHED IMPRP ELECT VDW BOUNDARY MISC KINETIC TOTAL TEMP POTENTIAL TOTAL3 TEMPAVG PRESSURE GPRESSURE VOLUME PRESSAVG GPRESSAVG
ENERGY: 700000 3.9349 5.1349 2.2802 0.0000 -12214.4216 1835.6758 0.0000 0.0000 1196.9171 -9170.4789 205.1485 -10367.3959 -9168.0433 205.1485 -280.1125 -208.4690 28729.2178 -280.1125 -208.4690
ENERGY: 800000 2.3632 13.2470 3.9326 0.0000 -11772.3781 1717.2477 0.0000 0.0000 1435.3916 -8600.1960 246.0225 -10035.5876 -8597.6854 240.0112 152.4266 204.0939 28545.5787 2.2023 2.2745
TCL: Running 100000 steps at 270 kelvin.
TCL: Setting parameter langevinTemp to 270
TCL: Running for 100000 steps
ETITLE: TS BOND ANGLE DIHED IMPRP ELECT VDW BOUNDARY MISC KINETIC TOTAL TEMP POTENTIAL TOTAL3 TEMPAVG PRESSURE GPRESSURE VOLUME PRESSAVG GPRESSAVG
ENERGY: 800000 2.3632 13.2470 3.9326 0.0000 -11772.3781 1717.2477 0.0000 0.0000 1434.7005 -8600.8871 245.9040 -10035.5876 -8598.3301 245.9040 117.5275 203.9804 28545.5787 117.5275 203.9804
ENERGY: 900000 3.7618 13.4474 4.8406 0.0000 -11105.3059 1547.4504 0.0000 0.0000 1554.5350 -7981.2707 266.4433 -9535.8057 -7974.4270 269.9198 364.9039 435.1571 28854.8775 3.3939 3.3598
TCL: Running 1000000 steps at 300 kelvin.
TCL: Setting parameter langevinTemp to 300
TCL: Running for 1000000 steps
ETITLE: TS BOND ANGLE DIHED IMPRP ELECT VDW BOUNDARY MISC KINETIC TOTAL TEMP POTENTIAL TOTAL3 TEMPAVG PRESSURE GPRESSURE VOLUME PRESSAVG GPRESSAVG
ENERGY: 900000 3.7618 13.4474 4.8406 0.0000 -11105.3059 1547.4504 0.0000 0.0000 1553.7529 -7982.0528 266.3093 -9535.8057 -7979.7305 266.3093 359.6970 437.3664 28854.8775 359.6970 437.3664
ENERGY: 1100000 3.9093 8.7920 4.7420 0.0000 -10657.8208 1456.4494 0.0000 0.0000 1777.7091 -7406.2190 304.6948 -9183.9281 -7402.0713 301.2084 473.6778 497.5860 29762.8155 4.5126 4.4868
ENERGY: 1300000 3.2398 8.0372 3.7775 0.0000 -10363.4750 1269.8428 0.0000 0.0000 1750.5433 -7328.0344 300.0387 -9078.5777 -7324.2059 301.1510 -1193.3455 -1119.9115 30663.2594 2.3077 2.3515
ENERGY: 1500000 3.5303 14.3091 2.8682 0.0000 -10535.8306 1383.6883 0.0000 0.0000 1739.4254 -7392.0092 298.1331 -9131.4346 -7388.5306 300.6953 -375.4054 -323.2404 30783.0854 3.2508 3.0757
ENERGY: 1700000 3.5419 4.8678 3.0411 0.0000 -10533.5341 1381.4297 0.0000 0.0000 1732.4883 -7408.1654 296.9441 -9140.6537 -7406.2990 300.0450 -521.0963 -443.6014 30785.5967 3.9742 3.8543
ENERGY: 1900000 0.7771 8.4590 3.0000 0.0000 -10645.2616 1486.2221 0.0000 0.0000 1749.9917 -7396.8117 299.9441 -9146.8034 -7391.6080 300.9292 230.5372 295.6512 30582.8237 3.4854 3.5382
TCL: Exiting due to exit command.
