Info: SIMULATION PARAMETERS:
Info: TIMESTEP               2
Info: NUMBER OF STEPS        0
Info: STEPS PER CYCLE        10
Info: PERIODIC CELL BASIS 1  36.005 0 0
Info: PERIODIC CELL BASIS 2  0 34.26 0
Info: PERIODIC CELL BASIS 3  0 0 35.897
Info: PERIODIC CELL CENTER   0 0 0
Info: WRAPPING WATERS AROUND PERIODIC BOUNDARIES ON OUTPUT.
Info: WRAPPING ALL CLUSTERS AROUND PERIODIC BOUNDARIES ON OUTPUT.
Info: FIRST LDB TIMESTEP     50
Info: LAST LDB TIMESTEP     -1
Info: HOM BACKGROUND SCALING 1
Info: PME BACKGROUND SCALING 1
Info: MIN ATOMS PER PATCH    40
Info: EMPTY PATCH LOAD       40 ATOMS
Info: INITIAL TEMPERATURE    300
Info: CENTER OF MASS MOVING INITIALLY? NO
Info: DIELECTRIC             1
Info: EXCLUDE                SCALED ONE-FOUR
Info: 1-4 ELECTROSTATICS SCALED BY 0.833333
Info: MODIFIED 1-4 VDW PARAMETERS WILL BE USED
Info: DCD FILENAME           mobley_778352_equil.dcd
Info: DCD FREQUENCY          100000
Info: DCD FIRST STEP         100000
Info: DCD FILE WILL CONTAIN UNIT CELL DATA
Info: XST FILENAME           mobley_778352_equil.xst
Info: XST FREQUENCY          100000
Info: NO VELOCITY DCD OUTPUT
Info: NO FORCE DCD OUTPUT
Info: OUTPUT FILENAME        mobley_778352_equil
Info: BINARY OUTPUT FILES WILL BE USED
Info: RESTART FILENAME       mobley_778352_equil.restart
Info: RESTART FREQUENCY      100000
Info: BINARY RESTART FILES WILL BE USED
Info: CUTOFF                 9
Info: PAIRLIST DISTANCE      11
Info: PAIRLIST SHRINK RATE   0.01
Info: PAIRLIST GROW RATE     0.01
Info: PAIRLIST TRIGGER       0.3
Info: PAIRLISTS PER CYCLE    2
Info: PAIRLISTS ENABLED
Info: MARGIN                 8
Info: HYDROGEN GROUP CUTOFF  2.5
Info: PATCH DIMENSION        21.5
Info: ENERGY OUTPUT STEPS    100000
Info: ENERGY EVALUATION STEPS    100000
Info: OUTPUT ENERGY PRECISION 4
Info: CROSSTERM ENERGY INCLUDED IN DIHEDRAL
Info: TIMING OUTPUT STEPS    1000000
Info: PRESSURE OUTPUT STEPS  100000
Info: LANGEVIN DYNAMICS ACTIVE
Info: LANGEVIN TEMPERATURE   30
Info: LANGEVIN USING BBK INTEGRATOR
Info: LANGEVIN DAMPING COEFFICIENT IS 1 INVERSE PS
Info: LANGEVIN DYNAMICS APPLIED TO HYDROGENS
Info: LANGEVIN PISTON PRESSURE CONTROL ACTIVE
Info:        TARGET PRESSURE IS 1.01325 BAR
Info:     OSCILLATION PERIOD IS 50 FS
Info:             DECAY TIME IS 25 FS
Info:     PISTON TEMPERATURE IS 300 K
Info:       PRESSURE CONTROL IS GROUP-BASED
Info:    INITIAL STRAIN RATE IS 0 0 0
Info:       CELL FLUCTUATION IS ISOTROPIC
Info: PARTICLE MESH EWALD (PME) ACTIVE
Info: PME TOLERANCE               1e-06
Info: PME EWALD COEFFICIENT       0.348832
Info: PME INTERPOLATION ORDER     4
Info: PME GRID DIMENSIONS         40 36 36
Info: PME MAXIMUM GRID SPACING    1
Info: FULL ELECTROSTATIC EVALUATION FREQUENCY      2
Info: USING VERLET I (r-RESPA) MTS SCHEME.
Info: C1 SPLITTING OF LONG RANGE ELECTROSTATICS
Info: PLACING ATOMS IN PATCHES BY HYDROGEN GROUPS
Info: RIGID BONDS TO HYDROGEN : ALL
Info:         ERROR TOLERANCE : 1e-08
Info:          MAX ITERATIONS : 100
Info: RIGID WATER USING SETTLE ALGORITHM
Info: RANDOM NUMBER SEED     1743211975
Info: USE HYDROGEN BONDS?    NO
Info: Using AMBER format force field!
Info: AMBER PARM FILE        mobley_778352.prmtop
Info: COORDINATE PDB         mobley_778352.pdb
Info: Exclusions will be read from PARM file!
Info: SCNB (VDW SCALING)     2
Info: USING ARITHMETIC MEAN TO COMBINE L-J SIGMA PARAMETERS
Info: BINARY COORDINATES     mobley_778352_min.coor
Info: SUMMARY OF PARAMETERS:
Info: 6 BONDS
Info: 6 ANGLES
Info: 6 DIHEDRAL
Info: 0 IMPROPER
Info: 0 CROSSTERM
Info: 0 VDW
Info: 21 VDW_PAIRS
Info: 0 NBTHOLE_PAIRS
Info: STRUCTURE SUMMARY:
Info: 2979 ATOMS
Info: 2978 BONDS
Info: 24 ANGLES
Info: 44 DIHEDRALS
Info: 0 IMPROPERS
Info: 0 CROSSTERMS
Info: 3024 EXCLUSIONS
Info: 2974 RIGID BONDS
Info: 5963 DEGREES OF FREEDOM
Info: 993 HYDROGEN GROUPS
Info: 4 ATOMS IN LARGEST HYDROGEN GROUP
Info: 993 MIGRATION GROUPS
Info: 4 ATOMS IN LARGEST MIGRATION GROUP
Info: TOTAL MASS = 17869.9 amu
Info: TOTAL CHARGE = 9.99793e-05 e
Info: MASS DENSITY = 0.670153 g/cm^3
Info: ATOM DENSITY = 0.0672763 atoms/A^3
Info: ADDED 0 IMPLICIT EXCLUSIONS
Info: NONBONDED TABLE R-SQUARED SPACING: 0.0625
Info: NONBONDED TABLE SIZE: 705 POINTS
Info: REMOVING COM VELOCITY -1.84701e-05 0.0830952 0.0975989
TCL: Running for 100000 steps
ETITLE: TS BOND ANGLE DIHED IMPRP ELECT VDW BOUNDARY MISC KINETIC TOTAL TEMP POTENTIAL TOTAL3 TEMPAVG PRESSURE GPRESSURE VOLUME PRESSAVG GPRESSAVG
ENERGY: 0 0.1276 1.1791 14.4497 0.0000 -13746.3734 2419.6243 0.0000 0.0000 1754.5533 -9556.4395 296.1366 -11310.9927 -9556.1028 296.1366 469.8363 511.2735 44280.0731 469.8363 511.2735
ENERGY: 100000 0.2197 1.6664 14.4367 0.0000 -14296.9733 2446.9918 0.0000 0.0000 179.9615 -11653.6973 30.3742 -11833.6588 -11652.8568 30.8937 -633.7951 -554.3110 29573.1808 3.5181 3.5421
TCL: Running 100000 steps at 60 kelvin.
TCL: Setting parameter langevinTemp to 60
TCL: Running for 100000 steps
ETITLE: TS BOND ANGLE DIHED IMPRP ELECT VDW BOUNDARY MISC KINETIC TOTAL TEMP POTENTIAL TOTAL3 TEMPAVG PRESSURE GPRESSURE VOLUME PRESSAVG GPRESSAVG
ENERGY: 100000 0.2197 1.6664 14.4367 0.0000 -14296.9733 2446.9918 0.0000 0.0000 179.8733 -11653.7855 30.3593 -11833.6588 -11653.3464 30.3593 -620.4662 -553.8665 29573.1808 -620.4662 -553.8665
ENERGY: 200000 0.1561 2.4000 15.1038 0.0000 -14250.4223 2480.2862 0.0000 0.0000 346.1833 -11406.2929 58.4294 -11752.4761 -11405.3215 59.8738 107.5704 167.9296 29406.1922 4.6176 4.7126
TCL: Running 100000 steps at 90 kelvin.
TCL: Setting parameter langevinTemp to 90
TCL: Running for 100000 steps
ETITLE: TS BOND ANGLE DIHED IMPRP ELECT VDW BOUNDARY MISC KINETIC TOTAL TEMP POTENTIAL TOTAL3 TEMPAVG PRESSURE GPRESSURE VOLUME PRESSAVG GPRESSAVG
ENERGY: 200000 0.1561 2.4000 15.1038 0.0000 -14250.4223 2480.2862 0.0000 0.0000 346.0079 -11406.4682 58.3998 -11752.4761 -11405.7701 58.3998 105.9231 167.9973 29406.1922 105.9231 167.9973
ENERGY: 300000 0.5394 3.3779 14.7455 0.0000 -14195.0196 2500.3309 0.0000 0.0000 538.7713 -11137.2547 90.9348 -11676.0260 -11135.6553 90.1660 630.6627 674.1730 29192.6687 3.9034 3.9796
TCL: Running 100000 steps at 120 kelvin.
TCL: Setting parameter langevinTemp to 120
TCL: Running for 100000 steps
ETITLE: TS BOND ANGLE DIHED IMPRP ELECT VDW BOUNDARY MISC KINETIC TOTAL TEMP POTENTIAL TOTAL3 TEMPAVG PRESSURE GPRESSURE VOLUME PRESSAVG GPRESSAVG
ENERGY: 300000 0.5394 3.3779 14.7455 0.0000 -14195.0196 2500.3309 0.0000 0.0000 538.4951 -11137.5310 90.8882 -11676.0260 -11136.6264 90.8882 615.0882 674.2120 29192.6687 615.0882 674.2120
ENERGY: 400000 0.3958 3.6889 14.3847 0.0000 -13886.1357 2303.3888 0.0000 0.0000 700.1440 -10864.1336 118.1715 -11564.2776 -10862.6955 120.0589 -562.1301 -492.4594 29299.3900 4.7650 4.9162
TCL: Running 100000 steps at 150 kelvin.
TCL: Setting parameter langevinTemp to 150
TCL: Running for 100000 steps
ETITLE: TS BOND ANGLE DIHED IMPRP ELECT VDW BOUNDARY MISC KINETIC TOTAL TEMP POTENTIAL TOTAL3 TEMPAVG PRESSURE GPRESSURE VOLUME PRESSAVG GPRESSAVG
ENERGY: 400000 0.3958 3.6889 14.3847 0.0000 -13886.1357 2303.3888 0.0000 0.0000 699.7842 -10864.4934 118.1108 -11564.2776 -10862.7480 118.1108 -558.1240 -492.2489 29299.3900 -558.1240 -492.2489
ENERGY: 500000 1.1425 5.6879 14.9400 0.0000 -13648.4461 2286.4879 0.0000 0.0000 872.7102 -10467.4776 147.2976 -11340.1877 -10463.9875 149.9914 -68.8809 -30.8826 29509.1629 4.0923 4.1250
TCL: Running 100000 steps at 180 kelvin.
TCL: Setting parameter langevinTemp to 180
TCL: Running for 100000 steps
ETITLE: TS BOND ANGLE DIHED IMPRP ELECT VDW BOUNDARY MISC KINETIC TOTAL TEMP POTENTIAL TOTAL3 TEMPAVG PRESSURE GPRESSURE VOLUME PRESSAVG GPRESSAVG
ENERGY: 500000 1.1425 5.6879 14.9400 0.0000 -13648.4461 2286.4879 0.0000 0.0000 872.2782 -10467.9095 147.2247 -11340.1877 -10466.0393 147.2247 -79.9792 -29.5268 29509.1629 -79.9792 -29.5268
ENERGY: 600000 1.1063 3.9382 16.9613 0.0000 -13325.3764 2260.1238 0.0000 0.0000 1058.6105 -9984.6364 178.6742 -11043.2468 -9982.8334 180.0294 979.7481 1095.3076 29096.8990 3.8972 3.8350
TCL: Running 100000 steps at 210 kelvin.
TCL: Setting parameter langevinTemp to 210
TCL: Running for 100000 steps
ETITLE: TS BOND ANGLE DIHED IMPRP ELECT VDW BOUNDARY MISC KINETIC TOTAL TEMP POTENTIAL TOTAL3 TEMPAVG PRESSURE GPRESSURE VOLUME PRESSAVG GPRESSAVG
ENERGY: 600000 1.1063 3.9382 16.9613 0.0000 -13325.3764 2260.1238 0.0000 0.0000 1058.0808 -9985.1661 178.5848 -11043.2468 -9983.7039 178.5848 1028.1481 1094.8400 29096.8990 1028.1481 1094.8400
ENERGY: 700000 0.1763 3.4680 17.5790 0.0000 -12441.1164 1831.0805 0.0000 0.0000 1273.9822 -9314.8304 215.0250 -10588.8126 -9311.7392 209.7875 -741.0000 -669.8717 29343.6837 2.2559 2.5160
TCL: Running 100000 steps at 240 kelvin.
TCL: Setting parameter langevinTemp to 240
TCL: Running for 100000 steps
ETITLE: TS BOND ANGLE DIHED IMPRP ELECT VDW BOUNDARY MISC KINETIC TOTAL TEMP POTENTIAL TOTAL3 TEMPAVG PRESSURE GPRESSURE VOLUME PRESSAVG GPRESSAVG
ENERGY: 700000 0.1763 3.4680 17.5790 0.0000 -12441.1164 1831.0805 0.0000 0.0000 1273.3621 -9315.4505 214.9203 -10588.8126 -9313.4553 214.9203 -749.3328 -671.1089 29343.6837 -749.3328 -671.1089
ENERGY: 800000 1.2193 4.8820 15.8844 0.0000 -11848.0068 1694.0538 0.0000 0.0000 1444.9383 -8687.0291 243.8793 -10131.9674 -8685.1443 239.7427 -140.3408 -137.4199 29357.3916 4.4960 4.1737
TCL: Running 100000 steps at 270 kelvin.
TCL: Setting parameter langevinTemp to 270
TCL: Running for 100000 steps
ETITLE: TS BOND ANGLE DIHED IMPRP ELECT VDW BOUNDARY MISC KINETIC TOTAL TEMP POTENTIAL TOTAL3 TEMPAVG PRESSURE GPRESSURE VOLUME PRESSAVG GPRESSAVG
ENERGY: 800000 1.2193 4.8820 15.8844 0.0000 -11848.0068 1694.0538 0.0000 0.0000 1444.2360 -8687.7313 243.7607 -10131.9674 -8685.3129 243.7607 -221.7881 -138.7659 29357.3916 -221.7881 -138.7659
ENERGY: 900000 0.7904 5.0068 17.0938 0.0000 -11304.3316 1577.4711 0.0000 0.0000 1603.8948 -8100.0747 270.7082 -9703.9695 -8096.7969 269.3286 -6.2991 69.1767 30053.0263 1.4268 1.4417
TCL: Running 1000000 steps at 300 kelvin.
TCL: Setting parameter langevinTemp to 300
TCL: Running for 1000000 steps
ETITLE: TS BOND ANGLE DIHED IMPRP ELECT VDW BOUNDARY MISC KINETIC TOTAL TEMP POTENTIAL TOTAL3 TEMPAVG PRESSURE GPRESSURE VOLUME PRESSAVG GPRESSAVG
ENERGY: 900000 0.7904 5.0068 17.0938 0.0000 -11304.3316 1577.4711 0.0000 0.0000 1603.1064 -8100.8631 270.5752 -9703.9695 -8098.8295 270.5752 -25.1319 68.5770 30053.0263 -25.1319 68.5770
ENERGY: 1100000 2.0854 7.6906 15.9713 0.0000 -10788.4843 1433.7871 0.0000 0.0000 1837.8290 -7491.1209 310.1921 -9328.9499 -7490.6895 300.2686 -365.4704 -296.7981 31115.0412 3.3123 3.1079
ENERGY: 1300000 1.4441 10.6974 19.2479 0.0000 -10686.1090 1348.5095 0.0000 0.0000 1777.9489 -7528.2612 300.0854 -9306.2101 -7526.0582 300.4710 -542.2746 -458.5218 30285.1195 3.9091 3.9334
ENERGY: 1500000 1.1481 4.6715 16.2575 0.0000 -10922.2804 1515.4120 0.0000 0.0000 1815.6593 -7569.1320 306.4502 -9384.7913 -7566.7925 299.2809 549.1188 628.5426 30398.2092 3.6318 3.6392
ENERGY: 1700000 0.6848 8.4689 16.7279 0.0000 -10769.4563 1356.4751 0.0000 0.0000 1809.2390 -7577.8606 305.3666 -9387.0996 -7573.7994 300.2400 -768.1545 -598.5942 30393.1922 2.0832 2.0417
ENERGY: 1900000 2.9625 6.6163 15.9374 0.0000 -10821.0201 1456.8369 0.0000 0.0000 1741.2077 -7597.4592 293.8841 -9338.6669 -7593.6936 300.2015 -187.3869 -123.0669 30928.8036 2.7544 2.6452
TCL: Exiting due to exit command.
