Info: SIMULATION PARAMETERS:
Info: TIMESTEP               2
Info: NUMBER OF STEPS        0
Info: STEPS PER CYCLE        10
Info: PERIODIC CELL BASIS 1  36.005 0 0
Info: PERIODIC CELL BASIS 2  0 33.314 0
Info: PERIODIC CELL BASIS 3  0 0 36.583
Info: PERIODIC CELL CENTER   0 0 0
Info: WRAPPING WATERS AROUND PERIODIC BOUNDARIES ON OUTPUT.
Info: WRAPPING ALL CLUSTERS AROUND PERIODIC BOUNDARIES ON OUTPUT.
Info: FIRST LDB TIMESTEP     50
Info: LAST LDB TIMESTEP     -1
Info: HOM BACKGROUND SCALING 1
Info: PME BACKGROUND SCALING 1
Info: MIN ATOMS PER PATCH    40
Info: EMPTY PATCH LOAD       40 ATOMS
Info: INITIAL TEMPERATURE    300
Info: CENTER OF MASS MOVING INITIALLY? NO
Info: DIELECTRIC             1
Info: EXCLUDE                SCALED ONE-FOUR
Info: 1-4 ELECTROSTATICS SCALED BY 0.833333
Info: MODIFIED 1-4 VDW PARAMETERS WILL BE USED
Info: DCD FILENAME           mobley_8514745_equil.dcd
Info: DCD FREQUENCY          100000
Info: DCD FIRST STEP         100000
Info: DCD FILE WILL CONTAIN UNIT CELL DATA
Info: XST FILENAME           mobley_8514745_equil.xst
Info: XST FREQUENCY          100000
Info: NO VELOCITY DCD OUTPUT
Info: NO FORCE DCD OUTPUT
Info: OUTPUT FILENAME        mobley_8514745_equil
Info: BINARY OUTPUT FILES WILL BE USED
Info: RESTART FILENAME       mobley_8514745_equil.restart
Info: RESTART FREQUENCY      100000
Info: BINARY RESTART FILES WILL BE USED
Info: CUTOFF                 9
Info: PAIRLIST DISTANCE      11
Info: PAIRLIST SHRINK RATE   0.01
Info: PAIRLIST GROW RATE     0.01
Info: PAIRLIST TRIGGER       0.3
Info: PAIRLISTS PER CYCLE    2
Info: PAIRLISTS ENABLED
Info: MARGIN                 8
Info: HYDROGEN GROUP CUTOFF  2.5
Info: PATCH DIMENSION        21.5
Info: ENERGY OUTPUT STEPS    100000
Info: ENERGY EVALUATION STEPS    100000
Info: OUTPUT ENERGY PRECISION 4
Info: CROSSTERM ENERGY INCLUDED IN DIHEDRAL
Info: TIMING OUTPUT STEPS    1000000
Info: PRESSURE OUTPUT STEPS  100000
Info: LANGEVIN DYNAMICS ACTIVE
Info: LANGEVIN TEMPERATURE   30
Info: LANGEVIN USING BBK INTEGRATOR
Info: LANGEVIN DAMPING COEFFICIENT IS 1 INVERSE PS
Info: LANGEVIN DYNAMICS APPLIED TO HYDROGENS
Info: LANGEVIN PISTON PRESSURE CONTROL ACTIVE
Info:        TARGET PRESSURE IS 1.01325 BAR
Info:     OSCILLATION PERIOD IS 50 FS
Info:             DECAY TIME IS 25 FS
Info:     PISTON TEMPERATURE IS 300 K
Info:       PRESSURE CONTROL IS GROUP-BASED
Info:    INITIAL STRAIN RATE IS 0 0 0
Info:       CELL FLUCTUATION IS ISOTROPIC
Info: PARTICLE MESH EWALD (PME) ACTIVE
Info: PME TOLERANCE               1e-06
Info: PME EWALD COEFFICIENT       0.348832
Info: PME INTERPOLATION ORDER     4
Info: PME GRID DIMENSIONS         40 36 40
Info: PME MAXIMUM GRID SPACING    1
Info: FULL ELECTROSTATIC EVALUATION FREQUENCY      2
Info: USING VERLET I (r-RESPA) MTS SCHEME.
Info: C1 SPLITTING OF LONG RANGE ELECTROSTATICS
Info: PLACING ATOMS IN PATCHES BY HYDROGEN GROUPS
Info: RIGID BONDS TO HYDROGEN : ALL
Info:         ERROR TOLERANCE : 1e-08
Info:          MAX ITERATIONS : 100
Info: RIGID WATER USING SETTLE ALGORITHM
Info: RANDOM NUMBER SEED     1743256511
Info: USE HYDROGEN BONDS?    NO
Info: Using AMBER format force field!
Info: AMBER PARM FILE        mobley_8514745.prmtop
Info: COORDINATE PDB         mobley_8514745.pdb
Info: Exclusions will be read from PARM file!
Info: SCNB (VDW SCALING)     2
Info: USING ARITHMETIC MEAN TO COMBINE L-J SIGMA PARAMETERS
Info: BINARY COORDINATES     mobley_8514745_min.coor
Info: SUMMARY OF PARAMETERS:
Info: 9 BONDS
Info: 12 ANGLES
Info:   12 HARMONIC
Info:   0 COSINE-BASED
Info: 20 DIHEDRAL
Info: 0 IMPROPER
Info: 0 CROSSTERM
Info: 0 VDW
Info: 36 VDW_PAIRS
Info: 0 NBTHOLE_PAIRS
Info: STRUCTURE SUMMARY:
Info: 2915 ATOMS
Info: 2914 BONDS
Info: 40 ANGLES
Info: 64 DIHEDRALS
Info: 0 IMPROPERS
Info: 0 CROSSTERMS
Info: 3001 EXCLUSIONS
Info: 2906 RIGID BONDS
Info: 5839 DEGREES OF FREEDOM
Info: 973 HYDROGEN GROUPS
Info: 4 ATOMS IN LARGEST HYDROGEN GROUP
Info: 973 MIGRATION GROUPS
Info: 4 ATOMS IN LARGEST MIGRATION GROUP
Info: TOTAL MASS = 17497.6 amu
Info: TOTAL CHARGE = -0.000400051 e
Info: MASS DENSITY = 0.662169 g/cm^3
Info: ATOM DENSITY = 0.0664308 atoms/A^3
Info: ADDED 0 IMPLICIT EXCLUSIONS
Info: NONBONDED TABLE R-SQUARED SPACING: 0.0625
Info: NONBONDED TABLE SIZE: 705 POINTS
Info: REMOVING COM VELOCITY -0.205347 0.197241 -0.113438
TCL: Running for 100000 steps
ETITLE: TS BOND ANGLE DIHED IMPRP ELECT VDW BOUNDARY MISC KINETIC TOTAL TEMP POTENTIAL TOTAL3 TEMPAVG PRESSURE GPRESSURE VOLUME PRESSAVG GPRESSAVG
ENERGY: 0 0.0910 0.6059 5.7170 0.0000 -13487.7852 2393.0363 0.0000 0.0000 1805.2962 -9283.0388 311.1719 -11088.3350 -9282.6837 311.1719 713.3915 750.4674 43880.2319 713.3915 750.4674
ENERGY: 100000 0.1339 1.5669 6.2649 0.0000 -13954.0851 2384.3829 0.0000 0.0000 170.7153 -11391.0212 29.4255 -11561.7366 -11390.6983 30.9343 -374.9704 -319.6190 28820.0157 4.6099 4.5354
TCL: Running 100000 steps at 60 kelvin.
TCL: Setting parameter langevinTemp to 60
TCL: Running for 100000 steps
ETITLE: TS BOND ANGLE DIHED IMPRP ELECT VDW BOUNDARY MISC KINETIC TOTAL TEMP POTENTIAL TOTAL3 TEMPAVG PRESSURE GPRESSURE VOLUME PRESSAVG GPRESSAVG
ENERGY: 100000 0.1339 1.5669 6.2649 0.0000 -13954.0851 2384.3829 0.0000 0.0000 170.6289 -11391.1076 29.4106 -11561.7366 -11390.7161 29.4106 -374.5137 -319.9143 28820.0157 -374.5137 -319.9143
ENERGY: 200000 0.7231 2.7408 6.2012 0.0000 -13965.4205 2453.9746 0.0000 0.0000 354.2163 -11147.5645 61.0549 -11501.7808 -11146.5835 60.0296 613.9987 679.8467 28339.6530 4.7996 4.7867
TCL: Running 100000 steps at 90 kelvin.
TCL: Setting parameter langevinTemp to 90
TCL: Running for 100000 steps
ETITLE: TS BOND ANGLE DIHED IMPRP ELECT VDW BOUNDARY MISC KINETIC TOTAL TEMP POTENTIAL TOTAL3 TEMPAVG PRESSURE GPRESSURE VOLUME PRESSAVG GPRESSAVG
ENERGY: 200000 0.7231 2.7408 6.2012 0.0000 -13965.4205 2453.9746 0.0000 0.0000 354.0429 -11147.7379 61.0250 -11501.7808 -11146.9533 61.0250 627.9585 679.9403 28339.6530 627.9585 679.9403
ENERGY: 300000 0.8475 3.3115 6.0325 0.0000 -13767.4000 2346.1190 0.0000 0.0000 523.9220 -10887.1675 90.3064 -11411.0895 -10885.5656 90.0713 279.1781 287.9183 28106.7947 4.8570 4.7572
TCL: Running 100000 steps at 120 kelvin.
TCL: Setting parameter langevinTemp to 120
TCL: Running for 100000 steps
ETITLE: TS BOND ANGLE DIHED IMPRP ELECT VDW BOUNDARY MISC KINETIC TOTAL TEMP POTENTIAL TOTAL3 TEMPAVG PRESSURE GPRESSURE VOLUME PRESSAVG GPRESSAVG
ENERGY: 300000 0.8475 3.3115 6.0325 0.0000 -13767.4000 2346.1190 0.0000 0.0000 523.6697 -10887.4198 90.2629 -11411.0895 -10886.2701 90.2629 234.6925 288.2192 28106.7947 234.6925 288.2192
ENERGY: 400000 0.4181 4.5823 5.7560 0.0000 -13341.0199 2052.7471 0.0000 0.0000 695.2935 -10582.2229 119.8450 -11277.5163 -10578.7881 119.9916 -2097.9500 -2029.6641 28817.8794 4.1273 4.0180
TCL: Running 100000 steps at 150 kelvin.
TCL: Setting parameter langevinTemp to 150
TCL: Running for 100000 steps
ETITLE: TS BOND ANGLE DIHED IMPRP ELECT VDW BOUNDARY MISC KINETIC TOTAL TEMP POTENTIAL TOTAL3 TEMPAVG PRESSURE GPRESSURE VOLUME PRESSAVG GPRESSAVG
ENERGY: 400000 0.4181 4.5823 5.7560 0.0000 -13341.0199 2052.7471 0.0000 0.0000 694.9515 -10582.5648 119.7861 -11277.5163 -10580.9460 119.7861 -2076.3576 -2028.3020 28817.8794 -2076.3576 -2028.3020
ENERGY: 500000 1.7319 5.0530 6.8919 0.0000 -13324.5668 2212.0409 0.0000 0.0000 877.3407 -10221.5083 151.2238 -11098.8490 -10219.0523 149.9825 11.1534 77.5046 28400.5848 3.6172 3.8042
TCL: Running 100000 steps at 180 kelvin.
TCL: Setting parameter langevinTemp to 180
TCL: Running for 100000 steps
ETITLE: TS BOND ANGLE DIHED IMPRP ELECT VDW BOUNDARY MISC KINETIC TOTAL TEMP POTENTIAL TOTAL3 TEMPAVG PRESSURE GPRESSURE VOLUME PRESSAVG GPRESSAVG
ENERGY: 500000 1.7319 5.0530 6.8919 0.0000 -13324.5668 2212.0409 0.0000 0.0000 876.9014 -10221.9476 151.1481 -11098.8490 -10220.1430 151.1481 30.5771 77.3383 28400.5848 30.5771 77.3383
ENERGY: 600000 1.5209 5.6793 7.4444 0.0000 -12911.0915 2089.7374 0.0000 0.0000 1052.8916 -9753.8179 181.4828 -10806.7096 -9750.8673 180.2603 240.1719 324.7093 28549.5453 3.4440 3.4649
TCL: Running 100000 steps at 210 kelvin.
TCL: Setting parameter langevinTemp to 210
TCL: Running for 100000 steps
ETITLE: TS BOND ANGLE DIHED IMPRP ELECT VDW BOUNDARY MISC KINETIC TOTAL TEMP POTENTIAL TOTAL3 TEMPAVG PRESSURE GPRESSURE VOLUME PRESSAVG GPRESSAVG
ENERGY: 600000 1.5209 5.6793 7.4444 0.0000 -12911.0915 2089.7374 0.0000 0.0000 1052.3863 -9754.3233 181.3957 -10806.7096 -9752.2765 181.3957 263.6263 325.4506 28549.5453 263.6263 325.4506
ENERGY: 700000 2.4804 10.4057 7.1966 0.0000 -12278.1266 1875.0316 0.0000 0.0000 1211.9728 -9171.0395 208.9030 -10383.0123 -9167.7080 209.5155 57.6797 197.0187 28170.9705 3.1601 2.9791
TCL: Running 100000 steps at 240 kelvin.
TCL: Setting parameter langevinTemp to 240
TCL: Running for 100000 steps
ETITLE: TS BOND ANGLE DIHED IMPRP ELECT VDW BOUNDARY MISC KINETIC TOTAL TEMP POTENTIAL TOTAL3 TEMPAVG PRESSURE GPRESSURE VOLUME PRESSAVG GPRESSAVG
ENERGY: 700000 2.4804 10.4057 7.1966 0.0000 -12278.1266 1875.0316 0.0000 0.0000 1211.3663 -9171.6460 208.7985 -10383.0123 -9169.9069 208.7985 120.9784 197.9651 28170.9705 120.9784 197.9651
ENERGY: 800000 1.9208 10.4445 8.1142 0.0000 -11646.4038 1726.7911 0.0000 0.0000 1386.2302 -8512.9030 238.9391 -9899.1332 -8509.8305 240.1103 373.5126 432.4958 28942.2940 3.8818 3.7928
TCL: Running 100000 steps at 270 kelvin.
TCL: Setting parameter langevinTemp to 270
TCL: Running for 100000 steps
ETITLE: TS BOND ANGLE DIHED IMPRP ELECT VDW BOUNDARY MISC KINETIC TOTAL TEMP POTENTIAL TOTAL3 TEMPAVG PRESSURE GPRESSURE VOLUME PRESSAVG GPRESSAVG
ENERGY: 800000 1.9208 10.4445 8.1142 0.0000 -11646.4038 1726.7911 0.0000 0.0000 1385.5418 -8513.5915 238.8205 -9899.1332 -8511.1298 238.8205 358.3043 433.3309 28942.2940 358.3043 433.3309
ENERGY: 900000 1.6200 7.5295 7.1004 0.0000 -11051.2914 1525.5224 0.0000 0.0000 1520.6807 -7988.8384 262.1138 -9509.5191 -7984.2053 269.8237 -20.4670 77.6868 29197.5852 3.0547 3.0641
TCL: Running 1000000 steps at 300 kelvin.
TCL: Setting parameter langevinTemp to 300
TCL: Running for 1000000 steps
ETITLE: TS BOND ANGLE DIHED IMPRP ELECT VDW BOUNDARY MISC KINETIC TOTAL TEMP POTENTIAL TOTAL3 TEMPAVG PRESSURE GPRESSURE VOLUME PRESSAVG GPRESSAVG
ENERGY: 900000 1.6200 7.5295 7.1004 0.0000 -11051.2914 1525.5224 0.0000 0.0000 1519.8732 -7989.6459 261.9747 -9509.5191 -7986.9020 261.9747 -16.2773 76.8721 29197.5852 -16.2773 76.8721
ENERGY: 1100000 4.9982 13.6848 5.4039 0.0000 -10424.9061 1335.8962 0.0000 0.0000 1752.8256 -7312.0975 302.1277 -9064.9230 -7307.9732 299.8718 -508.2670 -446.9371 29961.4596 3.0383 3.0593
ENERGY: 1300000 2.8176 13.2990 8.5447 0.0000 -10597.0005 1401.0779 0.0000 0.0000 1701.7573 -7469.5039 293.3253 -9171.2612 -7467.6010 300.1994 -574.4842 -529.3221 30196.8944 3.6216 3.4654
ENERGY: 1500000 3.4167 11.1375 6.4903 0.0000 -10503.8204 1377.7885 0.0000 0.0000 1813.6488 -7291.3387 312.6116 -9104.9875 -7285.3660 300.1128 -378.6103 -302.0832 30223.1677 3.8802 3.9042
ENERGY: 1700000 4.2109 9.7510 8.3712 0.0000 -10608.0738 1434.3821 0.0000 0.0000 1764.1533 -7387.2054 304.0803 -9151.3587 -7382.0797 300.2664 263.2798 354.0872 29814.8455 3.4580 3.4084
ENERGY: 1900000 2.8671 7.3735 5.9052 0.0000 -10580.1699 1374.7649 0.0000 0.0000 1759.3254 -7429.9338 303.2481 -9189.2592 -7428.1090 300.4050 -329.4574 -295.8081 30007.9192 3.0406 2.9623
TCL: Exiting due to exit command.
