Info: SIMULATION PARAMETERS:
Info: TIMESTEP               2
Info: NUMBER OF STEPS        0
Info: STEPS PER CYCLE        10
Info: PERIODIC CELL BASIS 1  36.005 0 0
Info: PERIODIC CELL BASIS 2  0 35.779 0
Info: PERIODIC CELL BASIS 3  0 0 34.68
Info: PERIODIC CELL CENTER   0 0 0
Info: WRAPPING WATERS AROUND PERIODIC BOUNDARIES ON OUTPUT.
Info: WRAPPING ALL CLUSTERS AROUND PERIODIC BOUNDARIES ON OUTPUT.
Info: FIRST LDB TIMESTEP     50
Info: LAST LDB TIMESTEP     -1
Info: HOM BACKGROUND SCALING 1
Info: PME BACKGROUND SCALING 1
Info: MIN ATOMS PER PATCH    40
Info: EMPTY PATCH LOAD       40 ATOMS
Info: INITIAL TEMPERATURE    300
Info: CENTER OF MASS MOVING INITIALLY? NO
Info: DIELECTRIC             1
Info: EXCLUDE                SCALED ONE-FOUR
Info: 1-4 ELECTROSTATICS SCALED BY 0.833333
Info: MODIFIED 1-4 VDW PARAMETERS WILL BE USED
Info: DCD FILENAME           mobley_2609604_equil.dcd
Info: DCD FREQUENCY          100000
Info: DCD FIRST STEP         100000
Info: DCD FILE WILL CONTAIN UNIT CELL DATA
Info: XST FILENAME           mobley_2609604_equil.xst
Info: XST FREQUENCY          100000
Info: NO VELOCITY DCD OUTPUT
Info: NO FORCE DCD OUTPUT
Info: OUTPUT FILENAME        mobley_2609604_equil
Info: BINARY OUTPUT FILES WILL BE USED
Info: RESTART FILENAME       mobley_2609604_equil.restart
Info: RESTART FREQUENCY      100000
Info: BINARY RESTART FILES WILL BE USED
Info: CUTOFF                 9
Info: PAIRLIST DISTANCE      11
Info: PAIRLIST SHRINK RATE   0.01
Info: PAIRLIST GROW RATE     0.01
Info: PAIRLIST TRIGGER       0.3
Info: PAIRLISTS PER CYCLE    2
Info: PAIRLISTS ENABLED
Info: MARGIN                 8
Info: HYDROGEN GROUP CUTOFF  2.5
Info: PATCH DIMENSION        21.5
Info: ENERGY OUTPUT STEPS    100000
Info: ENERGY EVALUATION STEPS    100000
Info: OUTPUT ENERGY PRECISION 4
Info: CROSSTERM ENERGY INCLUDED IN DIHEDRAL
Info: TIMING OUTPUT STEPS    1000000
Info: PRESSURE OUTPUT STEPS  100000
Info: LANGEVIN DYNAMICS ACTIVE
Info: LANGEVIN TEMPERATURE   30
Info: LANGEVIN USING BBK INTEGRATOR
Info: LANGEVIN DAMPING COEFFICIENT IS 1 INVERSE PS
Info: LANGEVIN DYNAMICS APPLIED TO HYDROGENS
Info: LANGEVIN PISTON PRESSURE CONTROL ACTIVE
Info:        TARGET PRESSURE IS 1.01325 BAR
Info:     OSCILLATION PERIOD IS 50 FS
Info:             DECAY TIME IS 25 FS
Info:     PISTON TEMPERATURE IS 300 K
Info:       PRESSURE CONTROL IS GROUP-BASED
Info:    INITIAL STRAIN RATE IS 0 0 0
Info:       CELL FLUCTUATION IS ISOTROPIC
Info: PARTICLE MESH EWALD (PME) ACTIVE
Info: PME TOLERANCE               1e-06
Info: PME EWALD COEFFICIENT       0.348832
Info: PME INTERPOLATION ORDER     4
Info: PME GRID DIMENSIONS         40 36 36
Info: PME MAXIMUM GRID SPACING    1
Info: FULL ELECTROSTATIC EVALUATION FREQUENCY      2
Info: USING VERLET I (r-RESPA) MTS SCHEME.
Info: C1 SPLITTING OF LONG RANGE ELECTROSTATICS
Info: PLACING ATOMS IN PATCHES BY HYDROGEN GROUPS
Info: RIGID BONDS TO HYDROGEN : ALL
Info:         ERROR TOLERANCE : 1e-08
Info:          MAX ITERATIONS : 100
Info: RIGID WATER USING SETTLE ALGORITHM
Info: RANDOM NUMBER SEED     1743245215
Info: USE HYDROGEN BONDS?    NO
Info: Using AMBER format force field!
Info: AMBER PARM FILE        mobley_2609604.prmtop
Info: COORDINATE PDB         mobley_2609604.pdb
Info: Exclusions will be read from PARM file!
Info: SCNB (VDW SCALING)     2
Info: USING ARITHMETIC MEAN TO COMBINE L-J SIGMA PARAMETERS
Info: BINARY COORDINATES     mobley_2609604_min.coor
Info: SUMMARY OF PARAMETERS:
Info: 4 BONDS
Info: 3 ANGLES
Info:   3 HARMONIC
Info:   0 COSINE-BASED
Info: 5 DIHEDRAL
Info: 0 IMPROPER
Info: 0 CROSSTERM
Info: 0 VDW
Info: 10 VDW_PAIRS
Info: 0 NBTHOLE_PAIRS
Info: STRUCTURE SUMMARY:
Info: 2936 ATOMS
Info: 2935 BONDS
Info: 42 ANGLES
Info: 66 DIHEDRALS
Info: 0 IMPROPERS
Info: 0 CROSSTERMS
Info: 3031 EXCLUSIONS
Info: 2929 RIGID BONDS
Info: 5879 DEGREES OF FREEDOM
Info: 978 HYDROGEN GROUPS
Info: 4 ATOMS IN LARGEST HYDROGEN GROUP
Info: 978 MIGRATION GROUPS
Info: 4 ATOMS IN LARGEST MIGRATION GROUP
Info: TOTAL MASS = 17593.7 amu
Info: TOTAL CHARGE = 0.000299998 e
Info: MASS DENSITY = 0.653954 g/cm^3
Info: ATOM DENSITY = 0.0657182 atoms/A^3
Info: ADDED 0 IMPLICIT EXCLUSIONS
Info: NONBONDED TABLE R-SQUARED SPACING: 0.0625
Info: NONBONDED TABLE SIZE: 705 POINTS
Info: REMOVING COM VELOCITY 0.030249 0.120063 0.108267
TCL: Running for 100000 steps
ETITLE: TS BOND ANGLE DIHED IMPRP ELECT VDW BOUNDARY MISC KINETIC TOTAL TEMP POTENTIAL TOTAL3 TEMPAVG PRESSURE GPRESSURE VOLUME PRESSAVG GPRESSAVG
ENERGY: 0 0.5753 2.2108 2.9275 0.0000 -13536.4099 2407.4786 0.0000 0.0000 1802.1816 -9321.0362 308.5215 -11123.2177 -9320.6768 308.5215 549.8326 584.8811 44675.5700 549.8326 584.8811
ENERGY: 100000 1.2948 2.7217 3.1943 0.0000 -14078.7763 2424.7760 0.0000 0.0000 175.0661 -11471.7234 29.9701 -11646.7895 -11471.0477 30.9286 -393.6750 -348.5543 28777.7339 3.2410 3.2199
TCL: Running 100000 steps at 60 kelvin.
TCL: Setting parameter langevinTemp to 60
TCL: Running for 100000 steps
ETITLE: TS BOND ANGLE DIHED IMPRP ELECT VDW BOUNDARY MISC KINETIC TOTAL TEMP POTENTIAL TOTAL3 TEMPAVG PRESSURE GPRESSURE VOLUME PRESSAVG GPRESSAVG
ENERGY: 100000 1.2948 2.7217 3.1943 0.0000 -14078.7763 2424.7760 0.0000 0.0000 174.9781 -11471.8114 29.9551 -11646.7895 -11471.3584 29.9551 -395.9567 -348.4444 28777.7339 -395.9567 -348.4444
ENERGY: 200000 0.9676 4.0701 3.3271 0.0000 -13891.1873 2341.5646 0.0000 0.0000 355.9556 -11185.3022 60.9372 -11541.2579 -11184.0652 59.9446 -786.5676 -781.0151 29116.7628 4.9484 4.9306
TCL: Running 100000 steps at 90 kelvin.
TCL: Setting parameter langevinTemp to 90
TCL: Running for 100000 steps
ETITLE: TS BOND ANGLE DIHED IMPRP ELECT VDW BOUNDARY MISC KINETIC TOTAL TEMP POTENTIAL TOTAL3 TEMPAVG PRESSURE GPRESSURE VOLUME PRESSAVG GPRESSAVG
ENERGY: 200000 0.9676 4.0701 3.3271 0.0000 -13891.1873 2341.5646 0.0000 0.0000 355.7823 -11185.4756 60.9076 -11541.2579 -11184.5836 60.9076 -826.9016 -780.8324 29116.7628 -826.9016 -780.8324
ENERGY: 300000 1.4068 4.9962 3.0298 0.0000 -13821.2279 2353.9984 0.0000 0.0000 513.3512 -10944.4456 87.8823 -11457.7968 -10943.0973 90.0971 -210.6030 -114.8471 28530.2853 2.6881 2.6375
TCL: Running 100000 steps at 120 kelvin.
TCL: Setting parameter langevinTemp to 120
TCL: Running for 100000 steps
ETITLE: TS BOND ANGLE DIHED IMPRP ELECT VDW BOUNDARY MISC KINETIC TOTAL TEMP POTENTIAL TOTAL3 TEMPAVG PRESSURE GPRESSURE VOLUME PRESSAVG GPRESSAVG
ENERGY: 300000 1.4068 4.9962 3.0298 0.0000 -13821.2279 2353.9984 0.0000 0.0000 513.0984 -10944.6984 87.8390 -11457.7968 -10943.7238 87.8390 -173.6637 -114.6131 28530.2853 -173.6637 -114.6131
ENERGY: 400000 2.3169 5.6851 3.1278 0.0000 -13550.2703 2218.9992 0.0000 0.0000 711.1698 -10608.9715 121.7475 -11320.1413 -10607.6447 120.2208 -820.3272 -814.2217 28633.8742 2.9475 2.7833
TCL: Running 100000 steps at 150 kelvin.
TCL: Setting parameter langevinTemp to 150
TCL: Running for 100000 steps
ETITLE: TS BOND ANGLE DIHED IMPRP ELECT VDW BOUNDARY MISC KINETIC TOTAL TEMP POTENTIAL TOTAL3 TEMPAVG PRESSURE GPRESSURE VOLUME PRESSAVG GPRESSAVG
ENERGY: 400000 2.3169 5.6851 3.1278 0.0000 -13550.2703 2218.9992 0.0000 0.0000 710.8275 -10609.3138 121.6890 -11320.1413 -10607.8841 121.6890 -853.8393 -814.2916 28633.8742 -853.8393 -814.2916
ENERGY: 500000 2.5343 5.8303 3.3735 0.0000 -13400.4320 2195.6634 0.0000 0.0000 876.8048 -10316.2258 150.1032 -11193.0306 -10314.6286 149.9981 -686.9435 -618.2785 28817.5664 5.0229 4.9756
TCL: Running 100000 steps at 180 kelvin.
TCL: Setting parameter langevinTemp to 180
TCL: Running for 100000 steps
ETITLE: TS BOND ANGLE DIHED IMPRP ELECT VDW BOUNDARY MISC KINETIC TOTAL TEMP POTENTIAL TOTAL3 TEMPAVG PRESSURE GPRESSURE VOLUME PRESSAVG GPRESSAVG
ENERGY: 500000 2.5343 5.8303 3.3735 0.0000 -13400.4320 2195.6634 0.0000 0.0000 876.3598 -10316.6708 150.0270 -11193.0306 -10314.8571 150.0270 -660.6491 -619.1570 28817.5664 -660.6491 -619.1570
ENERGY: 600000 2.9447 7.9356 3.7214 0.0000 -13039.3446 2100.2534 0.0000 0.0000 1038.1226 -9886.3669 177.7197 -10924.4895 -9881.5491 179.7156 -416.8390 -353.5715 28992.7238 4.4950 4.4944
TCL: Running 100000 steps at 210 kelvin.
TCL: Setting parameter langevinTemp to 210
TCL: Running for 100000 steps
ETITLE: TS BOND ANGLE DIHED IMPRP ELECT VDW BOUNDARY MISC KINETIC TOTAL TEMP POTENTIAL TOTAL3 TEMPAVG PRESSURE GPRESSURE VOLUME PRESSAVG GPRESSAVG
ENERGY: 600000 2.9447 7.9356 3.7214 0.0000 -13039.3446 2100.2534 0.0000 0.0000 1037.5885 -9886.9010 177.6283 -10924.4895 -9884.8010 177.6283 -417.1179 -351.9400 28992.7238 -417.1179 -351.9400
ENERGY: 700000 1.1096 11.6519 4.7315 0.0000 -12274.2598 1895.2728 0.0000 0.0000 1225.5236 -9135.9705 209.8015 -10361.4941 -9135.0004 210.0709 245.7384 284.8102 28690.9485 4.2239 4.2214
TCL: Running 100000 steps at 240 kelvin.
TCL: Setting parameter langevinTemp to 240
TCL: Running for 100000 steps
ETITLE: TS BOND ANGLE DIHED IMPRP ELECT VDW BOUNDARY MISC KINETIC TOTAL TEMP POTENTIAL TOTAL3 TEMPAVG PRESSURE GPRESSURE VOLUME PRESSAVG GPRESSAVG
ENERGY: 700000 1.1096 11.6519 4.7315 0.0000 -12274.2598 1895.2728 0.0000 0.0000 1224.9278 -9136.5663 209.6995 -10361.4941 -9134.9454 209.6995 227.0244 284.2283 28690.9485 227.0244 284.2283
ENERGY: 800000 2.1325 11.2450 4.6301 0.0000 -11790.0949 1733.8995 0.0000 0.0000 1343.0216 -8695.1662 229.9164 -10038.1878 -8691.8086 239.6586 -109.5302 -55.4569 29028.5450 2.3362 2.1989
TCL: Running 100000 steps at 270 kelvin.
TCL: Setting parameter langevinTemp to 270
TCL: Running for 100000 steps
ETITLE: TS BOND ANGLE DIHED IMPRP ELECT VDW BOUNDARY MISC KINETIC TOTAL TEMP POTENTIAL TOTAL3 TEMPAVG PRESSURE GPRESSURE VOLUME PRESSAVG GPRESSAVG
ENERGY: 800000 2.1325 11.2450 4.6301 0.0000 -11790.0949 1733.8995 0.0000 0.0000 1342.3256 -8695.8622 229.7972 -10038.1878 -8693.6854 229.7972 -124.0746 -56.1469 29028.5450 -124.0746 -56.1469
ENERGY: 900000 2.7444 8.2895 6.2349 0.0000 -11170.3832 1569.1837 0.0000 0.0000 1578.4595 -8005.4712 270.2218 -9583.9307 -7998.3545 269.8534 41.1851 197.1500 29422.8152 3.6594 3.7592
TCL: Running 1000000 steps at 300 kelvin.
TCL: Setting parameter langevinTemp to 300
TCL: Running for 1000000 steps
ETITLE: TS BOND ANGLE DIHED IMPRP ELECT VDW BOUNDARY MISC KINETIC TOTAL TEMP POTENTIAL TOTAL3 TEMPAVG PRESSURE GPRESSURE VOLUME PRESSAVG GPRESSAVG
ENERGY: 900000 2.7444 8.2895 6.2349 0.0000 -11170.3832 1569.1837 0.0000 0.0000 1577.6705 -8006.2602 270.0867 -9583.9307 -8004.4384 270.0867 110.9235 201.3747 29422.8152 110.9235 201.3747
ENERGY: 1100000 3.7242 16.8912 3.7622 0.0000 -10607.8640 1398.0415 0.0000 0.0000 1789.0785 -7396.3664 306.2784 -9185.4449 -7393.0396 299.9553 -361.2994 -315.7777 30289.4133 3.7054 3.7843
ENERGY: 1300000 1.7967 14.8846 3.9504 0.0000 -10682.6672 1461.6696 0.0000 0.0000 1760.1578 -7440.2081 301.3273 -9200.3659 -7436.0984 300.7802 169.2947 194.6392 30116.8234 4.1257 3.9185
ENERGY: 1500000 2.0077 10.7229 4.4734 0.0000 -10555.2203 1424.7840 0.0000 0.0000 1755.4278 -7357.8046 300.5176 -9113.2324 -7355.9920 300.4521 200.9877 271.1505 30103.4281 3.4816 3.4109
ENERGY: 1700000 2.7066 8.1778 5.8549 0.0000 -10536.7149 1429.8450 0.0000 0.0000 1750.0710 -7340.0596 299.6005 -9090.1306 -7335.5981 300.2689 204.8287 233.5122 30175.0424 3.4112 3.3573
ENERGY: 1900000 2.3930 9.0769 5.6605 0.0000 -10470.6517 1364.6199 0.0000 0.0000 1748.5861 -7340.3154 299.3463 -9088.9015 -7338.1057 300.1917 -220.9657 -198.2672 30261.8185 4.9491 4.8980
TCL: Exiting due to exit command.
