Info: SIMULATION PARAMETERS:
Info: TIMESTEP               2
Info: NUMBER OF STEPS        0
Info: STEPS PER CYCLE        10
Info: PERIODIC CELL BASIS 1  35.89 0 0
Info: PERIODIC CELL BASIS 2  0 34.457 0
Info: PERIODIC CELL BASIS 3  0 0 35.644
Info: PERIODIC CELL CENTER   0 0 0
Info: WRAPPING WATERS AROUND PERIODIC BOUNDARIES ON OUTPUT.
Info: WRAPPING ALL CLUSTERS AROUND PERIODIC BOUNDARIES ON OUTPUT.
Info: FIRST LDB TIMESTEP     50
Info: LAST LDB TIMESTEP     -1
Info: HOM BACKGROUND SCALING 1
Info: PME BACKGROUND SCALING 1
Info: MIN ATOMS PER PATCH    40
Info: EMPTY PATCH LOAD       40 ATOMS
Info: INITIAL TEMPERATURE    300
Info: CENTER OF MASS MOVING INITIALLY? NO
Info: DIELECTRIC             1
Info: EXCLUDE                SCALED ONE-FOUR
Info: 1-4 ELECTROSTATICS SCALED BY 0.833333
Info: MODIFIED 1-4 VDW PARAMETERS WILL BE USED
Info: DCD FILENAME           mobley_1838110_equil.dcd
Info: DCD FREQUENCY          100000
Info: DCD FIRST STEP         100000
Info: DCD FILE WILL CONTAIN UNIT CELL DATA
Info: XST FILENAME           mobley_1838110_equil.xst
Info: XST FREQUENCY          100000
Info: NO VELOCITY DCD OUTPUT
Info: NO FORCE DCD OUTPUT
Info: OUTPUT FILENAME        mobley_1838110_equil
Info: BINARY OUTPUT FILES WILL BE USED
Info: RESTART FILENAME       mobley_1838110_equil.restart
Info: RESTART FREQUENCY      100000
Info: BINARY RESTART FILES WILL BE USED
Info: CUTOFF                 9
Info: PAIRLIST DISTANCE      11
Info: PAIRLIST SHRINK RATE   0.01
Info: PAIRLIST GROW RATE     0.01
Info: PAIRLIST TRIGGER       0.3
Info: PAIRLISTS PER CYCLE    2
Info: PAIRLISTS ENABLED
Info: MARGIN                 8
Info: HYDROGEN GROUP CUTOFF  2.5
Info: PATCH DIMENSION        21.5
Info: ENERGY OUTPUT STEPS    100000
Info: ENERGY EVALUATION STEPS    100000
Info: OUTPUT ENERGY PRECISION 4
Info: CROSSTERM ENERGY INCLUDED IN DIHEDRAL
Info: TIMING OUTPUT STEPS    1000000
Info: PRESSURE OUTPUT STEPS  100000
Info: LANGEVIN DYNAMICS ACTIVE
Info: LANGEVIN TEMPERATURE   30
Info: LANGEVIN USING BBK INTEGRATOR
Info: LANGEVIN DAMPING COEFFICIENT IS 1 INVERSE PS
Info: LANGEVIN DYNAMICS APPLIED TO HYDROGENS
Info: LANGEVIN PISTON PRESSURE CONTROL ACTIVE
Info:        TARGET PRESSURE IS 1.01325 BAR
Info:     OSCILLATION PERIOD IS 50 FS
Info:             DECAY TIME IS 25 FS
Info:     PISTON TEMPERATURE IS 300 K
Info:       PRESSURE CONTROL IS GROUP-BASED
Info:    INITIAL STRAIN RATE IS 0 0 0
Info:       CELL FLUCTUATION IS ISOTROPIC
Info: PARTICLE MESH EWALD (PME) ACTIVE
Info: PME TOLERANCE               1e-06
Info: PME EWALD COEFFICIENT       0.348832
Info: PME INTERPOLATION ORDER     4
Info: PME GRID DIMENSIONS         36 36 36
Info: PME MAXIMUM GRID SPACING    1
Info: FULL ELECTROSTATIC EVALUATION FREQUENCY      2
Info: USING VERLET I (r-RESPA) MTS SCHEME.
Info: C1 SPLITTING OF LONG RANGE ELECTROSTATICS
Info: PLACING ATOMS IN PATCHES BY HYDROGEN GROUPS
Info: RIGID BONDS TO HYDROGEN : ALL
Info:         ERROR TOLERANCE : 1e-08
Info:          MAX ITERATIONS : 100
Info: RIGID WATER USING SETTLE ALGORITHM
Info: RANDOM NUMBER SEED     1743224661
Info: USE HYDROGEN BONDS?    NO
Info: Using AMBER format force field!
Info: AMBER PARM FILE        mobley_1838110.prmtop
Info: COORDINATE PDB         mobley_1838110.pdb
Info: Exclusions will be read from PARM file!
Info: SCNB (VDW SCALING)     2
Info: USING ARITHMETIC MEAN TO COMBINE L-J SIGMA PARAMETERS
Info: BINARY COORDINATES     mobley_1838110_min.coor
Info: SUMMARY OF PARAMETERS:
Info: 5 BONDS
Info: 5 ANGLES
Info:   5 HARMONIC
Info:   0 COSINE-BASED
Info: 4 DIHEDRAL
Info: 0 IMPROPER
Info: 0 CROSSTERM
Info: 0 VDW
Info: 15 VDW_PAIRS
Info: 0 NBTHOLE_PAIRS
Info: STRUCTURE SUMMARY:
Info: 2915 ATOMS
Info: 2914 BONDS
Info: 12 ANGLES
Info: 13 DIHEDRALS
Info: 0 IMPROPERS
Info: 0 CROSSTERMS
Info: 2935 EXCLUSIONS
Info: 2907 RIGID BONDS
Info: 5838 DEGREES OF FREEDOM
Info: 977 HYDROGEN GROUPS
Info: 3 ATOMS IN LARGEST HYDROGEN GROUP
Info: 977 MIGRATION GROUPS
Info: 3 ATOMS IN LARGEST MIGRATION GROUP
Info: TOTAL MASS = 17644.9 amu
Info: TOTAL CHARGE = 0.000100017 e
Info: MASS DENSITY = 0.664723 g/cm^3
Info: ATOM DENSITY = 0.0661304 atoms/A^3
Info: ADDED 0 IMPLICIT EXCLUSIONS
Info: NONBONDED TABLE R-SQUARED SPACING: 0.0625
Info: NONBONDED TABLE SIZE: 705 POINTS
Info: REMOVING COM VELOCITY 0.0187354 -0.0804493 0.165403
TCL: Running for 100000 steps
ETITLE: TS BOND ANGLE DIHED IMPRP ELECT VDW BOUNDARY MISC KINETIC TOTAL TEMP POTENTIAL TOTAL3 TEMPAVG PRESSURE GPRESSURE VOLUME PRESSAVG GPRESSAVG
ENERGY: 0 0.1182 0.3109 1.6154 0.0000 -13413.0270 2342.7792 0.0000 0.0000 1798.6262 -9269.5772 310.0753 -11068.2033 -9269.2288 310.0753 341.0658 369.9568 44079.5707 341.0658 369.9568
ENERGY: 100000 0.8703 0.9973 1.6384 0.0000 -14012.2799 2393.0852 0.0000 0.0000 172.6117 -11443.0770 29.7575 -11615.6887 -11442.6186 30.9452 -660.9802 -610.3041 29071.2067 3.8832 3.8922
TCL: Running 100000 steps at 60 kelvin.
TCL: Setting parameter langevinTemp to 60
TCL: Running for 100000 steps
ETITLE: TS BOND ANGLE DIHED IMPRP ELECT VDW BOUNDARY MISC KINETIC TOTAL TEMP POTENTIAL TOTAL3 TEMPAVG PRESSURE GPRESSURE VOLUME PRESSAVG GPRESSAVG
ENERGY: 100000 0.8703 0.9973 1.6384 0.0000 -14012.2799 2393.0852 0.0000 0.0000 172.5237 -11443.1650 29.7423 -11615.6887 -11442.8610 29.7423 -664.1242 -610.4016 29071.2067 -664.1242 -610.4016
ENERGY: 200000 0.8568 1.1452 1.8551 0.0000 -13920.8064 2416.6846 0.0000 0.0000 360.6721 -11139.5926 62.1783 -11500.2647 -11138.6426 60.1585 110.6791 176.9503 28581.2555 3.6519 3.6816
TCL: Running 100000 steps at 90 kelvin.
TCL: Setting parameter langevinTemp to 90
TCL: Running for 100000 steps
ETITLE: TS BOND ANGLE DIHED IMPRP ELECT VDW BOUNDARY MISC KINETIC TOTAL TEMP POTENTIAL TOTAL3 TEMPAVG PRESSURE GPRESSURE VOLUME PRESSAVG GPRESSAVG
ENERGY: 200000 0.8568 1.1452 1.8551 0.0000 -13920.8064 2416.6846 0.0000 0.0000 360.5027 -11139.7620 62.1491 -11500.2647 -11139.0849 62.1491 119.5970 177.1341 28581.2555 119.5970 177.1341
ENERGY: 300000 0.3290 1.3113 1.5880 0.0000 -13730.9230 2309.9697 0.0000 0.0000 508.8338 -10908.8911 87.7207 -11417.7250 -10907.9045 89.7957 -351.1769 -273.5577 28639.9286 2.9345 2.9327
TCL: Running 100000 steps at 120 kelvin.
TCL: Setting parameter langevinTemp to 120
TCL: Running for 100000 steps
ETITLE: TS BOND ANGLE DIHED IMPRP ELECT VDW BOUNDARY MISC KINETIC TOTAL TEMP POTENTIAL TOTAL3 TEMPAVG PRESSURE GPRESSURE VOLUME PRESSAVG GPRESSAVG
ENERGY: 300000 0.3290 1.3113 1.5880 0.0000 -13730.9230 2309.9697 0.0000 0.0000 508.5660 -10909.1589 87.6746 -11417.7250 -10908.0931 87.6746 -327.6403 -273.1695 28639.9286 -327.6403 -273.1695
ENERGY: 400000 0.7442 1.9757 1.7243 0.0000 -13555.7277 2263.5056 0.0000 0.0000 707.2619 -10580.5161 121.9289 -11287.7780 -10578.8412 120.1549 -443.5852 -382.0148 28853.2508 3.7123 3.6059
TCL: Running 100000 steps at 150 kelvin.
TCL: Setting parameter langevinTemp to 150
TCL: Running for 100000 steps
ETITLE: TS BOND ANGLE DIHED IMPRP ELECT VDW BOUNDARY MISC KINETIC TOTAL TEMP POTENTIAL TOTAL3 TEMPAVG PRESSURE GPRESSURE VOLUME PRESSAVG GPRESSAVG
ENERGY: 400000 0.7442 1.9757 1.7243 0.0000 -13555.7277 2263.5056 0.0000 0.0000 706.9269 -10580.8511 121.8711 -11287.7780 -10579.4026 121.8711 -436.0650 -381.7884 28853.2508 -436.0650 -381.7884
ENERGY: 500000 2.2261 0.8430 1.6169 0.0000 -13279.8065 2168.9630 0.0000 0.0000 846.8417 -10259.3159 145.9918 -11106.1575 -10257.8451 150.3233 -586.9940 -545.0397 29032.9335 3.8759 3.9572
TCL: Running 100000 steps at 180 kelvin.
TCL: Setting parameter langevinTemp to 180
TCL: Running for 100000 steps
ETITLE: TS BOND ANGLE DIHED IMPRP ELECT VDW BOUNDARY MISC KINETIC TOTAL TEMP POTENTIAL TOTAL3 TEMPAVG PRESSURE GPRESSURE VOLUME PRESSAVG GPRESSAVG
ENERGY: 500000 2.2261 0.8430 1.6169 0.0000 -13279.8065 2168.9630 0.0000 0.0000 846.4237 -10259.7338 145.9198 -11106.1575 -10258.0861 145.9198 -601.3552 -546.1301 29032.9335 -601.3552 -546.1301
ENERGY: 600000 1.6626 2.1645 1.6522 0.0000 -13043.2355 2186.9945 0.0000 0.0000 1035.5626 -9815.1991 178.5265 -10850.7617 -9813.1863 180.3305 633.0270 702.3859 28505.5556 5.0321 5.0607
TCL: Running 100000 steps at 210 kelvin.
TCL: Setting parameter langevinTemp to 210
TCL: Running for 100000 steps
ETITLE: TS BOND ANGLE DIHED IMPRP ELECT VDW BOUNDARY MISC KINETIC TOTAL TEMP POTENTIAL TOTAL3 TEMPAVG PRESSURE GPRESSURE VOLUME PRESSAVG GPRESSAVG
ENERGY: 600000 1.6626 2.1645 1.6522 0.0000 -13043.2355 2186.9945 0.0000 0.0000 1035.0535 -9815.7082 178.4387 -10850.7617 -9814.0513 178.4387 619.6720 702.6983 28505.5556 619.6720 702.6983
ENERGY: 700000 0.3489 3.3176 1.5377 0.0000 -12166.7704 1823.7613 0.0000 0.0000 1240.3333 -9097.4716 213.8281 -10337.8049 -9093.1052 209.4943 -438.8116 -324.0685 28828.8618 2.7426 2.8320
TCL: Running 100000 steps at 240 kelvin.
TCL: Setting parameter langevinTemp to 240
TCL: Running for 100000 steps
ETITLE: TS BOND ANGLE DIHED IMPRP ELECT VDW BOUNDARY MISC KINETIC TOTAL TEMP POTENTIAL TOTAL3 TEMPAVG PRESSURE GPRESSURE VOLUME PRESSAVG GPRESSAVG
ENERGY: 700000 0.3489 3.3176 1.5377 0.0000 -12166.7704 1823.7613 0.0000 0.0000 1239.7371 -9098.0678 213.7253 -10337.8049 -9096.0271 213.7253 -400.5143 -322.5049 28828.8618 -400.5143 -322.5049
ENERGY: 800000 1.1391 1.9615 1.5586 0.0000 -11635.3145 1692.1417 0.0000 0.0000 1392.1099 -8546.4036 239.9937 -9938.5136 -8544.7668 240.0613 -197.7687 -108.6492 29114.4466 2.9322 2.9360
TCL: Running 100000 steps at 270 kelvin.
TCL: Setting parameter langevinTemp to 270
TCL: Running for 100000 steps
ETITLE: TS BOND ANGLE DIHED IMPRP ELECT VDW BOUNDARY MISC KINETIC TOTAL TEMP POTENTIAL TOTAL3 TEMPAVG PRESSURE GPRESSURE VOLUME PRESSAVG GPRESSAVG
ENERGY: 800000 1.1391 1.9615 1.5586 0.0000 -11635.3145 1692.1417 0.0000 0.0000 1391.4036 -8547.1100 239.8719 -9938.5136 -8544.7624 239.8719 -181.6465 -111.2955 29114.4466 -181.6465 -111.2955
ENERGY: 900000 1.0937 3.9414 1.5539 0.0000 -11040.2283 1481.9451 0.0000 0.0000 1522.3050 -8029.3891 262.4388 -9551.6941 -8025.4877 270.0220 -522.7893 -431.6947 29120.5747 3.7260 3.7208
TCL: Running 1000000 steps at 300 kelvin.
TCL: Setting parameter langevinTemp to 300
TCL: Running for 1000000 steps
ETITLE: TS BOND ANGLE DIHED IMPRP ELECT VDW BOUNDARY MISC KINETIC TOTAL TEMP POTENTIAL TOTAL3 TEMPAVG PRESSURE GPRESSURE VOLUME PRESSAVG GPRESSAVG
ENERGY: 900000 1.0937 3.9414 1.5539 0.0000 -11040.2283 1481.9451 0.0000 0.0000 1521.5305 -8030.1637 262.3052 -9551.6941 -8028.0928 262.3052 -515.4026 -429.6401 29120.5747 -515.4026 -429.6401
ENERGY: 1100000 2.3760 2.9568 1.5972 0.0000 -10646.7536 1407.2366 0.0000 0.0000 1714.3070 -7518.2800 295.5391 -9232.5870 -7513.5929 300.5554 -629.6366 -558.2648 30258.5207 3.4984 3.4598
ENERGY: 1300000 4.4444 1.6996 1.7678 0.0000 -10747.9814 1490.7586 0.0000 0.0000 1733.1442 -7516.1668 298.7865 -9249.3110 -7514.0255 300.5257 133.1702 215.6805 30415.5796 3.0039 2.9629
ENERGY: 1500000 3.3036 2.1051 1.8521 0.0000 -10619.8563 1402.5951 0.0000 0.0000 1759.6685 -7450.3319 303.3592 -9210.0004 -7448.0260 299.7284 -233.6036 -78.4454 29632.5255 2.9299 3.0579
ENERGY: 1700000 1.3375 0.6791 1.8335 0.0000 -10610.0832 1411.8664 0.0000 0.0000 1740.4113 -7453.9554 300.0393 -9194.3667 -7449.2406 300.2926 -334.5775 -216.8145 29925.8362 3.2166 3.1847
ENERGY: 1900000 0.6182 5.0839 1.7248 0.0000 -10588.6238 1444.0970 0.0000 0.0000 1742.4230 -7394.6769 300.3861 -9137.0999 -7390.9365 300.3685 42.8745 109.0253 30572.3087 3.1777 3.3712
TCL: Exiting due to exit command.
