Info: SIMULATION PARAMETERS:
Info: TIMESTEP               2
Info: NUMBER OF STEPS        0
Info: STEPS PER CYCLE        10
Info: PERIODIC CELL BASIS 1  35.01 0 0
Info: PERIODIC CELL BASIS 2  0 35.779 0
Info: PERIODIC CELL BASIS 3  0 0 34.954
Info: PERIODIC CELL CENTER   0 0 0
Info: WRAPPING WATERS AROUND PERIODIC BOUNDARIES ON OUTPUT.
Info: WRAPPING ALL CLUSTERS AROUND PERIODIC BOUNDARIES ON OUTPUT.
Info: FIRST LDB TIMESTEP     50
Info: LAST LDB TIMESTEP     -1
Info: HOM BACKGROUND SCALING 1
Info: PME BACKGROUND SCALING 1
Info: MIN ATOMS PER PATCH    40
Info: EMPTY PATCH LOAD       40 ATOMS
Info: INITIAL TEMPERATURE    300
Info: CENTER OF MASS MOVING INITIALLY? NO
Info: DIELECTRIC             1
Info: EXCLUDE                SCALED ONE-FOUR
Info: 1-4 ELECTROSTATICS SCALED BY 0.833333
Info: MODIFIED 1-4 VDW PARAMETERS WILL BE USED
Info: DCD FILENAME           mobley_2043882_equil.dcd
Info: DCD FREQUENCY          100000
Info: DCD FIRST STEP         100000
Info: DCD FILE WILL CONTAIN UNIT CELL DATA
Info: XST FILENAME           mobley_2043882_equil.xst
Info: XST FREQUENCY          100000
Info: NO VELOCITY DCD OUTPUT
Info: NO FORCE DCD OUTPUT
Info: OUTPUT FILENAME        mobley_2043882_equil
Info: BINARY OUTPUT FILES WILL BE USED
Info: RESTART FILENAME       mobley_2043882_equil.restart
Info: RESTART FREQUENCY      100000
Info: BINARY RESTART FILES WILL BE USED
Info: CUTOFF                 9
Info: PAIRLIST DISTANCE      11
Info: PAIRLIST SHRINK RATE   0.01
Info: PAIRLIST GROW RATE     0.01
Info: PAIRLIST TRIGGER       0.3
Info: PAIRLISTS PER CYCLE    2
Info: PAIRLISTS ENABLED
Info: MARGIN                 8
Info: HYDROGEN GROUP CUTOFF  2.5
Info: PATCH DIMENSION        21.5
Info: ENERGY OUTPUT STEPS    100000
Info: ENERGY EVALUATION STEPS    100000
Info: OUTPUT ENERGY PRECISION 4
Info: CROSSTERM ENERGY INCLUDED IN DIHEDRAL
Info: TIMING OUTPUT STEPS    1000000
Info: PRESSURE OUTPUT STEPS  100000
Info: LANGEVIN DYNAMICS ACTIVE
Info: LANGEVIN TEMPERATURE   30
Info: LANGEVIN USING BBK INTEGRATOR
Info: LANGEVIN DAMPING COEFFICIENT IS 1 INVERSE PS
Info: LANGEVIN DYNAMICS APPLIED TO HYDROGENS
Info: LANGEVIN PISTON PRESSURE CONTROL ACTIVE
Info:        TARGET PRESSURE IS 1.01325 BAR
Info:     OSCILLATION PERIOD IS 50 FS
Info:             DECAY TIME IS 25 FS
Info:     PISTON TEMPERATURE IS 300 K
Info:       PRESSURE CONTROL IS GROUP-BASED
Info:    INITIAL STRAIN RATE IS 0 0 0
Info:       CELL FLUCTUATION IS ISOTROPIC
Info: PARTICLE MESH EWALD (PME) ACTIVE
Info: PME TOLERANCE               1e-06
Info: PME EWALD COEFFICIENT       0.348832
Info: PME INTERPOLATION ORDER     4
Info: PME GRID DIMENSIONS         36 36 36
Info: PME MAXIMUM GRID SPACING    1
Info: FULL ELECTROSTATIC EVALUATION FREQUENCY      2
Info: USING VERLET I (r-RESPA) MTS SCHEME.
Info: C1 SPLITTING OF LONG RANGE ELECTROSTATICS
Info: PLACING ATOMS IN PATCHES BY HYDROGEN GROUPS
Info: RIGID BONDS TO HYDROGEN : ALL
Info:         ERROR TOLERANCE : 1e-08
Info:          MAX ITERATIONS : 100
Info: RIGID WATER USING SETTLE ALGORITHM
Info: RANDOM NUMBER SEED     1743236173
Info: USE HYDROGEN BONDS?    NO
Info: Using AMBER format force field!
Info: AMBER PARM FILE        mobley_2043882.prmtop
Info: COORDINATE PDB         mobley_2043882.pdb
Info: Exclusions will be read from PARM file!
Info: SCNB (VDW SCALING)     2
Info: USING ARITHMETIC MEAN TO COMBINE L-J SIGMA PARAMETERS
Info: BINARY COORDINATES     mobley_2043882_min.coor
Info: SUMMARY OF PARAMETERS:
Info: 6 BONDS
Info: 7 ANGLES
Info:   7 HARMONIC
Info:   0 COSINE-BASED
Info: 11 DIHEDRAL
Info: 0 IMPROPER
Info: 0 CROSSTERM
Info: 0 VDW
Info: 21 VDW_PAIRS
Info: 0 NBTHOLE_PAIRS
Info: STRUCTURE SUMMARY:
Info: 2912 ATOMS
Info: 2912 BONDS
Info: 45 ANGLES
Info: 87 DIHEDRALS
Info: 0 IMPROPERS
Info: 0 CROSSTERMS
Info: 3020 EXCLUSIONS
Info: 2903 RIGID BONDS
Info: 5833 DEGREES OF FREEDOM
Info: 972 HYDROGEN GROUPS
Info: 4 ATOMS IN LARGEST HYDROGEN GROUP
Info: 972 MIGRATION GROUPS
Info: 4 ATOMS IN LARGEST MIGRATION GROUP
Info: TOTAL MASS = 17475.6 amu
Info: TOTAL CHARGE = 0.000100017 e
Info: MASS DENSITY = 0.662787 g/cm^3
Info: ATOM DENSITY = 0.066508 atoms/A^3
Info: ADDED 0 IMPLICIT EXCLUSIONS
Info: NONBONDED TABLE R-SQUARED SPACING: 0.0625
Info: NONBONDED TABLE SIZE: 705 POINTS
Info: REMOVING COM VELOCITY -0.0647724 0.0766877 0.0233282
TCL: Running for 100000 steps
ETITLE: TS BOND ANGLE DIHED IMPRP ELECT VDW BOUNDARY MISC KINETIC TOTAL TEMP POTENTIAL TOTAL3 TEMPAVG PRESSURE GPRESSURE VOLUME PRESSAVG GPRESSAVG
ENERGY: 0 0.3444 1.0084 5.8001 0.0000 -13414.6142 2358.4374 0.0000 0.0000 1743.1184 -9305.9055 300.7636 -11049.0239 -9305.5750 300.7636 434.7610 465.1714 43784.1770 434.7610 465.1714
ENERGY: 100000 0.5291 2.2164 5.9682 0.0000 -14063.2377 2464.0892 0.0000 0.0000 167.2259 -11423.2089 28.8537 -11590.4348 -11422.9047 30.9598 144.0509 199.9066 28303.7516 5.0883 5.0882
TCL: Running 100000 steps at 60 kelvin.
TCL: Setting parameter langevinTemp to 60
TCL: Running for 100000 steps
ETITLE: TS BOND ANGLE DIHED IMPRP ELECT VDW BOUNDARY MISC KINETIC TOTAL TEMP POTENTIAL TOTAL3 TEMPAVG PRESSURE GPRESSURE VOLUME PRESSAVG GPRESSAVG
ENERGY: 100000 0.5291 2.2164 5.9682 0.0000 -14063.2377 2464.0892 0.0000 0.0000 167.1415 -11423.2934 28.8392 -11590.4348 -11422.8957 28.8392 149.4107 199.8202 28303.7516 149.4107 199.8202
ENERGY: 200000 1.3026 3.5100 5.8012 0.0000 -13853.0952 2333.5230 0.0000 0.0000 359.1257 -11149.8327 61.9648 -11508.9585 -11149.0113 60.1357 -536.8626 -447.8732 28113.8129 4.5097 4.5211
TCL: Running 100000 steps at 90 kelvin.
TCL: Setting parameter langevinTemp to 90
TCL: Running for 100000 steps
ETITLE: TS BOND ANGLE DIHED IMPRP ELECT VDW BOUNDARY MISC KINETIC TOTAL TEMP POTENTIAL TOTAL3 TEMPAVG PRESSURE GPRESSURE VOLUME PRESSAVG GPRESSAVG
ENERGY: 200000 1.3026 3.5100 5.8012 0.0000 -13853.0952 2333.5230 0.0000 0.0000 358.9529 -11150.0056 61.9350 -11508.9585 -11149.2938 61.9350 -510.6993 -447.4801 28113.8129 -510.6993 -447.4801
ENERGY: 300000 1.2992 4.3271 5.7033 0.0000 -13638.5975 2214.0035 0.0000 0.0000 526.6677 -10886.5967 90.8730 -11413.2644 -10884.9200 90.0918 -1114.6511 -1085.1041 28303.7393 4.5259 4.5564
TCL: Running 100000 steps at 120 kelvin.
TCL: Setting parameter langevinTemp to 120
TCL: Running for 100000 steps
ETITLE: TS BOND ANGLE DIHED IMPRP ELECT VDW BOUNDARY MISC KINETIC TOTAL TEMP POTENTIAL TOTAL3 TEMPAVG PRESSURE GPRESSURE VOLUME PRESSAVG GPRESSAVG
ENERGY: 300000 1.2992 4.3271 5.7033 0.0000 -13638.5975 2214.0035 0.0000 0.0000 526.4197 -10886.8447 90.8303 -11413.2644 -10885.7287 90.8303 -1151.8394 -1084.9895 28303.7393 -1151.8394 -1084.9895
ENERGY: 400000 1.6827 5.6939 5.8194 0.0000 -13692.0943 2406.4420 0.0000 0.0000 701.2730 -10571.1834 121.0000 -11272.4564 -10568.7509 119.9638 1033.6562 1102.6170 27962.2721 3.2145 3.1737
TCL: Running 100000 steps at 150 kelvin.
TCL: Setting parameter langevinTemp to 150
TCL: Running for 100000 steps
ETITLE: TS BOND ANGLE DIHED IMPRP ELECT VDW BOUNDARY MISC KINETIC TOTAL TEMP POTENTIAL TOTAL3 TEMPAVG PRESSURE GPRESSURE VOLUME PRESSAVG GPRESSAVG
ENERGY: 400000 1.6827 5.6939 5.8194 0.0000 -13692.0943 2406.4420 0.0000 0.0000 700.9230 -10571.5333 120.9397 -11272.4564 -10570.0683 120.9397 1043.1580 1103.0956 27962.2721 1043.1580 1103.0956
ENERGY: 500000 2.1670 7.4632 6.2794 0.0000 -13324.6791 2181.9040 0.0000 0.0000 865.5634 -10261.3021 149.3473 -11126.8655 -10259.1332 150.2786 -357.0616 -286.0679 28308.9732 2.4264 2.5367
TCL: Running 100000 steps at 180 kelvin.
TCL: Setting parameter langevinTemp to 180
TCL: Running for 100000 steps
ETITLE: TS BOND ANGLE DIHED IMPRP ELECT VDW BOUNDARY MISC KINETIC TOTAL TEMP POTENTIAL TOTAL3 TEMPAVG PRESSURE GPRESSURE VOLUME PRESSAVG GPRESSAVG
ENERGY: 500000 2.1670 7.4632 6.2794 0.0000 -13324.6791 2181.9040 0.0000 0.0000 865.1397 -10261.7259 149.2742 -11126.8655 -10260.2062 149.2742 -349.6075 -286.5434 28308.9732 -349.6075 -286.5434
ENERGY: 600000 0.9426 12.3281 6.6181 0.0000 -13044.1458 2224.9732 0.0000 0.0000 1039.4977 -9759.7862 179.3585 -10799.2839 -9758.6468 179.7708 1343.3281 1404.8966 28063.3921 3.7113 3.7736
TCL: Running 100000 steps at 210 kelvin.
TCL: Setting parameter langevinTemp to 210
TCL: Running for 100000 steps
ETITLE: TS BOND ANGLE DIHED IMPRP ELECT VDW BOUNDARY MISC KINETIC TOTAL TEMP POTENTIAL TOTAL3 TEMPAVG PRESSURE GPRESSURE VOLUME PRESSAVG GPRESSAVG
ENERGY: 600000 0.9426 12.3281 6.6181 0.0000 -13044.1458 2224.9732 0.0000 0.0000 1038.9743 -9760.3095 179.2682 -10799.2839 -9758.6183 179.2682 1343.0698 1403.7267 28063.3921 1343.0698 1403.7267
ENERGY: 700000 1.2944 8.0662 6.9523 0.0000 -12315.3362 1976.9485 0.0000 0.0000 1243.9048 -9078.1700 214.6276 -10322.0748 -9075.0446 209.6253 1129.7403 1102.3566 28191.3806 2.7838 2.9203
TCL: Running 100000 steps at 240 kelvin.
TCL: Setting parameter langevinTemp to 240
TCL: Running for 100000 steps
ETITLE: TS BOND ANGLE DIHED IMPRP ELECT VDW BOUNDARY MISC KINETIC TOTAL TEMP POTENTIAL TOTAL3 TEMPAVG PRESSURE GPRESSURE VOLUME PRESSAVG GPRESSAVG
ENERGY: 700000 1.2944 8.0662 6.9523 0.0000 -12315.3362 1976.9485 0.0000 0.0000 1243.3113 -9078.7635 214.5252 -10322.0748 -9076.8863 214.5252 1042.3985 1103.8137 28191.3806 1042.3985 1103.8137
ENERGY: 800000 4.1004 6.9838 6.5177 0.0000 -11388.3702 1490.8150 0.0000 0.0000 1434.7568 -8445.1964 247.5578 -9879.9532 -8441.1033 240.1545 -1555.2634 -1476.0954 28792.5180 2.5471 2.4369
TCL: Running 100000 steps at 270 kelvin.
TCL: Setting parameter langevinTemp to 270
TCL: Running for 100000 steps
ETITLE: TS BOND ANGLE DIHED IMPRP ELECT VDW BOUNDARY MISC KINETIC TOTAL TEMP POTENTIAL TOTAL3 TEMPAVG PRESSURE GPRESSURE VOLUME PRESSAVG GPRESSAVG
ENERGY: 800000 4.1004 6.9838 6.5177 0.0000 -11388.3702 1490.8150 0.0000 0.0000 1434.0282 -8445.9250 247.4321 -9879.9532 -8443.4699 247.4321 -1552.9135 -1476.5847 28792.5180 -1552.9135 -1476.5847
ENERGY: 900000 1.8999 9.6952 6.5302 0.0000 -11010.3615 1468.1771 0.0000 0.0000 1556.8651 -7967.1939 268.6268 -9524.0590 -7963.0658 270.4257 -850.6977 -750.7038 29500.4703 2.3988 2.4582
TCL: Running 1000000 steps at 300 kelvin.
TCL: Setting parameter langevinTemp to 300
TCL: Running for 1000000 steps
ETITLE: TS BOND ANGLE DIHED IMPRP ELECT VDW BOUNDARY MISC KINETIC TOTAL TEMP POTENTIAL TOTAL3 TEMPAVG PRESSURE GPRESSURE VOLUME PRESSAVG GPRESSAVG
ENERGY: 900000 1.8999 9.6952 6.5302 0.0000 -11010.3615 1468.1771 0.0000 0.0000 1556.0967 -7967.9623 268.4942 -9524.0590 -7964.9228 268.4942 -837.1577 -749.9725 29500.4703 -837.1577 -749.9725
ENERGY: 1100000 2.6313 13.2646 5.8939 0.0000 -10411.4653 1337.4262 0.0000 0.0000 1705.2230 -7347.0263 294.2250 -9052.2493 -7342.5614 300.2809 -557.5422 -461.6588 30351.4633 3.9786 3.9482
ENERGY: 1300000 0.5827 7.2857 6.1977 0.0000 -10548.3129 1419.5813 0.0000 0.0000 1789.6929 -7324.9727 308.7997 -9114.6656 -7324.3053 300.4968 -192.0951 -53.7848 30323.8959 3.5268 3.6108
ENERGY: 1500000 5.7913 16.7352 7.2758 0.0000 -10390.1883 1348.6584 0.0000 0.0000 1750.1544 -7261.5732 301.9776 -9011.7275 -7258.7309 300.6597 -265.4456 -186.9534 30044.6767 3.4410 3.5159
ENERGY: 1700000 1.9910 9.9162 7.9698 0.0000 -10551.6860 1369.9765 0.0000 0.0000 1706.8154 -7455.0172 294.4998 -9161.8326 -7451.8236 300.7041 -560.4848 -463.6536 29827.2892 2.9614 2.8947
ENERGY: 1900000 4.3738 9.2801 5.9860 0.0000 -10269.3380 1264.9654 0.0000 0.0000 1725.9022 -7258.8304 297.7931 -8984.7327 -7254.7513 300.1813 -1270.7732 -1231.3967 30689.8661 3.0487 3.0862
TCL: Exiting due to exit command.
