Info: SIMULATION PARAMETERS:
Info: TIMESTEP               2
Info: NUMBER OF STEPS        0
Info: STEPS PER CYCLE        10
Info: PERIODIC CELL BASIS 1  31.0894 0 0
Info: PERIODIC CELL BASIS 2  0 30.8317 0
Info: PERIODIC CELL BASIS 3  0 0 31.8625
Info: PERIODIC CELL CENTER   0 0 0
Info: WRAPPING WATERS AROUND PERIODIC BOUNDARIES ON OUTPUT.
Info: WRAPPING ALL CLUSTERS AROUND PERIODIC BOUNDARIES ON OUTPUT.
Info: FIRST LDB TIMESTEP     50
Info: LAST LDB TIMESTEP     -1
Info: HOM BACKGROUND SCALING 1
Info: PME BACKGROUND SCALING 1
Info: MIN ATOMS PER PATCH    40
Info: EMPTY PATCH LOAD       40 ATOMS
Info: VELOCITY FILE          mobley_7732703_equil.vel
Info: CENTER OF MASS MOVING INITIALLY? NO
Info: DIELECTRIC             1
Info: EXCLUDE                SCALED ONE-FOUR
Info: 1-4 ELECTROSTATICS SCALED BY 0.833333
Info: MODIFIED 1-4 VDW PARAMETERS WILL BE USED
Info: DCD FILENAME           mobley_7732703_prod.dcd
Info: DCD FREQUENCY          100000
Info: DCD FIRST STEP         100000
Info: DCD FILE WILL CONTAIN UNIT CELL DATA
Info: XST FILENAME           mobley_7732703_prod.xst
Info: XST FREQUENCY          100000
Info: NO VELOCITY DCD OUTPUT
Info: NO FORCE DCD OUTPUT
Info: OUTPUT FILENAME        mobley_7732703_prod
Info: BINARY OUTPUT FILES WILL BE USED
Info: RESTART FILENAME       mobley_7732703_prod.restart
Info: RESTART FREQUENCY      100000
Info: BINARY RESTART FILES WILL BE USED
Info: CUTOFF                 9
Info: PAIRLIST DISTANCE      11
Info: PAIRLIST SHRINK RATE   0.01
Info: PAIRLIST GROW RATE     0.01
Info: PAIRLIST TRIGGER       0.3
Info: PAIRLISTS PER CYCLE    2
Info: PAIRLISTS ENABLED
Info: MARGIN                 2
Info: HYDROGEN GROUP CUTOFF  2.5
Info: PATCH DIMENSION        15.5
Info: ENERGY OUTPUT STEPS    100000
Info: ENERGY EVALUATION STEPS    100000
Info: OUTPUT ENERGY PRECISION 4
Info: CROSSTERM ENERGY INCLUDED IN DIHEDRAL
Info: TIMING OUTPUT STEPS    1000000
Info: PRESSURE OUTPUT STEPS  100000
Info: ALCHEMICAL FEP ON
Info: FEP CURRENT LAMBDA VALUE     1
Info: FEP COMPARISON LAMBDA VALUE  0.95
Info: FEP INTRA-ALCHEMICAL NON-BONDED INTERACTIONS WILL BE RETAINED
Info: FEP INTRA-ALCHEMICAL BONDED INTERACTIONS WILL BE RETAINED
Info: FEP VDW SHIFTING COEFFICIENT 5
Info: FEP ELEC. ACTIVE FOR ANNIHILATED PARTICLES BETWEEN LAMBDA = 0 AND LAMBDA = 0.5
Info: FEP ELEC. ACTIVE FOR EXNIHILATED PARTICLES BETWEEN LAMBDA = 0.5 AND LAMBDA = 1
Info: FEP VDW ACTIVE FOR ANNIHILATED PARTICLES BETWEEN LAMBDA = 0 AND LAMBDA = 1
Info: FEP VDW ACTIVE FOR EXNIHILATED PARTICLES BETWEEN LAMBDA = 0 AND LAMBDA = 1
Info: FEP BOND ACTIVE FOR ANNIHILATED PARTICLES BETWEEN LAMBDA = 1 AND LAMBDA = 1
Info: FEP BOND ACTIVE FOR EXNIHILATED PARTICLES BETWEEN LAMBDA = 0 AND LAMBDA = 0
Info: LANGEVIN DYNAMICS ACTIVE
Info: LANGEVIN TEMPERATURE   300
Info: LANGEVIN USING BBK INTEGRATOR
Info: LANGEVIN DAMPING COEFFICIENT IS 1 INVERSE PS
Info: LANGEVIN DYNAMICS APPLIED TO HYDROGENS
Info: LANGEVIN PISTON PRESSURE CONTROL ACTIVE
Info:        TARGET PRESSURE IS 1.01325 BAR
Info:     OSCILLATION PERIOD IS 50 FS
Info:             DECAY TIME IS 25 FS
Info:     PISTON TEMPERATURE IS 300 K
Info:       PRESSURE CONTROL IS GROUP-BASED
Info:    INITIAL STRAIN RATE IS -0.00026849 -0.00026849 -0.00026849
Info:       CELL FLUCTUATION IS ISOTROPIC
Info: PARTICLE MESH EWALD (PME) ACTIVE
Info: PME TOLERANCE               1e-06
Info: PME EWALD COEFFICIENT       0.348832
Info: PME INTERPOLATION ORDER     4
Info: PME GRID DIMENSIONS         32 32 32
Info: PME MAXIMUM GRID SPACING    1
Info: PME CALCULATION WILL BE PERFORMED ON GPU
Info: FULL ELECTROSTATIC EVALUATION FREQUENCY      2
Info: USING VERLET I (r-RESPA) MTS SCHEME.
Info: C1 SPLITTING OF LONG RANGE ELECTROSTATICS
Info: PLACING ATOMS IN PATCHES BY HYDROGEN GROUPS
Info: RIGID BONDS TO HYDROGEN : ALL
Info:         ERROR TOLERANCE : 1e-08
Info:          MAX ITERATIONS : 100
Info: RIGID WATER USING SETTLE ALGORITHM
Info: RANDOM NUMBER SEED     1743477485
Info: USE HYDROGEN BONDS?    NO
Info: Using AMBER format force field!
Info: AMBER PARM FILE        mobley_7732703.prmtop
Info: COORDINATE PDB         mobley_7732703.pdb
Info: Exclusions will be read from PARM file!
Info: SCNB (VDW SCALING)     2
Info: USING ARITHMETIC MEAN TO COMBINE L-J SIGMA PARAMETERS
Info: BINARY COORDINATES     mobley_7732703_equil.coor
Info: SUMMARY OF PARAMETERS:
Info: 4 BONDS
Info: 2 ANGLES
Info:   2 HARMONIC
Info:   0 COSINE-BASED
Info: 0 DIHEDRAL
Info: 0 IMPROPER
Info: 0 CROSSTERM
Info: 0 VDW
Info: 15 VDW_PAIRS
Info: 0 NBTHOLE_PAIRS
Info: To read alchdata from file: mobley_7732703.pdb
Info: To read alchflag data from column: 5
Info: STRUCTURE SUMMARY:
Info: 2945 ATOMS
Info: 2944 BONDS
Info: 6 ANGLES
Info: 0 DIHEDRALS
Info: 0 IMPROPERS
Info: 0 CROSSTERMS
Info: 2950 EXCLUSIONS
Info: 2940 RIGID BONDS
Info: ALCH: 0 ATOMS TO DISAPPEAR IN FINAL STATE
Info: ALCH: 5 ATOMS TO APPEAR IN FINAL STATE
Info: 5895 DEGREES OF FREEDOM
Info: 985 HYDROGEN GROUPS
Info: 3 ATOMS IN LARGEST HYDROGEN GROUP
Info: 985 MIGRATION GROUPS
Info: 3 ATOMS IN LARGEST MIGRATION GROUP
Info: TOTAL MASS = 17804.6 amu
Info: TOTAL CHARGE = 9.99942e-05 e
Info: MASS DENSITY = 0.968059 g/cm^3
Info: ATOM DENSITY = 0.0964264 atoms/A^3
Info: ADDED 0 IMPLICIT EXCLUSIONS
Info: NONBONDED TABLE R-SQUARED SPACING: 0.0625
Info: NONBONDED TABLE SIZE: 705 POINTS
Info: REMOVING COM VELOCITY -0.124083 0.287105 -0.0959989
Info: Use 3D box decompostion in PME FFT.
Info: Updated CUDA force table with 4096 elements.
Info: Updated CUDA LJ table with 5 x 5 elements.
Info: Found 8 unique exclusion lists needing 8 bytes
TCL: Running for 1500000 steps
ETITLE: TS BOND ANGLE DIHED IMPRP ELECT VDW BOUNDARY MISC KINETIC TOTAL TEMP POTENTIAL TOTALAVG TEMPAVG PRESSURE GPRESSURE VOLUME PRESSAVG GPRESSAVG
ENERGY: 0 0.9057 2.5973 0.0000 0.0000 -10620.2833 1378.1102 0.0000 0.0000 1787.1989 -7451.4714 305.1262 -9238.6702 -7451.4714 305.1262 -466.1046 -393.8090 30541.4264 -466.1046 -393.8090
ENERGY: 300000 2.3575 0.6470 0.0000 0.0000 -10593.4738 1364.4297 0.0000 0.0000 1732.0849 -7493.9546 295.7166 -9226.0396 -7499.9897 300.3431 -516.6059 -535.9263 30653.6920 -237.8101 -187.4940
ENERGY: 600000 0.0959 1.1555 0.0000 0.0000 -10548.7634 1361.4806 0.0000 0.0000 1800.9498 -7385.0816 307.4739 -9186.0314 -7492.7405 300.5978 -437.5434 -365.9539 30714.8362 -238.0903 -177.3946
ENERGY: 900000 1.6126 0.7910 0.0000 0.0000 -10614.7049 1333.0768 0.0000 0.0000 1769.6501 -7509.5744 302.1301 -9279.2245 -7495.4295 300.3510 -1075.6185 -975.2133 30888.8911 -313.3807 -252.8874
ENERGY: 1200000 0.8295 1.0515 0.0000 0.0000 -10635.5967 1416.1545 0.0000 0.0000 1744.3042 -7473.2569 297.8028 -9217.5612 -7490.6346 300.9323 -65.3065 15.8414 30540.1551 -299.8036 -228.1944
ENERGY: 1500000 1.5238 0.6372 0.0000 0.0000 -10776.5124 1507.6958 0.0000 0.0000 1750.1445 -7516.5112 298.7999 -9266.6557 -7493.9275 299.9971 426.2145 511.5709 30302.3130 -205.7651 -133.4562
TCL: Running FEP window   2: Lambda1 0.95   Lambda2 0.8999999999999999 [dLambda -0.050000000000000044]
TCL: Setting parameter firsttimestep to 0
TCL: Setting parameter alchLambda to 0.95
Info: NONBONDED TABLE R-SQUARED SPACING: 0.0625
Info: NONBONDED TABLE SIZE: 705 POINTS
TCL: Setting parameter alchLambda2 to 0.8999999999999999
Info: NONBONDED TABLE R-SQUARED SPACING: 0.0625
Info: NONBONDED TABLE SIZE: 705 POINTS
TCL: Running for 1500000 steps
ETITLE: TS BOND ANGLE DIHED IMPRP ELECT VDW BOUNDARY MISC KINETIC TOTAL TEMP POTENTIAL TOTALAVG TEMPAVG PRESSURE GPRESSURE VOLUME PRESSAVG GPRESSAVG
ENERGY: 0 1.5238 0.6372 0.0000 0.0000 -10776.4063 1507.1512 0.0000 0.0000 1749.2373 -7517.8569 298.6450 -9267.0941 -7517.8569 298.6450 408.3759 495.8144 30302.3130 408.3759 495.8144
ENERGY: 300000 0.7408 1.2241 0.0000 0.0000 -10716.6710 1497.3281 0.0000 0.0000 1737.6229 -7479.7551 296.6621 -9217.3781 -7480.5187 299.3940 742.2145 808.4102 30186.5327 183.0550 258.5683
ENERGY: 600000 2.4560 0.7924 0.0000 0.0000 -10688.2625 1447.4764 0.0000 0.0000 1773.5686 -7463.9690 302.7991 -9237.5377 -7482.5616 301.4527 245.8107 316.7852 30190.2784 109.9893 185.4063
ENERGY: 900000 3.8713 2.1627 0.0000 0.0000 -10576.9155 1392.2633 0.0000 0.0000 1748.4562 -7430.1620 298.5117 -9178.6182 -7489.9766 299.6967 -315.2322 -302.5946 30739.6703 47.9047 102.1153
ENERGY: 1200000 1.3226 3.4747 0.0000 0.0000 -10516.1623 1332.8470 0.0000 0.0000 1745.2937 -7433.2243 297.9718 -9178.5180 -7497.0898 298.8738 -801.8288 -730.4273 30586.2783 -91.1930 -32.3467
ENERGY: 1500000 1.5247 0.5311 0.0000 0.0000 -10745.3561 1464.0590 0.0000 0.0000 1738.2614 -7540.9799 296.7711 -9279.2413 -7498.4269 299.8205 -4.5418 8.1220 30590.5987 -19.3292 29.2603
TCL: Running FEP window   3: Lambda1 0.8999999999999999 Lambda2 0.8499999999999999 [dLambda -0.050000000000000044]
TCL: Setting parameter firsttimestep to 0
TCL: Setting parameter alchLambda to 0.8999999999999999
Info: NONBONDED TABLE R-SQUARED SPACING: 0.0625
Info: NONBONDED TABLE SIZE: 705 POINTS
TCL: Setting parameter alchLambda2 to 0.8499999999999999
Info: NONBONDED TABLE R-SQUARED SPACING: 0.0625
Info: NONBONDED TABLE SIZE: 705 POINTS
TCL: Running for 1500000 steps
ETITLE: TS BOND ANGLE DIHED IMPRP ELECT VDW BOUNDARY MISC KINETIC TOTAL TEMP POTENTIAL TOTALAVG TEMPAVG PRESSURE GPRESSURE VOLUME PRESSAVG GPRESSAVG
ENERGY: 0 1.5247 0.5311 0.0000 0.0000 -10745.3482 1464.5183 0.0000 0.0000 1737.3395 -7541.4346 296.6137 -9278.7742 -7541.4346 296.6137 -74.3079 8.2065 30590.5987 -74.3079 8.2065
ENERGY: 300000 0.7699 0.6632 0.0000 0.0000 -10902.2212 1584.3343 0.0000 0.0000 1730.6999 -7585.7539 295.4802 -9316.4538 -7570.8002 296.3653 1030.9301 1048.1841 30045.3494 423.4378 483.2763
ENERGY: 600000 2.5262 0.8401 0.0000 0.0000 -10831.1817 1449.8351 0.0000 0.0000 1744.4026 -7633.5777 297.8196 -9377.9803 -7569.6333 296.2865 -32.3072 9.2343 30003.6245 83.8042 150.8888
ENERGY: 900000 1.0704 1.7250 0.0000 0.0000 -10633.6121 1369.8847 0.0000 0.0000 1723.8084 -7537.1236 294.3036 -9260.9320 -7554.8355 297.0764 -476.1588 -455.5716 30579.1671 28.3068 88.3558
ENERGY: 1200000 0.8792 0.8748 0.0000 0.0000 -10672.6256 1403.3934 0.0000 0.0000 1755.9518 -7511.5264 299.7914 -9267.4782 -7550.9206 297.7058 -292.5555 -209.5974 30427.5150 -62.7701 -4.9289
ENERGY: 1500000 0.4791 2.7852 0.0000 0.0000 -10510.5882 1311.5209 0.0000 0.0000 1742.6744 -7453.1286 297.5246 -9195.8030 -7537.7759 297.5775 -877.8554 -806.8445 30520.1411 -105.7170 -49.3183
TCL: Running FEP window   4: Lambda1 0.8499999999999999 Lambda2 0.7999999999999998 [dLambda -0.050000000000000044]
TCL: Setting parameter firsttimestep to 0
TCL: Setting parameter alchLambda to 0.8499999999999999
Info: NONBONDED TABLE R-SQUARED SPACING: 0.0625
Info: NONBONDED TABLE SIZE: 705 POINTS
TCL: Setting parameter alchLambda2 to 0.7999999999999998
Info: NONBONDED TABLE R-SQUARED SPACING: 0.0625
Info: NONBONDED TABLE SIZE: 705 POINTS
TCL: Running for 1500000 steps
ETITLE: TS BOND ANGLE DIHED IMPRP ELECT VDW BOUNDARY MISC KINETIC TOTAL TEMP POTENTIAL TOTALAVG TEMPAVG PRESSURE GPRESSURE VOLUME PRESSAVG GPRESSAVG
ENERGY: 0 0.4791 2.7852 0.0000 0.0000 -10510.5337 1311.7094 0.0000 0.0000 1741.7957 -7453.7642 297.3745 -9195.5600 -7453.7642 297.3745 -896.8138 -810.1369 30520.1411 -896.8138 -810.1369
ENERGY: 300000 2.4072 1.0258 0.0000 0.0000 -10539.6970 1307.3713 0.0000 0.0000 1740.8648 -7488.0279 297.2156 -9228.8927 -7491.0122 299.8041 -927.8445 -882.0535 30300.2273 -402.2660 -333.1911
ENERGY: 600000 2.2491 0.8343 0.0000 0.0000 -10657.6543 1429.0574 0.0000 0.0000 1752.7306 -7472.7830 299.2414 -9225.5135 -7501.3772 298.2748 106.6226 118.8902 30356.7115 -403.6896 -360.7025
ENERGY: 900000 0.9146 0.4730 0.0000 0.0000 -10816.0848 1491.8975 0.0000 0.0000 1735.4968 -7587.3029 296.2991 -9322.7998 -7512.4224 297.4197 64.4268 91.4968 30540.8156 -289.0461 -237.3698
ENERGY: 1200000 1.4805 2.1248 0.0000 0.0000 -10739.2478 1494.6139 0.0000 0.0000 1713.9098 -7527.1187 292.6136 -9241.0285 -7514.3297 296.9948 388.3110 532.5246 30355.9893 -101.9528 -40.2214
ENERGY: 1500000 3.4938 2.1937 0.0000 0.0000 -10515.8988 1355.2127 0.0000 0.0000 1730.3478 -7424.6507 295.4201 -9154.9985 -7508.6950 296.9012 -634.4297 -582.9858 31088.6987 -86.4541 -28.0020
TCL: Running FEP window   5: Lambda1 0.7999999999999998 Lambda2 0.7499999999999998 [dLambda -0.050000000000000044]
TCL: Setting parameter firsttimestep to 0
TCL: Setting parameter alchLambda to 0.7999999999999998
Info: NONBONDED TABLE R-SQUARED SPACING: 0.0625
Info: NONBONDED TABLE SIZE: 705 POINTS
TCL: Setting parameter alchLambda2 to 0.7499999999999998
Info: NONBONDED TABLE R-SQUARED SPACING: 0.0625
Info: NONBONDED TABLE SIZE: 705 POINTS
TCL: Running for 1500000 steps
ETITLE: TS BOND ANGLE DIHED IMPRP ELECT VDW BOUNDARY MISC KINETIC TOTAL TEMP POTENTIAL TOTALAVG TEMPAVG PRESSURE GPRESSURE VOLUME PRESSAVG GPRESSAVG
ENERGY: 0 3.4939 2.1937 0.0000 0.0000 -10515.8782 1355.3690 0.0000 0.0000 1729.4649 -7425.3568 295.2693 -9154.8216 -7425.3568 295.2693 -684.1099 -588.5472 31088.6987 -684.1099 -588.5472
ENERGY: 300000 1.4015 2.4307 0.0000 0.0000 -10674.4282 1451.7564 0.0000 0.0000 1759.2524 -7459.5872 300.3549 -9218.8396 -7449.3882 302.2180 -89.3179 48.8602 30714.4079 -602.4315 -496.5308
ENERGY: 600000 3.3194 1.4656 0.0000 0.0000 -10664.2042 1430.1951 0.0000 0.0000 1804.2906 -7424.9335 308.0442 -9229.2240 -7456.7314 303.0148 195.7703 272.6152 30073.3521 -268.4933 -185.5830
ENERGY: 900000 0.5910 2.2916 0.0000 0.0000 -10764.2756 1441.1429 0.0000 0.0000 1743.6231 -7576.6270 297.6865 -9320.2501 -7463.7954 302.9452 -28.3721 2.7235 30405.5090 -138.3622 -66.9636
ENERGY: 1200000 1.9858 1.1916 0.0000 0.0000 -10747.0591 1395.2351 0.0000 0.0000 1762.0154 -7586.6312 300.8266 -9348.6466 -7478.4968 301.6652 -237.6042 -204.2394 29725.6780 -191.8775 -124.6826
ENERGY: 1500000 1.3643 0.5674 0.0000 0.0000 -10766.5524 1525.8029 0.0000 0.0000 1746.0297 -7492.7881 298.0974 -9238.8178 -7476.7016 301.4370 809.1325 872.2690 30233.9145 -67.4425 -4.2765
TCL: Running FEP window   6: Lambda1 0.7499999999999998 Lambda2 0.6999999999999997 [dLambda -0.050000000000000044]
TCL: Setting parameter firsttimestep to 0
TCL: Setting parameter alchLambda to 0.7499999999999998
Info: NONBONDED TABLE R-SQUARED SPACING: 0.0625
Info: NONBONDED TABLE SIZE: 705 POINTS
TCL: Setting parameter alchLambda2 to 0.6999999999999997
Info: NONBONDED TABLE R-SQUARED SPACING: 0.0625
Info: NONBONDED TABLE SIZE: 705 POINTS
TCL: Running for 1500000 steps
ETITLE: TS BOND ANGLE DIHED IMPRP ELECT VDW BOUNDARY MISC KINETIC TOTAL TEMP POTENTIAL TOTALAVG TEMPAVG PRESSURE GPRESSURE VOLUME PRESSAVG GPRESSAVG
ENERGY: 0 1.3643 0.5674 0.0000 0.0000 -10766.7187 1525.8645 0.0000 0.0000 1745.1720 -7493.7504 297.9510 -9238.9224 -7493.7504 297.9510 781.6316 867.9096 30233.9145 781.6316 867.9096
ENERGY: 300000 1.7585 2.9318 0.0000 0.0000 -10746.0517 1481.3610 0.0000 0.0000 1730.5896 -7529.4108 295.4613 -9260.0004 -7495.1691 297.8130 173.8305 186.5171 30607.4957 121.1373 161.3068
ENERGY: 600000 1.0060 1.0082 0.0000 0.0000 -10593.8051 1373.7024 0.0000 0.0000 1757.8984 -7460.1901 300.1237 -9218.0885 -7505.5379 299.7429 -376.4861 -310.9145 30476.8598 129.4434 192.5269
ENERGY: 900000 0.5589 2.9247 0.0000 0.0000 -10624.8346 1401.5853 0.0000 0.0000 1791.7246 -7428.0411 305.8988 -9219.7657 -7489.5633 301.8072 -216.6285 -161.5521 30718.1924 -62.0181 2.3282
ENERGY: 1200000 1.1503 3.6609 0.0000 0.0000 -10704.7202 1389.7722 0.0000 0.0000 1725.9925 -7584.1443 294.6765 -9310.1368 -7507.2447 300.0693 -432.3004 -423.0871 30511.9008 -131.1641 -75.1273
ENERGY: 1500000 0.8541 2.4048 0.0000 0.0000 -10624.1214 1347.1142 0.0000 0.0000 1743.5768 -7530.1716 297.6786 -9273.7483 -7504.0410 300.2526 -719.8805 -647.4617 30351.8708 -176.0138 -116.6821
TCL: Running FEP window   7: Lambda1 0.6999999999999997 Lambda2 0.6499999999999997 [dLambda -0.050000000000000044]
TCL: Setting parameter firsttimestep to 0
TCL: Setting parameter alchLambda to 0.6999999999999997
Info: NONBONDED TABLE R-SQUARED SPACING: 0.0625
Info: NONBONDED TABLE SIZE: 705 POINTS
TCL: Setting parameter alchLambda2 to 0.6499999999999997
Info: NONBONDED TABLE R-SQUARED SPACING: 0.0625
Info: NONBONDED TABLE SIZE: 705 POINTS
TCL: Running for 1500000 steps
ETITLE: TS BOND ANGLE DIHED IMPRP ELECT VDW BOUNDARY MISC KINETIC TOTAL TEMP POTENTIAL TOTALAVG TEMPAVG PRESSURE GPRESSURE VOLUME PRESSAVG GPRESSAVG
ENERGY: 0 0.8541 2.4048 0.0000 0.0000 -10623.9774 1347.2948 0.0000 0.0000 1742.7459 -7530.6779 297.5368 -9273.4238 -7530.6779 297.5368 -736.5436 -649.8634 30351.8708 -736.5436 -649.8634
ENERGY: 300000 0.6649 1.9841 0.0000 0.0000 -10903.9700 1563.6485 0.0000 0.0000 1784.8359 -7552.8366 304.7227 -9337.6725 -7510.0355 299.3614 793.0261 847.6735 30246.1258 196.0580 259.7781
ENERGY: 600000 3.1716 2.0474 0.0000 0.0000 -10721.9858 1458.0037 0.0000 0.0000 1706.0271 -7552.7360 291.2678 -9258.7631 -7526.1225 298.0320 287.0260 362.3867 30187.0581 103.0093 167.9206
ENERGY: 900000 1.6137 2.6261 0.0000 0.0000 -10806.1640 1493.7033 0.0000 0.0000 1787.4443 -7520.7766 305.1681 -9308.2209 -7519.2772 298.8253 417.8214 523.3186 30207.8435 102.6462 180.2218
ENERGY: 1200000 0.9896 1.3763 0.0000 0.0000 -10719.8687 1377.2075 0.0000 0.0000 1728.5137 -7611.7816 295.1069 -9340.2953 -7522.0113 298.8309 -871.4656 -743.1472 30451.1911 57.2307 138.1747
ENERGY: 1500000 0.6824 1.2303 0.0000 0.0000 -10677.6579 1432.3265 0.0000 0.0000 1829.9633 -7413.4555 312.4273 -9243.4188 -7510.1134 300.1847 -106.7455 -21.8417 30492.2144 66.0902 148.5609
TCL: Running FEP window   8: Lambda1 0.6499999999999997 Lambda2 0.5999999999999996 [dLambda -0.050000000000000044]
TCL: Setting parameter firsttimestep to 0
TCL: Setting parameter alchLambda to 0.6499999999999997
Info: NONBONDED TABLE R-SQUARED SPACING: 0.0625
Info: NONBONDED TABLE SIZE: 705 POINTS
TCL: Setting parameter alchLambda2 to 0.5999999999999996
Info: NONBONDED TABLE R-SQUARED SPACING: 0.0625
Info: NONBONDED TABLE SIZE: 705 POINTS
TCL: Running for 1500000 steps
ETITLE: TS BOND ANGLE DIHED IMPRP ELECT VDW BOUNDARY MISC KINETIC TOTAL TEMP POTENTIAL TOTALAVG TEMPAVG PRESSURE GPRESSURE VOLUME PRESSAVG GPRESSAVG
ENERGY: 0 0.6824 1.2303 0.0000 0.0000 -10677.5508 1432.6296 0.0000 0.0000 1829.1097 -7413.8988 312.2816 -9243.0086 -7413.8988 312.2816 -103.6602 -21.0080 30492.2144 -103.6602 -21.0080
ENERGY: 300000 2.0726 1.5291 0.0000 0.0000 -10912.0508 1524.5794 0.0000 0.0000 1779.0789 -7604.7908 303.7398 -9383.8696 -7480.6683 304.6801 210.6439 287.1313 30247.8162 93.8598 165.0104
ENERGY: 600000 0.5254 2.0542 0.0000 0.0000 -10786.1819 1442.8606 0.0000 0.0000 1779.2675 -7561.4742 303.7721 -9340.7417 -7524.9542 302.2975 -317.0233 -218.5917 30444.2175 124.0689 187.7183
ENERGY: 900000 2.0522 1.2983 0.0000 0.0000 -10661.1624 1438.8714 0.0000 0.0000 1799.0468 -7419.8938 307.1490 -9218.9406 -7516.2969 301.9283 289.9272 387.6417 30411.3090 28.8476 97.3387
ENERGY: 1200000 0.5580 2.3625 0.0000 0.0000 -10720.5694 1425.3543 0.0000 0.0000 1795.1224 -7497.1722 306.4790 -9292.2946 -7505.3692 302.8884 -141.9743 -70.0149 30081.1917 40.9880 103.2085
ENERGY: 1500000 0.4689 1.9995 0.0000 0.0000 -10638.5980 1393.7014 0.0000 0.0000 1776.2588 -7466.1694 303.2584 -9242.4282 -7504.6138 302.4429 -464.7745 -451.3555 30917.3535 -49.1594 7.5998
TCL: Running FEP window   9: Lambda1 0.5999999999999996 Lambda2 0.5499999999999996 [dLambda -0.050000000000000044]
TCL: Setting parameter firsttimestep to 0
TCL: Setting parameter alchLambda to 0.5999999999999996
Info: NONBONDED TABLE R-SQUARED SPACING: 0.0625
Info: NONBONDED TABLE SIZE: 705 POINTS
TCL: Setting parameter alchLambda2 to 0.5499999999999996
Info: NONBONDED TABLE R-SQUARED SPACING: 0.0625
Info: NONBONDED TABLE SIZE: 705 POINTS
TCL: Running for 1500000 steps
ETITLE: TS BOND ANGLE DIHED IMPRP ELECT VDW BOUNDARY MISC KINETIC TOTAL TEMP POTENTIAL TOTALAVG TEMPAVG PRESSURE GPRESSURE VOLUME PRESSAVG GPRESSAVG
ENERGY: 0 0.4689 1.9995 0.0000 0.0000 -10638.6171 1392.1861 0.0000 0.0000 1775.4001 -7468.5624 303.1118 -9243.9626 -7468.5624 303.1118 -551.4168 -471.7461 30917.3535 -551.4168 -471.7461
ENERGY: 300000 1.0683 1.0801 0.0000 0.0000 -10701.5167 1416.9620 0.0000 0.0000 1779.6380 -7502.7684 303.8353 -9282.4063 -7503.6879 299.6293 -216.1970 -80.1854 30203.4881 -451.2385 -372.0331
ENERGY: 600000 1.0776 0.7073 0.0000 0.0000 -10630.4926 1352.8240 0.0000 0.0000 1697.6623 -7578.2213 289.8397 -9275.8836 -7520.6229 297.1424 -851.3185 -825.7427 30438.1930 -332.1816 -254.7101
ENERGY: 900000 0.3568 0.4098 0.0000 0.0000 -10848.6389 1551.9568 0.0000 0.0000 1765.8117 -7530.1039 301.4748 -9295.9156 -7514.2258 298.1988 849.8510 864.8233 30310.3070 -188.4363 -124.0528
ENERGY: 1200000 2.8682 3.5125 0.0000 0.0000 -10662.5426 1375.4870 0.0000 0.0000 1775.7817 -7504.8932 303.1769 -9280.6749 -7505.6909 299.3622 -422.6181 -370.5629 30041.8084 -221.3248 -158.3229
ENERGY: 1500000 1.5390 3.0795 0.0000 0.0000 -10682.3940 1429.1547 0.0000 0.0000 1718.6058 -7530.0150 293.4154 -9248.6207 -7505.9182 298.7828 -225.7022 -199.2948 30742.8178 -189.1288 -129.6036
TCL: Running FEP window  10: Lambda1 0.5499999999999996 Lambda2 0.4999999999999996 [dLambda -0.04999999999999999]
TCL: Setting parameter firsttimestep to 0
TCL: Setting parameter alchLambda to 0.5499999999999996
Info: NONBONDED TABLE R-SQUARED SPACING: 0.0625
Info: NONBONDED TABLE SIZE: 705 POINTS
TCL: Setting parameter alchLambda2 to 0.4999999999999996
Info: NONBONDED TABLE R-SQUARED SPACING: 0.0625
Info: NONBONDED TABLE SIZE: 705 POINTS
TCL: Running for 1500000 steps
ETITLE: TS BOND ANGLE DIHED IMPRP ELECT VDW BOUNDARY MISC KINETIC TOTAL TEMP POTENTIAL TOTALAVG TEMPAVG PRESSURE GPRESSURE VOLUME PRESSAVG GPRESSAVG
ENERGY: 0 1.5390 3.0795 0.0000 0.0000 -10682.3844 1429.3743 0.0000 0.0000 1717.7477 -7530.6439 293.2689 -9248.3916 -7530.6439 293.2689 -285.5560 -201.6147 30742.8178 -285.5560 -201.6147
ENERGY: 300000 0.9486 0.5109 0.0000 0.0000 -10667.2919 1412.4814 0.0000 0.0000 1731.1903 -7522.1607 295.5639 -9253.3509 -7535.8060 296.4952 -446.9680 -389.3697 30782.5744 -49.0637 33.2277
ENERGY: 600000 0.6025 2.3989 0.0000 0.0000 -10762.1798 1490.6846 0.0000 0.0000 1732.6312 -7535.8625 295.8099 -9268.4938 -7527.1859 297.6783 306.8276 370.6301 30273.5626 53.7268 109.2298
ENERGY: 900000 0.7578 0.8957 0.0000 0.0000 -10706.4667 1476.8646 0.0000 0.0000 1751.5813 -7476.3672 299.0452 -9227.9485 -7506.5330 299.8982 71.4014 133.1234 30610.5900 131.4786 186.3708
ENERGY: 1200000 1.8188 1.1259 0.0000 0.0000 -10598.7812 1394.7187 0.0000 0.0000 1733.9879 -7467.1300 296.0415 -9201.1179 -7501.9510 299.0343 -459.4643 -346.2317 30937.4367 0.6821 63.0866
ENERGY: 1500000 1.5962 1.5058 0.0000 0.0000 -10868.8906 1513.1184 0.0000 0.0000 1713.6849 -7638.9854 292.5752 -9352.6703 -7508.8185 298.9089 305.4743 359.3130 30226.6605 -12.2092 47.4045
TCL: Running FEP window  11: Lambda1 0.4999999999999996 Lambda2 0.4499999999999996 [dLambda -0.04999999999999999]
TCL: Setting parameter firsttimestep to 0
TCL: Setting parameter alchLambda to 0.4999999999999996
Info: NONBONDED TABLE R-SQUARED SPACING: 0.0625
Info: NONBONDED TABLE SIZE: 705 POINTS
TCL: Setting parameter alchLambda2 to 0.4499999999999996
Info: NONBONDED TABLE R-SQUARED SPACING: 0.0625
Info: NONBONDED TABLE SIZE: 705 POINTS
TCL: Running for 1500000 steps
ETITLE: TS BOND ANGLE DIHED IMPRP ELECT VDW BOUNDARY MISC KINETIC TOTAL TEMP POTENTIAL TOTALAVG TEMPAVG PRESSURE GPRESSURE VOLUME PRESSAVG GPRESSAVG
ENERGY: 0 1.5962 1.5058 0.0000 0.0000 -10868.8913 1513.3164 0.0000 0.0000 1712.8182 -7639.6548 292.4273 -9352.4730 -7639.6548 292.4273 281.7712 356.8249 30226.6605 281.7712 356.8249
ENERGY: 300000 1.4091 0.6707 0.0000 0.0000 -10641.3025 1362.6549 0.0000 0.0000 1722.8456 -7553.7222 294.1392 -9276.5678 -7537.9133 297.1436 -628.2529 -594.0602 30095.2957 -639.3913 -582.6732
ENERGY: 600000 0.8154 1.2203 0.0000 0.0000 -10525.6359 1313.6595 0.0000 0.0000 1732.1313 -7477.8094 295.7245 -9209.9407 -7507.4483 299.7173 -1011.7807 -995.1038 30674.9368 -644.6215 -600.8672
ENERGY: 900000 0.5737 0.7550 0.0000 0.0000 -10735.0467 1429.4480 0.0000 0.0000 1780.9319 -7523.3382 304.0562 -9304.2701 -7502.8321 301.4020 -94.2208 -27.7595 30204.4519 -467.0009 -409.0751
ENERGY: 1200000 0.6932 0.9063 0.0000 0.0000 -10670.4980 1391.3706 0.0000 0.0000 1735.0343 -7542.4935 296.2202 -9277.5278 -7506.0731 300.6869 -709.0877 -608.3356 30613.6350 -376.5385 -311.9551
ENERGY: 1500000 0.0918 0.7448 0.0000 0.0000 -10747.0126 1453.7823 0.0000 0.0000 1763.5038 -7528.8899 301.0807 -9292.3937 -7505.0562 300.4335 -364.0567 -203.0100 30704.3406 -305.8839 -229.0684
TCL: Running FEP window  12: Lambda1 0.4499999999999996 Lambda2 0.39999999999999963 [dLambda -0.04999999999999999]
TCL: Setting parameter firsttimestep to 0
TCL: Setting parameter alchLambda to 0.4499999999999996
Info: NONBONDED TABLE R-SQUARED SPACING: 0.0625
Info: NONBONDED TABLE SIZE: 705 POINTS
TCL: Setting parameter alchLambda2 to 0.39999999999999963
Info: NONBONDED TABLE R-SQUARED SPACING: 0.0625
Info: NONBONDED TABLE SIZE: 705 POINTS
TCL: Running for 1500000 steps
ETITLE: TS BOND ANGLE DIHED IMPRP ELECT VDW BOUNDARY MISC KINETIC TOTAL TEMP POTENTIAL TOTALAVG TEMPAVG PRESSURE GPRESSURE VOLUME PRESSAVG GPRESSAVG
ENERGY: 0 0.0918 0.7448 0.0000 0.0000 -10747.0121 1454.1020 0.0000 0.0000 1762.6851 -7529.3883 300.9410 -9292.0734 -7529.3883 300.9410 -297.2287 -204.0080 30704.3406 -297.2287 -204.0080
ENERGY: 300000 0.5528 1.3246 0.0000 0.0000 -10825.8977 1514.0196 0.0000 0.0000 1726.0187 -7583.9819 294.6810 -9310.0007 -7504.7735 298.9597 409.4454 430.8050 30402.7831 -38.5486 12.8410
ENERGY: 600000 2.1645 0.5845 0.0000 0.0000 -10788.7518 1514.3564 0.0000 0.0000 1744.8975 -7526.7490 297.9041 -9271.6464 -7495.3512 299.7333 634.5601 675.8686 30310.6101 82.0152 124.5701
ENERGY: 900000 0.1894 1.6678 0.0000 0.0000 -10810.9439 1486.8652 0.0000 0.0000 1812.5478 -7509.6738 309.4540 -9322.2215 -7500.2250 300.6460 158.3659 187.4162 30318.7705 133.5150 191.4146
ENERGY: 1200000 0.9277 1.9792 0.0000 0.0000 -10522.6749 1318.4602 0.0000 0.0000 1721.3638 -7479.9440 293.8862 -9201.3078 -7497.8697 299.5215 -1088.4075 -1014.9869 30914.8390 1.9697 61.4157
ENERGY: 1500000 1.5129 0.8542 0.0000 0.0000 -10858.9430 1520.1475 0.0000 0.0000 1705.7737 -7630.6547 291.2245 -9336.4284 -7512.5910 299.4141 282.2630 349.6552 30459.5501 74.1232 130.4132
TCL: Running FEP window  13: Lambda1 0.39999999999999963 Lambda2 0.34999999999999964 [dLambda -0.04999999999999999]
TCL: Setting parameter firsttimestep to 0
TCL: Setting parameter alchLambda to 0.39999999999999963
Info: NONBONDED TABLE R-SQUARED SPACING: 0.0625
Info: NONBONDED TABLE SIZE: 705 POINTS
TCL: Setting parameter alchLambda2 to 0.34999999999999964
Info: NONBONDED TABLE R-SQUARED SPACING: 0.0625
Info: NONBONDED TABLE SIZE: 705 POINTS
TCL: Running for 1500000 steps
ETITLE: TS BOND ANGLE DIHED IMPRP ELECT VDW BOUNDARY MISC KINETIC TOTAL TEMP POTENTIAL TOTALAVG TEMPAVG PRESSURE GPRESSURE VOLUME PRESSAVG GPRESSAVG
ENERGY: 0 1.5129 0.8542 0.0000 0.0000 -10858.9435 1519.7374 0.0000 0.0000 1704.8961 -7631.9429 291.0747 -9336.8390 -7631.9429 291.0747 261.0801 342.8799 30459.5501 261.0801 342.8799
ENERGY: 300000 1.4794 0.6781 0.0000 0.0000 -10670.5965 1451.3991 0.0000 0.0000 1719.4613 -7497.5786 293.5614 -9217.0399 -7519.8210 295.1010 -80.7736 -9.5144 30674.9825 -224.1823 -155.3006
ENERGY: 600000 0.5081 2.5132 0.0000 0.0000 -10696.4586 1472.0962 0.0000 0.0000 1795.8188 -7425.5224 306.5978 -9221.3412 -7492.4906 300.6018 47.6938 155.5095 30577.2863 -197.2014 -123.2169
ENERGY: 900000 3.4762 3.0574 0.0000 0.0000 -10665.3045 1426.3821 0.0000 0.0000 1708.2192 -7524.1697 291.6421 -9232.3889 -7482.8765 299.4898 -198.9721 -130.6256 30500.3651 -154.6186 -82.9786
ENERGY: 1200000 1.6041 1.9407 0.0000 0.0000 -10745.4441 1441.4763 0.0000 0.0000 1771.8093 -7528.6138 302.4987 -9300.4230 -7488.7455 299.6963 -38.9626 42.5427 30053.6002 -175.6496 -100.8304
ENERGY: 1500000 0.1783 1.7296 0.0000 0.0000 -10661.3840 1396.3856 0.0000 0.0000 1759.0737 -7504.0168 300.3244 -9263.0905 -7501.3212 299.7854 -271.2961 -249.3695 30103.3625 -189.8968 -115.4002
TCL: Running FEP window  14: Lambda1 0.34999999999999964 Lambda2 0.29999999999999966 [dLambda -0.04999999999999999]
TCL: Setting parameter firsttimestep to 0
TCL: Setting parameter alchLambda to 0.34999999999999964
Info: NONBONDED TABLE R-SQUARED SPACING: 0.0625
Info: NONBONDED TABLE SIZE: 705 POINTS
TCL: Setting parameter alchLambda2 to 0.29999999999999966
Info: NONBONDED TABLE R-SQUARED SPACING: 0.0625
Info: NONBONDED TABLE SIZE: 705 POINTS
TCL: Running for 1500000 steps
ETITLE: TS BOND ANGLE DIHED IMPRP ELECT VDW BOUNDARY MISC KINETIC TOTAL TEMP POTENTIAL TOTALAVG TEMPAVG PRESSURE GPRESSURE VOLUME PRESSAVG GPRESSAVG
ENERGY: 0 0.1783 1.7296 0.0000 0.0000 -10661.3854 1396.5892 0.0000 0.0000 1758.2282 -7504.6601 300.1800 -9262.8883 -7504.6601 300.1800 -324.2879 -250.3630 30103.3625 -324.2879 -250.3630
ENERGY: 300000 1.1523 1.3747 0.0000 0.0000 -10656.5885 1478.3259 0.0000 0.0000 1744.2179 -7431.5177 297.7881 -9175.7356 -7480.8651 300.9260 389.0617 454.2907 30238.0169 -194.0504 -153.0277
ENERGY: 600000 1.7089 1.0121 0.0000 0.0000 -10721.8796 1394.1329 0.0000 0.0000 1773.1852 -7551.8405 302.7336 -9325.0257 -7495.0119 302.8276 -447.1216 -406.8704 30130.8858 -247.8429 -203.1502
ENERGY: 900000 0.5817 2.6389 0.0000 0.0000 -10824.6222 1472.1551 0.0000 0.0000 1754.5788 -7594.6677 299.5570 -9349.2465 -7509.3869 301.6814 -315.9516 -250.9299 30526.5649 -221.5086 -177.3568
ENERGY: 1200000 1.3016 1.3032 0.0000 0.0000 -10804.8692 1511.8764 0.0000 0.0000 1728.6917 -7561.6963 295.1373 -9290.3881 -7516.7918 300.6979 387.1520 508.0143 30176.8794 -222.5512 -158.9106
ENERGY: 1500000 0.6870 3.2004 0.0000 0.0000 -10803.9987 1493.3701 0.0000 0.0000 1770.8257 -7535.9156 302.3308 -9306.7413 -7519.4489 300.7503 512.0228 499.8732 29840.4103 -114.8030 -62.4252
TCL: Running FEP window  15: Lambda1 0.29999999999999966 Lambda2 0.24999999999999967 [dLambda -0.04999999999999999]
TCL: Setting parameter firsttimestep to 0
TCL: Setting parameter alchLambda to 0.29999999999999966
Info: NONBONDED TABLE R-SQUARED SPACING: 0.0625
Info: NONBONDED TABLE SIZE: 705 POINTS
TCL: Setting parameter alchLambda2 to 0.24999999999999967
Info: NONBONDED TABLE R-SQUARED SPACING: 0.0625
Info: NONBONDED TABLE SIZE: 705 POINTS
TCL: Running for 1500000 steps
ETITLE: TS BOND ANGLE DIHED IMPRP ELECT VDW BOUNDARY MISC KINETIC TOTAL TEMP POTENTIAL TOTALAVG TEMPAVG PRESSURE GPRESSURE VOLUME PRESSAVG GPRESSAVG
ENERGY: 0 0.6870 3.2004 0.0000 0.0000 -10803.9980 1493.1213 0.0000 0.0000 1769.9531 -7537.0362 302.1818 -9306.9893 -7537.0362 302.1818 411.7292 493.7599 29840.4103 411.7292 493.7599
ENERGY: 300000 1.1355 2.4316 0.0000 0.0000 -10633.5328 1415.2589 0.0000 0.0000 1754.8072 -7459.8995 299.5960 -9214.7067 -7519.0394 298.2898 3.5449 59.7726 30131.7200 32.5011 85.1730
ENERGY: 600000 0.2734 1.5343 0.0000 0.0000 -10713.6952 1454.3179 0.0000 0.0000 1787.3692 -7470.2005 305.1552 -9257.5697 -7513.0023 298.8956 204.0662 258.1442 30148.3664 7.9617 70.0212
ENERGY: 900000 1.5721 2.7325 0.0000 0.0000 -10625.0901 1420.8993 0.0000 0.0000 1721.4923 -7478.3940 293.9082 -9199.8863 -7502.2549 298.9609 290.8715 304.4464 29895.9791 -10.5823 44.3756
ENERGY: 1200000 1.4055 3.7385 0.0000 0.0000 -10661.2033 1421.5645 0.0000 0.0000 1786.7844 -7447.7105 305.0554 -9234.4949 -7503.2913 299.3198 28.5232 94.5876 30327.8649 -34.7150 26.5178
ENERGY: 1500000 2.1764 1.0769 0.0000 0.0000 -10797.4986 1458.4894 0.0000 0.0000 1808.1955 -7527.5603 308.7109 -9335.7559 -7502.0940 299.9533 -35.6592 -4.5965 30171.6029 -46.2335 14.1649
TCL: Running FEP window  16: Lambda1 0.24999999999999967 Lambda2 0.19999999999999968 [dLambda -0.04999999999999999]
TCL: Setting parameter firsttimestep to 0
TCL: Setting parameter alchLambda to 0.24999999999999967
Info: NONBONDED TABLE R-SQUARED SPACING: 0.0625
Info: NONBONDED TABLE SIZE: 705 POINTS
TCL: Setting parameter alchLambda2 to 0.19999999999999968
Info: NONBONDED TABLE R-SQUARED SPACING: 0.0625
Info: NONBONDED TABLE SIZE: 705 POINTS
TCL: Running for 1500000 steps
ETITLE: TS BOND ANGLE DIHED IMPRP ELECT VDW BOUNDARY MISC KINETIC TOTAL TEMP POTENTIAL TOTALAVG TEMPAVG PRESSURE GPRESSURE VOLUME PRESSAVG GPRESSAVG
ENERGY: 0 2.1764 1.0769 0.0000 0.0000 -10797.4982 1458.7485 0.0000 0.0000 1807.3099 -7528.1865 308.5597 -9335.4964 -7528.1865 308.5597 -94.0750 -5.5430 30171.6029 -94.0750 -5.5430
ENERGY: 300000 0.7086 0.5823 0.0000 0.0000 -10645.7650 1402.1052 0.0000 0.0000 1752.9690 -7489.3999 299.2822 -9242.3689 -7515.2628 303.0786 -25.4946 0.1894 30159.9731 139.0573 189.5314
ENERGY: 600000 1.9838 1.2612 0.0000 0.0000 -10610.0152 1402.9092 0.0000 0.0000 1772.4067 -7431.4543 302.6007 -9203.8609 -7526.3477 300.2701 -11.2728 67.8474 30103.4411 109.7547 165.4743
ENERGY: 900000 1.7082 0.5087 0.0000 0.0000 -10744.1806 1446.8235 0.0000 0.0000 1838.6807 -7456.4595 313.9156 -9295.1402 -7525.0157 300.9033 -367.6365 -278.8737 30570.3672 6.2487 63.8603
ENERGY: 1200000 0.9109 4.2193 0.0000 0.0000 -10723.8195 1486.1520 0.0000 0.0000 1774.2244 -7458.3128 302.9111 -9232.5372 -7519.9746 300.9030 63.9201 170.5756 30749.7950 23.2534 81.5277
ENERGY: 1500000 0.9235 0.5395 0.0000 0.0000 -10663.2653 1415.1059 0.0000 0.0000 1770.0306 -7476.6656 302.1951 -9246.6963 -7512.9201 300.3809 -165.1903 -97.4520 30351.0200 9.9958 67.1994
TCL: Running FEP window  17: Lambda1 0.19999999999999968 Lambda2 0.1499999999999997 [dLambda -0.04999999999999999]
TCL: Setting parameter firsttimestep to 0
TCL: Setting parameter alchLambda to 0.19999999999999968
Info: NONBONDED TABLE R-SQUARED SPACING: 0.0625
Info: NONBONDED TABLE SIZE: 705 POINTS
TCL: Setting parameter alchLambda2 to 0.1499999999999997
Info: NONBONDED TABLE R-SQUARED SPACING: 0.0625
Info: NONBONDED TABLE SIZE: 705 POINTS
TCL: Running for 1500000 steps
ETITLE: TS BOND ANGLE DIHED IMPRP ELECT VDW BOUNDARY MISC KINETIC TOTAL TEMP POTENTIAL TOTALAVG TEMPAVG PRESSURE GPRESSURE VOLUME PRESSAVG GPRESSAVG
ENERGY: 0 0.9235 0.5395 0.0000 0.0000 -10663.2653 1415.2177 0.0000 0.0000 1769.1316 -7477.4529 302.0416 -9246.5846 -7477.4529 302.0416 -190.2915 -97.6371 30351.0200 -190.2915 -97.6371
ENERGY: 300000 1.1686 2.1298 0.0000 0.0000 -10816.8548 1525.9480 0.0000 0.0000 1771.6715 -7515.9369 302.4752 -9287.6084 -7508.7143 300.5168 623.5509 614.2050 30106.7601 -85.3184 -37.9299
ENERGY: 600000 1.6869 1.0150 0.0000 0.0000 -10699.8899 1427.0257 0.0000 0.0000 1766.7188 -7503.4434 301.6296 -9270.1623 -7491.7984 299.1322 -525.9176 -477.6183 30717.4517 -151.0178 -90.7396
ENERGY: 900000 1.0093 1.6801 0.0000 0.0000 -10632.1818 1431.8818 0.0000 0.0000 1724.8925 -7472.7181 294.4887 -9197.6106 -7488.8081 298.6370 -163.8322 -103.8825 30686.5800 -196.7294 -135.1757
ENERGY: 1200000 1.6609 0.6612 0.0000 0.0000 -10741.9941 1451.4012 0.0000 0.0000 1808.0968 -7480.1740 308.6940 -9288.2708 -7486.9341 299.5854 -239.7340 -132.7330 30605.3078 -183.4025 -123.8526
ENERGY: 1500000 0.4028 0.9394 0.0000 0.0000 -10564.7260 1396.3010 0.0000 0.0000 1669.6373 -7497.4454 285.0550 -9167.0828 -7488.0527 299.3655 -297.9642 -182.8324 30394.0337 -127.5385 -64.1109
TCL: Running FEP window  18: Lambda1 0.1499999999999997 Lambda2 0.09999999999999969 [dLambda -0.05 ]
TCL: Setting parameter firsttimestep to 0
TCL: Setting parameter alchLambda to 0.1499999999999997
Info: NONBONDED TABLE R-SQUARED SPACING: 0.0625
Info: NONBONDED TABLE SIZE: 705 POINTS
TCL: Setting parameter alchLambda2 to 0.09999999999999969
Info: NONBONDED TABLE R-SQUARED SPACING: 0.0625
Info: NONBONDED TABLE SIZE: 705 POINTS
TCL: Running for 1500000 steps
ETITLE: TS BOND ANGLE DIHED IMPRP ELECT VDW BOUNDARY MISC KINETIC TOTAL TEMP POTENTIAL TOTALAVG TEMPAVG PRESSURE GPRESSURE VOLUME PRESSAVG GPRESSAVG
ENERGY: 0 0.4028 0.9394 0.0000 0.0000 -10564.7251 1396.1532 0.0000 0.0000 1668.7504 -7498.4793 284.9036 -9167.2297 -7498.4793 284.9036 -280.1109 -185.8872 30394.0337 -280.1109 -185.8872
ENERGY: 300000 0.9812 0.7070 0.0000 0.0000 -10644.6676 1426.0296 0.0000 0.0000 1774.1568 -7442.7929 302.8995 -9216.9498 -7484.4628 295.2699 -269.5929 -137.5925 30654.0146 -100.1938 -15.7008
ENERGY: 600000 2.4507 1.6465 0.0000 0.0000 -10670.0932 1463.1569 0.0000 0.0000 1744.7660 -7458.0732 297.8817 -9202.8391 -7471.9601 298.9533 254.7095 382.0543 30185.1018 -12.4723 62.1957
ENERGY: 900000 1.0220 2.3357 0.0000 0.0000 -10700.5881 1505.0354 0.0000 0.0000 1712.1757 -7480.0193 292.3176 -9192.1949 -7463.6587 300.1385 678.2347 739.1281 30231.6559 127.0003 197.3648
ENERGY: 1200000 1.7373 1.5202 0.0000 0.0000 -10707.8205 1438.0550 0.0000 0.0000 1762.9728 -7503.5351 300.9901 -9266.5079 -7467.4604 300.0109 86.3054 172.2669 30045.2612 166.0672 240.6211
ENERGY: 1500000 1.0462 1.2082 0.0000 0.0000 -10728.4579 1450.0587 0.0000 0.0000 1747.0377 -7529.1072 298.2695 -9276.1448 -7482.1316 300.2304 32.6804 60.7095 30376.7162 39.5950 111.4195
TCL: Running FEP window  19: Lambda1 0.09999999999999969 Lambda2 0.049999999999999684 [dLambda -0.05 ]
TCL: Setting parameter firsttimestep to 0
TCL: Setting parameter alchLambda to 0.09999999999999969
Info: NONBONDED TABLE R-SQUARED SPACING: 0.0625
Info: NONBONDED TABLE SIZE: 705 POINTS
TCL: Setting parameter alchLambda2 to 0.049999999999999684
Info: NONBONDED TABLE R-SQUARED SPACING: 0.0625
Info: NONBONDED TABLE SIZE: 705 POINTS
TCL: Running for 1500000 steps
ETITLE: TS BOND ANGLE DIHED IMPRP ELECT VDW BOUNDARY MISC KINETIC TOTAL TEMP POTENTIAL TOTALAVG TEMPAVG PRESSURE GPRESSURE VOLUME PRESSAVG GPRESSAVG
ENERGY: 0 1.0462 1.2082 0.0000 0.0000 -10728.4584 1450.1429 0.0000 0.0000 1746.1511 -7529.9099 298.1181 -9276.0611 -7529.9099 298.1181 -34.6420 58.8001 30376.7162 -34.6420 58.8001
ENERGY: 300000 0.7929 0.7008 0.0000 0.0000 -10889.9603 1521.0617 0.0000 0.0000 1730.2711 -7637.1339 295.4070 -9367.4049 -7531.5774 301.2609 380.1907 441.0984 29890.0226 291.3982 347.3680
ENERGY: 600000 3.9788 1.7692 0.0000 0.0000 -10697.4322 1493.6474 0.0000 0.0000 1739.5452 -7458.4916 296.9903 -9198.0368 -7513.1137 298.9275 362.9726 467.4631 30204.6308 212.4926 284.3613
ENERGY: 900000 2.0149 2.0913 0.0000 0.0000 -10763.9859 1466.4232 0.0000 0.0000 1787.5333 -7505.9233 305.1833 -9293.4565 -7528.3719 298.2780 385.7265 475.9481 29884.4287 82.1949 157.5973
ENERGY: 1200000 0.5168 3.5822 0.0000 0.0000 -10677.1580 1437.1184 0.0000 0.0000 1774.1381 -7461.8025 302.8963 -9235.9406 -7524.1924 298.6037 -106.7520 -39.4540 30492.1757 59.3116 126.2660
ENERGY: 1500000 0.8039 1.3161 0.0000 0.0000 -10805.9156 1436.4982 0.0000 0.0000 1698.6451 -7668.6524 290.0075 -9367.2974 -7524.3083 297.8956 -558.0561 -492.1231 30395.8327 -63.3653 1.0703
TCL: Running FEP window  20: Lambda1 0.049999999999999684 Lambda2 0.0    [dLambda -0.049999999999999684]
TCL: Setting parameter firsttimestep to 0
TCL: Setting parameter alchLambda to 0.049999999999999684
Info: NONBONDED TABLE R-SQUARED SPACING: 0.0625
Info: NONBONDED TABLE SIZE: 705 POINTS
TCL: Setting parameter alchLambda2 to 0.0
Info: NONBONDED TABLE R-SQUARED SPACING: 0.0625
Info: NONBONDED TABLE SIZE: 705 POINTS
TCL: Running for 1500000 steps
ETITLE: TS BOND ANGLE DIHED IMPRP ELECT VDW BOUNDARY MISC KINETIC TOTAL TEMP POTENTIAL TOTALAVG TEMPAVG PRESSURE GPRESSURE VOLUME PRESSAVG GPRESSAVG
ENERGY: 0 0.8039 1.3161 0.0000 0.0000 -10805.9153 1436.0886 0.0000 0.0000 1697.7634 -7669.9433 289.8570 -9367.7068 -7669.9433 289.8570 -584.8602 -495.4771 30395.8327 -584.8602 -495.4771
ENERGY: 300000 1.9430 6.4181 0.0000 0.0000 -10606.4139 1360.2262 0.0000 0.0000 1768.6369 -7469.1898 301.9571 -9237.8267 -7509.4375 298.5522 -500.1132 -490.4366 30222.6751 -301.6550 -249.6300
ENERGY: 600000 1.7433 0.5308 0.0000 0.0000 -10729.9846 1466.6419 0.0000 0.0000 1793.4332 -7467.6354 306.1905 -9261.0686 -7504.5129 301.2777 191.2768 285.3301 30252.9230 -204.8444 -134.2670
ENERGY: 900000 0.2141 1.8392 0.0000 0.0000 -10742.3255 1499.0157 0.0000 0.0000 1821.8594 -7419.3971 311.0437 -9241.2565 -7500.5343 301.6487 582.4744 669.8224 30247.9394 -19.4147 47.5047
ENERGY: 1200000 0.5537 1.1146 0.0000 0.0000 -10592.6770 1368.6049 0.0000 0.0000 1815.4637 -7406.9400 309.9518 -9222.4037 -7495.0190 301.1498 -651.0273 -615.6319 30823.4800 -94.5012 -24.8741
ENERGY: 1500000 0.3499 3.5579 0.0000 0.0000 -10698.9385 1421.6155 0.0000 0.0000 1747.9476 -7525.4676 298.4248 -9273.4152 -7487.9933 301.5717 -110.0208 -78.7661 30130.6853 -83.4660 -13.8566
TCL: Exiting due to exit command.
