Info: SIMULATION PARAMETERS:
Info: TIMESTEP               2
Info: NUMBER OF STEPS        0
Info: STEPS PER CYCLE        10
Info: PERIODIC CELL BASIS 1  34.986 0 0
Info: PERIODIC CELL BASIS 2  0 33.399 0
Info: PERIODIC CELL BASIS 3  0 0 37.195
Info: PERIODIC CELL CENTER   0 0 0
Info: WRAPPING WATERS AROUND PERIODIC BOUNDARIES ON OUTPUT.
Info: WRAPPING ALL CLUSTERS AROUND PERIODIC BOUNDARIES ON OUTPUT.
Info: FIRST LDB TIMESTEP     50
Info: LAST LDB TIMESTEP     -1
Info: HOM BACKGROUND SCALING 1
Info: PME BACKGROUND SCALING 1
Info: MIN ATOMS PER PATCH    40
Info: EMPTY PATCH LOAD       40 ATOMS
Info: INITIAL TEMPERATURE    300
Info: CENTER OF MASS MOVING INITIALLY? NO
Info: DIELECTRIC             1
Info: EXCLUDE                SCALED ONE-FOUR
Info: 1-4 ELECTROSTATICS SCALED BY 0.833333
Info: MODIFIED 1-4 VDW PARAMETERS WILL BE USED
Info: DCD FILENAME           mobley_3515580_equil.dcd
Info: DCD FREQUENCY          100000
Info: DCD FIRST STEP         100000
Info: DCD FILE WILL CONTAIN UNIT CELL DATA
Info: XST FILENAME           mobley_3515580_equil.xst
Info: XST FREQUENCY          100000
Info: NO VELOCITY DCD OUTPUT
Info: NO FORCE DCD OUTPUT
Info: OUTPUT FILENAME        mobley_3515580_equil
Info: BINARY OUTPUT FILES WILL BE USED
Info: RESTART FILENAME       mobley_3515580_equil.restart
Info: RESTART FREQUENCY      100000
Info: BINARY RESTART FILES WILL BE USED
Info: CUTOFF                 9
Info: PAIRLIST DISTANCE      11
Info: PAIRLIST SHRINK RATE   0.01
Info: PAIRLIST GROW RATE     0.01
Info: PAIRLIST TRIGGER       0.3
Info: PAIRLISTS PER CYCLE    2
Info: PAIRLISTS ENABLED
Info: MARGIN                 8
Info: HYDROGEN GROUP CUTOFF  2.5
Info: PATCH DIMENSION        21.5
Info: ENERGY OUTPUT STEPS    100000
Info: ENERGY EVALUATION STEPS    100000
Info: OUTPUT ENERGY PRECISION 4
Info: CROSSTERM ENERGY INCLUDED IN DIHEDRAL
Info: TIMING OUTPUT STEPS    1000000
Info: PRESSURE OUTPUT STEPS  100000
Info: LANGEVIN DYNAMICS ACTIVE
Info: LANGEVIN TEMPERATURE   30
Info: LANGEVIN USING BBK INTEGRATOR
Info: LANGEVIN DAMPING COEFFICIENT IS 1 INVERSE PS
Info: LANGEVIN DYNAMICS APPLIED TO HYDROGENS
Info: LANGEVIN PISTON PRESSURE CONTROL ACTIVE
Info:        TARGET PRESSURE IS 1.01325 BAR
Info:     OSCILLATION PERIOD IS 50 FS
Info:             DECAY TIME IS 25 FS
Info:     PISTON TEMPERATURE IS 300 K
Info:       PRESSURE CONTROL IS GROUP-BASED
Info:    INITIAL STRAIN RATE IS 0 0 0
Info:       CELL FLUCTUATION IS ISOTROPIC
Info: PARTICLE MESH EWALD (PME) ACTIVE
Info: PME TOLERANCE               1e-06
Info: PME EWALD COEFFICIENT       0.348832
Info: PME INTERPOLATION ORDER     4
Info: PME GRID DIMENSIONS         36 36 40
Info: PME MAXIMUM GRID SPACING    1
Info: FULL ELECTROSTATIC EVALUATION FREQUENCY      2
Info: USING VERLET I (r-RESPA) MTS SCHEME.
Info: C1 SPLITTING OF LONG RANGE ELECTROSTATICS
Info: PLACING ATOMS IN PATCHES BY HYDROGEN GROUPS
Info: RIGID BONDS TO HYDROGEN : ALL
Info:         ERROR TOLERANCE : 1e-08
Info:          MAX ITERATIONS : 100
Info: RIGID WATER USING SETTLE ALGORITHM
Info: RANDOM NUMBER SEED     1743230996
Info: USE HYDROGEN BONDS?    NO
Info: Using AMBER format force field!
Info: AMBER PARM FILE        mobley_3515580.prmtop
Info: COORDINATE PDB         mobley_3515580.pdb
Info: Exclusions will be read from PARM file!
Info: SCNB (VDW SCALING)     2
Info: USING ARITHMETIC MEAN TO COMBINE L-J SIGMA PARAMETERS
Info: BINARY COORDINATES     mobley_3515580_min.coor
Info: SUMMARY OF PARAMETERS:
Info: 9 BONDS
Info: 8 ANGLES
Info:   8 HARMONIC
Info:   0 COSINE-BASED
Info: 4 DIHEDRAL
Info: 0 IMPROPER
Info: 0 CROSSTERM
Info: 0 VDW
Info: 36 VDW_PAIRS
Info: 0 NBTHOLE_PAIRS
Info: STRUCTURE SUMMARY:
Info: 2927 ATOMS
Info: 2927 BONDS
Info: 26 ANGLES
Info: 37 DIHEDRALS
Info: 0 IMPROPERS
Info: 0 CROSSTERMS
Info: 2981 EXCLUSIONS
Info: 2918 RIGID BONDS
Info: 5863 DEGREES OF FREEDOM
Info: 979 HYDROGEN GROUPS
Info: 4 ATOMS IN LARGEST HYDROGEN GROUP
Info: 979 MIGRATION GROUPS
Info: 4 ATOMS IN LARGEST MIGRATION GROUP
Info: TOTAL MASS = 17599.7 amu
Info: TOTAL CHARGE = -0.000199955 e
Info: MASS DENSITY = 0.672436 g/cm^3
Info: ATOM DENSITY = 0.0673458 atoms/A^3
Info: ADDED 0 IMPLICIT EXCLUSIONS
Info: NONBONDED TABLE R-SQUARED SPACING: 0.0625
Info: NONBONDED TABLE SIZE: 705 POINTS
Info: REMOVING COM VELOCITY 0.017898 0.0351814 0.173054
TCL: Running for 100000 steps
ETITLE: TS BOND ANGLE DIHED IMPRP ELECT VDW BOUNDARY MISC KINETIC TOTAL TEMP POTENTIAL TOTAL3 TEMPAVG PRESSURE GPRESSURE VOLUME PRESSAVG GPRESSAVG
ENERGY: 0 0.2173 0.1391 2.7703 0.0000 -13588.3737 2399.3312 0.0000 0.0000 1677.8353 -9508.0805 288.0181 -11185.9158 -9507.7785 288.0181 530.0173 568.7659 43462.2613 530.0173 568.7659
ENERGY: 100000 0.7106 1.1566 1.4826 0.0000 -14156.8076 2468.7288 0.0000 0.0000 185.2985 -11499.4306 31.8084 -11684.7291 -11499.1961 30.9229 203.1782 254.3186 27988.1541 3.4508 3.4504
TCL: Running 100000 steps at 60 kelvin.
TCL: Setting parameter langevinTemp to 60
TCL: Running for 100000 steps
ETITLE: TS BOND ANGLE DIHED IMPRP ELECT VDW BOUNDARY MISC KINETIC TOTAL TEMP POTENTIAL TOTAL3 TEMPAVG PRESSURE GPRESSURE VOLUME PRESSAVG GPRESSAVG
ENERGY: 100000 0.7106 1.1566 1.4826 0.0000 -14156.8076 2468.7288 0.0000 0.0000 185.2121 -11499.5171 31.7936 -11684.7291 -11499.0927 31.7936 189.9864 254.1824 27988.1541 189.9864 254.1824
ENERGY: 200000 0.5376 1.4059 1.2497 0.0000 -14049.8941 2456.4656 0.0000 0.0000 351.0353 -11239.2001 60.2589 -11590.2354 -11238.5126 59.9599 619.0006 684.5938 27886.4818 5.0142 4.9839
TCL: Running 100000 steps at 90 kelvin.
TCL: Setting parameter langevinTemp to 90
TCL: Running for 100000 steps
ETITLE: TS BOND ANGLE DIHED IMPRP ELECT VDW BOUNDARY MISC KINETIC TOTAL TEMP POTENTIAL TOTAL3 TEMPAVG PRESSURE GPRESSURE VOLUME PRESSAVG GPRESSAVG
ENERGY: 200000 0.5376 1.4059 1.2497 0.0000 -14049.8941 2456.4656 0.0000 0.0000 350.8694 -11239.3660 60.2304 -11590.2354 -11238.6555 60.2304 632.8207 684.3673 27886.4818 632.8207 684.3673
ENERGY: 300000 0.7127 2.1785 2.2811 0.0000 -13816.7638 2329.0777 0.0000 0.0000 514.6435 -10967.8703 88.3440 -11482.5138 -10966.8399 89.9376 -265.5966 -212.8623 28219.0016 2.6432 2.6569
TCL: Running 100000 steps at 120 kelvin.
TCL: Setting parameter langevinTemp to 120
TCL: Running for 100000 steps
ETITLE: TS BOND ANGLE DIHED IMPRP ELECT VDW BOUNDARY MISC KINETIC TOTAL TEMP POTENTIAL TOTAL3 TEMPAVG PRESSURE GPRESSURE VOLUME PRESSAVG GPRESSAVG
ENERGY: 300000 0.7127 2.1785 2.2811 0.0000 -13816.7638 2329.0777 0.0000 0.0000 514.3773 -10968.1364 88.2983 -11482.5138 -10967.1986 88.2983 -266.7645 -212.7223 28219.0016 -266.7645 -212.7223
ENERGY: 400000 0.7233 4.1830 1.2837 0.0000 -13705.3184 2349.4704 0.0000 0.0000 679.7813 -10669.8767 116.6916 -11349.6580 -10668.2024 119.8843 593.3317 642.5856 28097.4818 4.1421 4.2420
TCL: Running 100000 steps at 150 kelvin.
TCL: Setting parameter langevinTemp to 150
TCL: Running for 100000 steps
ETITLE: TS BOND ANGLE DIHED IMPRP ELECT VDW BOUNDARY MISC KINETIC TOTAL TEMP POTENTIAL TOTAL3 TEMPAVG PRESSURE GPRESSURE VOLUME PRESSAVG GPRESSAVG
ENERGY: 400000 0.7233 4.1830 1.2837 0.0000 -13705.3184 2349.4704 0.0000 0.0000 679.4189 -10670.2391 116.6294 -11349.6580 -10669.3695 116.6294 601.4782 642.6129 28097.4818 601.4782 642.6129
ENERGY: 500000 1.4440 4.0176 1.8386 0.0000 -13371.6052 2189.6504 0.0000 0.0000 845.0602 -10329.5944 145.0635 -11174.6546 -10328.5575 149.8869 -340.5035 -284.2296 28459.7508 3.1397 3.1455
TCL: Running 100000 steps at 180 kelvin.
TCL: Setting parameter langevinTemp to 180
TCL: Running for 100000 steps
ETITLE: TS BOND ANGLE DIHED IMPRP ELECT VDW BOUNDARY MISC KINETIC TOTAL TEMP POTENTIAL TOTAL3 TEMPAVG PRESSURE GPRESSURE VOLUME PRESSAVG GPRESSAVG
ENERGY: 500000 1.4440 4.0176 1.8386 0.0000 -13371.6052 2189.6504 0.0000 0.0000 844.6245 -10330.0301 144.9887 -11174.6546 -10328.2758 144.9887 -328.5019 -285.5148 28459.7508 -328.5019 -285.5148
ENERGY: 600000 1.0669 3.5541 3.1392 0.0000 -13093.4448 2229.3488 0.0000 0.0000 1035.8403 -9820.4955 177.8129 -10856.3358 -9818.7669 179.5934 1245.9498 1256.8506 28389.1859 3.3463 3.2892
TCL: Running 100000 steps at 210 kelvin.
TCL: Setting parameter langevinTemp to 210
TCL: Running for 100000 steps
ETITLE: TS BOND ANGLE DIHED IMPRP ELECT VDW BOUNDARY MISC KINETIC TOTAL TEMP POTENTIAL TOTAL3 TEMPAVG PRESSURE GPRESSURE VOLUME PRESSAVG GPRESSAVG
ENERGY: 600000 1.0669 3.5541 3.1392 0.0000 -13093.4448 2229.3488 0.0000 0.0000 1035.3094 -9821.0264 177.7218 -10856.3358 -9819.8117 177.7218 1209.8423 1257.0224 28389.1859 1209.8423 1257.0224
ENERGY: 700000 0.5726 3.4165 4.4279 0.0000 -12244.1117 1824.2764 0.0000 0.0000 1224.7622 -9186.6560 210.2433 -10411.4182 -9183.1306 209.7191 -585.1390 -495.8773 28882.1669 5.0750 5.0900
TCL: Running 100000 steps at 240 kelvin.
TCL: Setting parameter langevinTemp to 240
TCL: Running for 100000 steps
ETITLE: TS BOND ANGLE DIHED IMPRP ELECT VDW BOUNDARY MISC KINETIC TOTAL TEMP POTENTIAL TOTAL3 TEMPAVG PRESSURE GPRESSURE VOLUME PRESSAVG GPRESSAVG
ENERGY: 700000 0.5726 3.4165 4.4279 0.0000 -12244.1117 1824.2764 0.0000 0.0000 1224.1316 -9187.2867 210.1351 -10411.4182 -9184.9953 210.1351 -558.2850 -494.7391 28882.1669 -558.2850 -494.7391
ENERGY: 800000 2.7324 4.1655 5.3232 0.0000 -11690.0986 1726.6947 0.0000 0.0000 1391.1241 -8560.0588 238.8011 -9951.1829 -8557.1120 240.1194 39.7504 177.0756 29019.9719 4.1849 4.0643
TCL: Running 100000 steps at 270 kelvin.
TCL: Setting parameter langevinTemp to 270
TCL: Running for 100000 steps
ETITLE: TS BOND ANGLE DIHED IMPRP ELECT VDW BOUNDARY MISC KINETIC TOTAL TEMP POTENTIAL TOTAL3 TEMPAVG PRESSURE GPRESSURE VOLUME PRESSAVG GPRESSAVG
ENERGY: 800000 2.7324 4.1655 5.3232 0.0000 -11690.0986 1726.6947 0.0000 0.0000 1390.4137 -8560.7692 238.6792 -9951.1829 -8558.9311 238.6792 85.0289 177.3164 29019.9719 85.0289 177.3164
ENERGY: 900000 1.2578 3.7607 7.5655 0.0000 -11169.3190 1629.6106 0.0000 0.0000 1591.1438 -7935.9806 273.1366 -9527.1244 -7931.9820 270.2315 806.3199 899.0563 29290.2734 4.2310 4.3344
TCL: Running 1000000 steps at 300 kelvin.
TCL: Setting parameter langevinTemp to 300
TCL: Running for 1000000 steps
ETITLE: TS BOND ANGLE DIHED IMPRP ELECT VDW BOUNDARY MISC KINETIC TOTAL TEMP POTENTIAL TOTAL3 TEMPAVG PRESSURE GPRESSURE VOLUME PRESSAVG GPRESSAVG
ENERGY: 900000 1.2578 3.7607 7.5655 0.0000 -11169.3190 1629.6106 0.0000 0.0000 1590.3149 -7936.8095 272.9943 -9527.1244 -7934.0067 272.9943 817.6244 900.0473 29290.2734 817.6244 900.0473
ENERGY: 1100000 1.9787 8.3164 4.9406 0.0000 -10596.4444 1462.8828 0.0000 0.0000 1786.5445 -7331.7814 306.6792 -9118.3259 -7328.0382 300.1476 178.0344 221.7813 30543.0087 2.0769 2.1512
ENERGY: 1300000 0.7401 7.0503 3.4161 0.0000 -10620.1699 1410.4749 0.0000 0.0000 1771.3554 -7427.1332 304.0718 -9198.4886 -7425.8477 300.0300 -32.6633 73.4387 30095.1231 3.6568 3.4669
ENERGY: 1500000 2.7059 3.6123 8.0928 0.0000 -10745.5931 1538.5474 0.0000 0.0000 1738.9605 -7453.6742 298.5109 -9192.6347 -7451.5576 299.7951 906.3346 1049.0959 29775.7694 3.7216 3.6297
ENERGY: 1700000 4.2275 1.9262 5.9699 0.0000 -10542.7087 1413.7695 0.0000 0.0000 1794.1023 -7322.7132 307.9766 -9116.8155 -7318.6814 300.4065 249.2638 327.6543 29698.1242 3.8525 3.7947
ENERGY: 1900000 2.1457 4.3504 8.7459 0.0000 -10534.0434 1384.6019 0.0000 0.0000 1748.0961 -7386.1032 300.0791 -9134.1993 -7384.4701 300.1851 -123.3116 -68.6557 30254.3662 2.6870 2.7937
TCL: Exiting due to exit command.
