Info: SIMULATION PARAMETERS:
Info: TIMESTEP               2
Info: NUMBER OF STEPS        0
Info: STEPS PER CYCLE        10
Info: PERIODIC CELL BASIS 1  31.981 0 0
Info: PERIODIC CELL BASIS 2  0 37.796 0
Info: PERIODIC CELL BASIS 3  0 0 36.583
Info: PERIODIC CELL CENTER   0 0 0
Info: WRAPPING WATERS AROUND PERIODIC BOUNDARIES ON OUTPUT.
Info: WRAPPING ALL CLUSTERS AROUND PERIODIC BOUNDARIES ON OUTPUT.
Info: FIRST LDB TIMESTEP     50
Info: LAST LDB TIMESTEP     -1
Info: HOM BACKGROUND SCALING 1
Info: PME BACKGROUND SCALING 1
Info: MIN ATOMS PER PATCH    40
Info: EMPTY PATCH LOAD       40 ATOMS
Info: INITIAL TEMPERATURE    300
Info: CENTER OF MASS MOVING INITIALLY? NO
Info: DIELECTRIC             1
Info: EXCLUDE                SCALED ONE-FOUR
Info: 1-4 ELECTROSTATICS SCALED BY 0.833333
Info: MODIFIED 1-4 VDW PARAMETERS WILL BE USED
Info: DCD FILENAME           mobley_1502181_equil.dcd
Info: DCD FREQUENCY          100000
Info: DCD FIRST STEP         100000
Info: DCD FILE WILL CONTAIN UNIT CELL DATA
Info: XST FILENAME           mobley_1502181_equil.xst
Info: XST FREQUENCY          100000
Info: NO VELOCITY DCD OUTPUT
Info: NO FORCE DCD OUTPUT
Info: OUTPUT FILENAME        mobley_1502181_equil
Info: BINARY OUTPUT FILES WILL BE USED
Info: RESTART FILENAME       mobley_1502181_equil.restart
Info: RESTART FREQUENCY      100000
Info: BINARY RESTART FILES WILL BE USED
Info: CUTOFF                 9
Info: PAIRLIST DISTANCE      11
Info: PAIRLIST SHRINK RATE   0.01
Info: PAIRLIST GROW RATE     0.01
Info: PAIRLIST TRIGGER       0.3
Info: PAIRLISTS PER CYCLE    2
Info: PAIRLISTS ENABLED
Info: MARGIN                 8
Info: HYDROGEN GROUP CUTOFF  2.5
Info: PATCH DIMENSION        21.5
Info: ENERGY OUTPUT STEPS    100000
Info: ENERGY EVALUATION STEPS    100000
Info: OUTPUT ENERGY PRECISION 4
Info: CROSSTERM ENERGY INCLUDED IN DIHEDRAL
Info: TIMING OUTPUT STEPS    1000000
Info: PRESSURE OUTPUT STEPS  100000
Info: LANGEVIN DYNAMICS ACTIVE
Info: LANGEVIN TEMPERATURE   30
Info: LANGEVIN USING BBK INTEGRATOR
Info: LANGEVIN DAMPING COEFFICIENT IS 1 INVERSE PS
Info: LANGEVIN DYNAMICS APPLIED TO HYDROGENS
Info: LANGEVIN PISTON PRESSURE CONTROL ACTIVE
Info:        TARGET PRESSURE IS 1.01325 BAR
Info:     OSCILLATION PERIOD IS 50 FS
Info:             DECAY TIME IS 25 FS
Info:     PISTON TEMPERATURE IS 300 K
Info:       PRESSURE CONTROL IS GROUP-BASED
Info:    INITIAL STRAIN RATE IS 0 0 0
Info:       CELL FLUCTUATION IS ISOTROPIC
Info: PARTICLE MESH EWALD (PME) ACTIVE
Info: PME TOLERANCE               1e-06
Info: PME EWALD COEFFICIENT       0.348832
Info: PME INTERPOLATION ORDER     4
Info: PME GRID DIMENSIONS         32 40 40
Info: PME MAXIMUM GRID SPACING    1
Info: FULL ELECTROSTATIC EVALUATION FREQUENCY      2
Info: USING VERLET I (r-RESPA) MTS SCHEME.
Info: C1 SPLITTING OF LONG RANGE ELECTROSTATICS
Info: PLACING ATOMS IN PATCHES BY HYDROGEN GROUPS
Info: RIGID BONDS TO HYDROGEN : ALL
Info:         ERROR TOLERANCE : 1e-08
Info:          MAX ITERATIONS : 100
Info: RIGID WATER USING SETTLE ALGORITHM
Info: RANDOM NUMBER SEED     1743265058
Info: USE HYDROGEN BONDS?    NO
Info: Using AMBER format force field!
Info: AMBER PARM FILE        mobley_1502181.prmtop
Info: COORDINATE PDB         mobley_1502181.pdb
Info: Exclusions will be read from PARM file!
Info: SCNB (VDW SCALING)     2
Info: USING ARITHMETIC MEAN TO COMBINE L-J SIGMA PARAMETERS
Info: BINARY COORDINATES     mobley_1502181_min.coor
Info: SUMMARY OF PARAMETERS:
Info: 6 BONDS
Info: 7 ANGLES
Info:   7 HARMONIC
Info:   0 COSINE-BASED
Info: 11 DIHEDRAL
Info: 0 IMPROPER
Info: 0 CROSSTERM
Info: 0 VDW
Info: 21 VDW_PAIRS
Info: 0 NBTHOLE_PAIRS
Info: STRUCTURE SUMMARY:
Info: 2905 ATOMS
Info: 2904 BONDS
Info: 51 ANGLES
Info: 85 DIHEDRALS
Info: 0 IMPROPERS
Info: 0 CROSSTERMS
Info: 3021 EXCLUSIONS
Info: 2895 RIGID BONDS
Info: 5820 DEGREES OF FREEDOM
Info: 969 HYDROGEN GROUPS
Info: 4 ATOMS IN LARGEST HYDROGEN GROUP
Info: 969 MIGRATION GROUPS
Info: 4 ATOMS IN LARGEST MIGRATION GROUP
Info: TOTAL MASS = 17419.6 amu
Info: TOTAL CHARGE = 0.00010002 e
Info: MASS DENSITY = 0.654154 g/cm^3
Info: ATOM DENSITY = 0.0656945 atoms/A^3
Info: ADDED 0 IMPLICIT EXCLUSIONS
Info: NONBONDED TABLE R-SQUARED SPACING: 0.0625
Info: NONBONDED TABLE SIZE: 705 POINTS
Info: REMOVING COM VELOCITY 0.0882099 0.0330854 -0.103849
TCL: Running for 100000 steps
ETITLE: TS BOND ANGLE DIHED IMPRP ELECT VDW BOUNDARY MISC KINETIC TOTAL TEMP POTENTIAL TOTAL3 TEMPAVG PRESSURE GPRESSURE VOLUME PRESSAVG GPRESSAVG
ENERGY: 0 0.1158 0.4766 5.8944 0.0000 -13373.2600 2367.5763 0.0000 0.0000 1720.7738 -9278.4230 297.5714 -10999.1969 -9278.0882 297.5714 622.2004 663.6717 44219.8430 622.2004 663.6717
ENERGY: 100000 0.3427 1.9539 7.2782 0.0000 -13986.2915 2463.8726 0.0000 0.0000 178.7089 -11334.1352 30.9039 -11512.8441 -11333.7003 30.9528 472.0714 538.4809 28558.4893 3.9334 3.9642
TCL: Running 100000 steps at 60 kelvin.
TCL: Setting parameter langevinTemp to 60
TCL: Running for 100000 steps
ETITLE: TS BOND ANGLE DIHED IMPRP ELECT VDW BOUNDARY MISC KINETIC TOTAL TEMP POTENTIAL TOTAL3 TEMPAVG PRESSURE GPRESSURE VOLUME PRESSAVG GPRESSAVG
ENERGY: 100000 0.3427 1.9539 7.2782 0.0000 -13986.2915 2463.8726 0.0000 0.0000 178.6245 -11334.2196 30.8893 -11512.8441 -11333.7779 30.8893 480.9451 538.4998 28558.4893 480.9451 538.4998
ENERGY: 200000 0.7785 3.6775 7.2396 0.0000 -13714.1233 2246.6854 0.0000 0.0000 346.0553 -11109.6870 59.8429 -11455.7423 -11108.6614 59.9125 -1040.0399 -963.0473 28266.7793 4.4692 4.4364
TCL: Running 100000 steps at 90 kelvin.
TCL: Setting parameter langevinTemp to 90
TCL: Running for 100000 steps
ETITLE: TS BOND ANGLE DIHED IMPRP ELECT VDW BOUNDARY MISC KINETIC TOTAL TEMP POTENTIAL TOTAL3 TEMPAVG PRESSURE GPRESSURE VOLUME PRESSAVG GPRESSAVG
ENERGY: 200000 0.7785 3.6775 7.2396 0.0000 -13714.1233 2246.6854 0.0000 0.0000 345.8748 -11109.8675 59.8117 -11455.7423 -11109.1359 59.8117 -1024.1854 -963.5961 28266.7793 -1024.1854 -963.5961
ENERGY: 300000 0.5854 4.8896 6.5400 0.0000 -13689.8488 2346.0489 0.0000 0.0000 525.2602 -10806.5246 90.8326 -11331.7848 -10804.5931 89.9125 316.9797 327.5750 28260.9059 3.7186 3.8334
TCL: Running 100000 steps at 120 kelvin.
TCL: Setting parameter langevinTemp to 120
TCL: Running for 100000 steps
ETITLE: TS BOND ANGLE DIHED IMPRP ELECT VDW BOUNDARY MISC KINETIC TOTAL TEMP POTENTIAL TOTAL3 TEMPAVG PRESSURE GPRESSURE VOLUME PRESSAVG GPRESSAVG
ENERGY: 300000 0.5854 4.8896 6.5400 0.0000 -13689.8488 2346.0489 0.0000 0.0000 525.0098 -10806.7750 90.7893 -11331.7848 -10805.4941 90.7893 272.0435 327.6735 28260.9059 272.0435 327.6735
ENERGY: 400000 2.2278 3.8526 7.3995 0.0000 -13512.9781 2302.9112 0.0000 0.0000 692.8303 -10503.7566 119.8103 -11196.5869 -10503.2350 119.8126 190.9676 238.3996 28485.8491 5.6534 5.5827
TCL: Running 100000 steps at 150 kelvin.
TCL: Setting parameter langevinTemp to 150
TCL: Running for 100000 steps
ETITLE: TS BOND ANGLE DIHED IMPRP ELECT VDW BOUNDARY MISC KINETIC TOTAL TEMP POTENTIAL TOTAL3 TEMPAVG PRESSURE GPRESSURE VOLUME PRESSAVG GPRESSAVG
ENERGY: 400000 2.2278 3.8526 7.3995 0.0000 -13512.9781 2302.9112 0.0000 0.0000 692.4941 -10504.0929 119.7522 -11196.5869 -10502.9600 119.7522 188.3906 237.1449 28485.8491 188.3906 237.1449
ENERGY: 500000 1.7906 6.7267 7.6442 0.0000 -13320.2473 2239.3878 0.0000 0.0000 881.8380 -10182.8600 152.4952 -11064.6980 -10179.8499 150.1704 -128.1978 -51.5402 28706.5139 4.3125 4.1848
TCL: Running 100000 steps at 180 kelvin.
TCL: Setting parameter langevinTemp to 180
TCL: Running for 100000 steps
ETITLE: TS BOND ANGLE DIHED IMPRP ELECT VDW BOUNDARY MISC KINETIC TOTAL TEMP POTENTIAL TOTAL3 TEMPAVG PRESSURE GPRESSURE VOLUME PRESSAVG GPRESSAVG
ENERGY: 500000 1.7906 6.7267 7.6442 0.0000 -13320.2473 2239.3878 0.0000 0.0000 881.4013 -10183.2967 152.4197 -11064.6980 -10181.6324 152.4197 -89.9310 -50.0651 28706.5139 -89.9310 -50.0651
ENERGY: 600000 2.3432 5.8772 7.4316 0.0000 -12827.7386 2031.0736 0.0000 0.0000 1057.6498 -9723.3633 182.8981 -10781.0131 -9720.9975 179.9785 -567.5441 -504.2493 28728.7203 3.3607 3.4350
TCL: Running 100000 steps at 210 kelvin.
TCL: Setting parameter langevinTemp to 210
TCL: Running for 100000 steps
ETITLE: TS BOND ANGLE DIHED IMPRP ELECT VDW BOUNDARY MISC KINETIC TOTAL TEMP POTENTIAL TOTAL3 TEMPAVG PRESSURE GPRESSURE VOLUME PRESSAVG GPRESSAVG
ENERGY: 600000 2.3432 5.8772 7.4316 0.0000 -12827.7386 2031.0736 0.0000 0.0000 1057.1470 -9723.8661 182.8112 -10781.0131 -9721.6670 182.8112 -563.4746 -505.0171 28728.7203 -563.4746 -505.0171
ENERGY: 700000 1.4189 6.7112 8.7546 0.0000 -12210.5670 1870.0846 0.0000 0.0000 1209.6155 -9113.9822 209.1774 -10323.5977 -9112.0504 210.3776 163.1967 267.1456 28108.2695 4.2249 4.4117
TCL: Running 100000 steps at 240 kelvin.
TCL: Setting parameter langevinTemp to 240
TCL: Running for 100000 steps
ETITLE: TS BOND ANGLE DIHED IMPRP ELECT VDW BOUNDARY MISC KINETIC TOTAL TEMP POTENTIAL TOTAL3 TEMPAVG PRESSURE GPRESSURE VOLUME PRESSAVG GPRESSAVG
ENERGY: 700000 1.4189 6.7112 8.7546 0.0000 -12210.5670 1870.0846 0.0000 0.0000 1209.0026 -9114.5951 209.0714 -10323.5977 -9112.4988 209.0714 193.2340 266.6341 28108.2695 193.2340 266.6341
ENERGY: 800000 1.5530 8.2300 6.2865 0.0000 -11640.7395 1715.8662 0.0000 0.0000 1429.2567 -8479.5472 247.1597 -9908.8039 -8476.5939 240.0121 389.6813 385.9558 28391.2455 2.4650 2.3035
TCL: Running 100000 steps at 270 kelvin.
TCL: Setting parameter langevinTemp to 270
TCL: Running for 100000 steps
ETITLE: TS BOND ANGLE DIHED IMPRP ELECT VDW BOUNDARY MISC KINETIC TOTAL TEMP POTENTIAL TOTAL3 TEMPAVG PRESSURE GPRESSURE VOLUME PRESSAVG GPRESSAVG
ENERGY: 800000 1.5530 8.2300 6.2865 0.0000 -11640.7395 1715.8662 0.0000 0.0000 1428.5284 -8480.2754 247.0338 -9908.8039 -8477.8140 247.0338 303.2692 385.9298 28391.2455 303.2692 385.9298
ENERGY: 900000 0.4572 10.8040 7.3650 0.0000 -11163.9361 1633.2405 0.0000 0.0000 1539.6651 -7972.4043 266.2525 -9512.0693 -7967.0946 269.5948 661.9931 765.3373 29068.3519 3.2569 3.2688
TCL: Running 1000000 steps at 300 kelvin.
TCL: Setting parameter langevinTemp to 300
TCL: Running for 1000000 steps
ETITLE: TS BOND ANGLE DIHED IMPRP ELECT VDW BOUNDARY MISC KINETIC TOTAL TEMP POTENTIAL TOTAL3 TEMPAVG PRESSURE GPRESSURE VOLUME PRESSAVG GPRESSAVG
ENERGY: 900000 0.4572 10.8040 7.3650 0.0000 -11163.9361 1633.2405 0.0000 0.0000 1538.9083 -7973.1611 266.1216 -9512.0693 -7970.3425 266.1216 684.0093 767.9287 29068.3519 684.0093 767.9287
ENERGY: 1100000 4.3622 10.9266 8.8862 0.0000 -10451.0514 1329.1874 0.0000 0.0000 1761.6799 -7336.0091 304.6452 -9097.6890 -7334.2357 300.7206 -857.1021 -758.1908 30333.4609 2.5445 2.5889
ENERGY: 1300000 3.0144 10.6318 7.0257 0.0000 -10610.2419 1477.7472 0.0000 0.0000 1709.8808 -7401.9420 295.6877 -9111.8227 -7398.3729 300.7681 264.6421 314.1071 30042.3026 2.8221 2.9615
ENERGY: 1500000 2.3097 12.3278 7.6765 0.0000 -10536.1041 1402.1159 0.0000 0.0000 1736.1785 -7375.4958 300.2353 -9111.6743 -7372.5323 300.3602 37.1574 140.5382 29418.4751 3.2677 3.2548
ENERGY: 1700000 3.9825 10.7439 7.5886 0.0000 -10496.9375 1395.0531 0.0000 0.0000 1723.9451 -7355.6243 298.1198 -9079.5694 -7351.3336 300.3240 -11.1051 63.9454 29675.8113 4.4635 4.3849
ENERGY: 1900000 3.8358 12.8112 6.6784 0.0000 -10528.2711 1368.0040 0.0000 0.0000 1745.7258 -7391.2158 301.8863 -9136.9417 -7386.8737 300.1141 -583.1689 -524.7134 30045.2533 1.8829 1.8137
TCL: Exiting due to exit command.
