Info: SIMULATION PARAMETERS:
Info: TIMESTEP               2
Info: NUMBER OF STEPS        0
Info: STEPS PER CYCLE        10
Info: PERIODIC CELL BASIS 1  36.005 0 0
Info: PERIODIC CELL BASIS 2  0 38.307 0
Info: PERIODIC CELL BASIS 3  0 0 33.088
Info: PERIODIC CELL CENTER   0 0 0
Info: WRAPPING WATERS AROUND PERIODIC BOUNDARIES ON OUTPUT.
Info: WRAPPING ALL CLUSTERS AROUND PERIODIC BOUNDARIES ON OUTPUT.
Info: FIRST LDB TIMESTEP     50
Info: LAST LDB TIMESTEP     -1
Info: HOM BACKGROUND SCALING 1
Info: PME BACKGROUND SCALING 1
Info: MIN ATOMS PER PATCH    40
Info: EMPTY PATCH LOAD       40 ATOMS
Info: INITIAL TEMPERATURE    300
Info: CENTER OF MASS MOVING INITIALLY? NO
Info: DIELECTRIC             1
Info: EXCLUDE                SCALED ONE-FOUR
Info: 1-4 ELECTROSTATICS SCALED BY 0.833333
Info: MODIFIED 1-4 VDW PARAMETERS WILL BE USED
Info: DCD FILENAME           mobley_9197172_equil.dcd
Info: DCD FREQUENCY          100000
Info: DCD FIRST STEP         100000
Info: DCD FILE WILL CONTAIN UNIT CELL DATA
Info: XST FILENAME           mobley_9197172_equil.xst
Info: XST FREQUENCY          100000
Info: NO VELOCITY DCD OUTPUT
Info: NO FORCE DCD OUTPUT
Info: OUTPUT FILENAME        mobley_9197172_equil
Info: BINARY OUTPUT FILES WILL BE USED
Info: RESTART FILENAME       mobley_9197172_equil.restart
Info: RESTART FREQUENCY      100000
Info: BINARY RESTART FILES WILL BE USED
Info: CUTOFF                 9
Info: PAIRLIST DISTANCE      11
Info: PAIRLIST SHRINK RATE   0.01
Info: PAIRLIST GROW RATE     0.01
Info: PAIRLIST TRIGGER       0.3
Info: PAIRLISTS PER CYCLE    2
Info: PAIRLISTS ENABLED
Info: MARGIN                 8
Info: HYDROGEN GROUP CUTOFF  2.5
Info: PATCH DIMENSION        21.5
Info: ENERGY OUTPUT STEPS    100000
Info: ENERGY EVALUATION STEPS    100000
Info: OUTPUT ENERGY PRECISION 4
Info: CROSSTERM ENERGY INCLUDED IN DIHEDRAL
Info: TIMING OUTPUT STEPS    1000000
Info: PRESSURE OUTPUT STEPS  100000
Info: LANGEVIN DYNAMICS ACTIVE
Info: LANGEVIN TEMPERATURE   30
Info: LANGEVIN USING BBK INTEGRATOR
Info: LANGEVIN DAMPING COEFFICIENT IS 1 INVERSE PS
Info: LANGEVIN DYNAMICS APPLIED TO HYDROGENS
Info: LANGEVIN PISTON PRESSURE CONTROL ACTIVE
Info:        TARGET PRESSURE IS 1.01325 BAR
Info:     OSCILLATION PERIOD IS 50 FS
Info:             DECAY TIME IS 25 FS
Info:     PISTON TEMPERATURE IS 300 K
Info:       PRESSURE CONTROL IS GROUP-BASED
Info:    INITIAL STRAIN RATE IS 0 0 0
Info:       CELL FLUCTUATION IS ISOTROPIC
Info: PARTICLE MESH EWALD (PME) ACTIVE
Info: PME TOLERANCE               1e-06
Info: PME EWALD COEFFICIENT       0.348832
Info: PME INTERPOLATION ORDER     4
Info: PME GRID DIMENSIONS         40 40 36
Info: PME MAXIMUM GRID SPACING    1
Info: FULL ELECTROSTATIC EVALUATION FREQUENCY      2
Info: USING VERLET I (r-RESPA) MTS SCHEME.
Info: C1 SPLITTING OF LONG RANGE ELECTROSTATICS
Info: PLACING ATOMS IN PATCHES BY HYDROGEN GROUPS
Info: RIGID BONDS TO HYDROGEN : ALL
Info:         ERROR TOLERANCE : 1e-08
Info:          MAX ITERATIONS : 100
Info: RIGID WATER USING SETTLE ALGORITHM
Info: RANDOM NUMBER SEED     1743260702
Info: USE HYDROGEN BONDS?    NO
Info: Using AMBER format force field!
Info: AMBER PARM FILE        mobley_9197172.prmtop
Info: COORDINATE PDB         mobley_9197172.pdb
Info: Exclusions will be read from PARM file!
Info: SCNB (VDW SCALING)     2
Info: USING ARITHMETIC MEAN TO COMBINE L-J SIGMA PARAMETERS
Info: BINARY COORDINATES     mobley_9197172_min.coor
Info: SUMMARY OF PARAMETERS:
Info: 7 BONDS
Info: 9 ANGLES
Info:   9 HARMONIC
Info:   0 COSINE-BASED
Info: 11 DIHEDRAL
Info: 0 IMPROPER
Info: 0 CROSSTERM
Info: 0 VDW
Info: 21 VDW_PAIRS
Info: 0 NBTHOLE_PAIRS
Info: STRUCTURE SUMMARY:
Info: 2982 ATOMS
Info: 2981 BONDS
Info: 42 ANGLES
Info: 67 DIHEDRALS
Info: 0 IMPROPERS
Info: 0 CROSSTERMS
Info: 3078 EXCLUSIONS
Info: 2974 RIGID BONDS
Info: 5972 DEGREES OF FREEDOM
Info: 994 HYDROGEN GROUPS
Info: 4 ATOMS IN LARGEST HYDROGEN GROUP
Info: 994 MIGRATION GROUPS
Info: 4 ATOMS IN LARGEST MIGRATION GROUP
Info: TOTAL MASS = 17876 amu
Info: TOTAL CHARGE = -0.000100002 e
Info: MASS DENSITY = 0.650456 g/cm^3
Info: ATOM DENSITY = 0.0653426 atoms/A^3
Info: ADDED 0 IMPLICIT EXCLUSIONS
Info: NONBONDED TABLE R-SQUARED SPACING: 0.0625
Info: NONBONDED TABLE SIZE: 705 POINTS
Info: REMOVING COM VELOCITY -0.134396 0.011677 0.00427949
TCL: Running for 100000 steps
ETITLE: TS BOND ANGLE DIHED IMPRP ELECT VDW BOUNDARY MISC KINETIC TOTAL TEMP POTENTIAL TOTAL3 TEMPAVG PRESSURE GPRESSURE VOLUME PRESSAVG GPRESSAVG
ENERGY: 0 0.1158 0.8415 2.4948 0.0000 -13782.6028 2459.2588 0.0000 0.0000 1793.3624 -9526.5296 302.2307 -11319.8920 -9526.1773 302.2307 673.1539 710.6150 45636.4101 673.1539 710.6150
ENERGY: 100000 0.4463 2.4464 3.5445 0.0000 -14324.0173 2496.7093 0.0000 0.0000 175.8701 -11645.0008 29.6389 -11820.8709 -11644.5874 30.9191 49.6084 92.5556 28915.7504 3.3219 3.2939
TCL: Running 100000 steps at 60 kelvin.
TCL: Setting parameter langevinTemp to 60
TCL: Running for 100000 steps
ETITLE: TS BOND ANGLE DIHED IMPRP ELECT VDW BOUNDARY MISC KINETIC TOTAL TEMP POTENTIAL TOTAL3 TEMPAVG PRESSURE GPRESSURE VOLUME PRESSAVG GPRESSAVG
ENERGY: 100000 0.4463 2.4464 3.5445 0.0000 -14324.0173 2496.7093 0.0000 0.0000 175.7834 -11645.0875 29.6243 -11820.8709 -11644.6345 29.6243 36.1193 92.5312 28915.7504 36.1193 92.5312
ENERGY: 200000 0.7822 2.6631 3.1478 0.0000 -14208.7885 2434.2494 0.0000 0.0000 357.1322 -11410.8138 60.1866 -11767.9460 -11409.8878 60.1048 -250.1697 -181.9776 28998.9843 4.5375 4.5185
TCL: Running 100000 steps at 90 kelvin.
TCL: Setting parameter langevinTemp to 90
TCL: Running for 100000 steps
ETITLE: TS BOND ANGLE DIHED IMPRP ELECT VDW BOUNDARY MISC KINETIC TOTAL TEMP POTENTIAL TOTAL3 TEMPAVG PRESSURE GPRESSURE VOLUME PRESSAVG GPRESSAVG
ENERGY: 200000 0.7822 2.6631 3.1478 0.0000 -14208.7885 2434.2494 0.0000 0.0000 356.9507 -11410.9953 60.1560 -11767.9460 -11410.1669 60.1560 -240.9722 -181.9946 28998.9843 -240.9722 -181.9946
ENERGY: 300000 0.6375 3.9614 3.5472 0.0000 -14177.0278 2507.5069 0.0000 0.0000 532.2683 -11129.1066 89.7018 -11661.3749 -11127.6291 89.8262 933.9245 959.8048 28711.1712 4.9113 4.8572
TCL: Running 100000 steps at 120 kelvin.
TCL: Setting parameter langevinTemp to 120
TCL: Running for 100000 steps
ETITLE: TS BOND ANGLE DIHED IMPRP ELECT VDW BOUNDARY MISC KINETIC TOTAL TEMP POTENTIAL TOTAL3 TEMPAVG PRESSURE GPRESSURE VOLUME PRESSAVG GPRESSAVG
ENERGY: 300000 0.6375 3.9614 3.5472 0.0000 -14177.0278 2507.5069 0.0000 0.0000 532.0074 -11129.3675 89.6578 -11661.3749 -11128.3647 89.6578 910.3589 959.2045 28711.1712 910.3589 959.2045
ENERGY: 400000 0.4507 6.0612 3.7430 0.0000 -13844.9100 2324.1887 0.0000 0.0000 716.7085 -10793.7580 120.7850 -11510.4665 -10791.2868 119.8983 -268.6439 -215.1474 29311.2964 3.5170 3.5863
TCL: Running 100000 steps at 150 kelvin.
TCL: Setting parameter langevinTemp to 150
TCL: Running for 100000 steps
ETITLE: TS BOND ANGLE DIHED IMPRP ELECT VDW BOUNDARY MISC KINETIC TOTAL TEMP POTENTIAL TOTAL3 TEMPAVG PRESSURE GPRESSURE VOLUME PRESSAVG GPRESSAVG
ENERGY: 400000 0.4507 6.0612 3.7430 0.0000 -13844.9100 2324.1887 0.0000 0.0000 716.3565 -10794.1100 120.7257 -11510.4665 -10792.5467 120.7257 -268.1417 -213.7146 29311.2964 -268.1417 -213.7146
ENERGY: 500000 0.7882 4.1563 5.9843 0.0000 -13726.1564 2284.2676 0.0000 0.0000 896.2812 -10534.6788 151.0480 -11430.9600 -10532.8166 149.8958 -75.4221 -86.4728 29176.7875 2.7668 2.8764
TCL: Running 100000 steps at 180 kelvin.
TCL: Setting parameter langevinTemp to 180
TCL: Running for 100000 steps
ETITLE: TS BOND ANGLE DIHED IMPRP ELECT VDW BOUNDARY MISC KINETIC TOTAL TEMP POTENTIAL TOTAL3 TEMPAVG PRESSURE GPRESSURE VOLUME PRESSAVG GPRESSAVG
ENERGY: 500000 0.7882 4.1563 5.9843 0.0000 -13726.1564 2284.2676 0.0000 0.0000 895.8242 -10535.1358 150.9710 -11430.9600 -10533.1756 150.9710 -134.2900 -86.5744 29176.7875 -134.2900 -86.5744
ENERGY: 600000 1.1074 5.4392 5.9659 0.0000 -13101.4483 2059.7926 0.0000 0.0000 1075.1001 -9954.0431 181.1839 -11029.1432 -9950.6950 179.5784 -424.1462 -358.0917 29052.0369 3.4971 3.6434
TCL: Running 100000 steps at 210 kelvin.
TCL: Setting parameter langevinTemp to 210
TCL: Running for 100000 steps
ETITLE: TS BOND ANGLE DIHED IMPRP ELECT VDW BOUNDARY MISC KINETIC TOTAL TEMP POTENTIAL TOTAL3 TEMPAVG PRESSURE GPRESSURE VOLUME PRESSAVG GPRESSAVG
ENERGY: 600000 1.1074 5.4392 5.9659 0.0000 -13101.4483 2059.7926 0.0000 0.0000 1074.5632 -9954.5800 181.0934 -11029.1432 -9952.6738 181.0934 -411.4414 -356.7552 29052.0369 -411.4414 -356.7552
ENERGY: 700000 1.3106 6.8341 4.9287 0.0000 -12554.5235 1958.9993 0.0000 0.0000 1228.4358 -9354.0149 207.0251 -10582.4507 -9352.1122 209.5541 569.2927 580.6323 28992.7990 2.7972 2.9266
TCL: Running 100000 steps at 240 kelvin.
TCL: Setting parameter langevinTemp to 240
TCL: Running for 100000 steps
ETITLE: TS BOND ANGLE DIHED IMPRP ELECT VDW BOUNDARY MISC KINETIC TOTAL TEMP POTENTIAL TOTAL3 TEMPAVG PRESSURE GPRESSURE VOLUME PRESSAVG GPRESSAVG
ENERGY: 700000 1.3106 6.8341 4.9287 0.0000 -12554.5235 1958.9993 0.0000 0.0000 1227.8232 -9354.6275 206.9219 -10582.4507 -9352.4721 206.9219 501.5359 579.0801 28992.7990 501.5359 579.0801
ENERGY: 800000 1.4701 10.5844 7.1647 0.0000 -11773.1947 1723.8121 0.0000 0.0000 1416.2727 -8613.8907 238.6808 -10030.1634 -8611.0576 240.0001 325.3133 404.7210 29460.9840 4.1722 4.1438
TCL: Running 100000 steps at 270 kelvin.
TCL: Setting parameter langevinTemp to 270
TCL: Running for 100000 steps
ETITLE: TS BOND ANGLE DIHED IMPRP ELECT VDW BOUNDARY MISC KINETIC TOTAL TEMP POTENTIAL TOTAL3 TEMPAVG PRESSURE GPRESSURE VOLUME PRESSAVG GPRESSAVG
ENERGY: 800000 1.4701 10.5844 7.1647 0.0000 -11773.1947 1723.8121 0.0000 0.0000 1415.5520 -8614.6114 238.5593 -10030.1634 -8612.0730 238.5593 342.6442 404.7878 29460.9840 342.6442 404.7878
ENERGY: 900000 5.4045 14.0733 6.1768 0.0000 -11212.2350 1460.5557 0.0000 0.0000 1592.1399 -8133.8848 268.3192 -9726.0247 -8131.2073 269.9912 -1289.7236 -1206.5166 30226.0296 2.8201 2.8070
TCL: Running 1000000 steps at 300 kelvin.
TCL: Setting parameter langevinTemp to 300
TCL: Running for 1000000 steps
ETITLE: TS BOND ANGLE DIHED IMPRP ELECT VDW BOUNDARY MISC KINETIC TOTAL TEMP POTENTIAL TOTAL3 TEMPAVG PRESSURE GPRESSURE VOLUME PRESSAVG GPRESSAVG
ENERGY: 900000 5.4045 14.0733 6.1768 0.0000 -11212.2350 1460.5557 0.0000 0.0000 1591.3476 -8134.6771 268.1857 -9726.0247 -8132.0840 268.1857 -1293.5780 -1208.5931 30226.0296 -1293.5780 -1208.5931
ENERGY: 1100000 0.7792 11.5534 7.7361 0.0000 -10743.0233 1466.0286 0.0000 0.0000 1769.8869 -7487.0392 298.2745 -9256.9261 -7482.3831 300.4741 13.0312 97.0196 31161.9455 3.5897 3.6500
ENERGY: 1300000 1.8300 10.1122 6.9223 0.0000 -10706.1916 1361.5880 0.0000 0.0000 1829.4291 -7496.3100 308.3090 -9325.7391 -7491.8414 299.7624 -484.9582 -404.0203 30632.3584 3.5065 3.2977
ENERGY: 1500000 2.3282 8.9139 6.0654 0.0000 -10704.0079 1438.6175 0.0000 0.0000 1801.8653 -7446.2175 303.6637 -9248.0828 -7441.3947 300.9540 -161.4409 -104.6892 31096.0052 3.8520 3.8979
ENERGY: 1700000 1.5574 9.0604 5.9025 0.0000 -10824.6525 1510.8380 0.0000 0.0000 1771.0529 -7526.2414 298.4710 -9297.2943 -7522.9303 300.5364 482.7402 562.5664 30620.9238 3.3658 3.2060
ENERGY: 1900000 2.9179 11.0067 3.4144 0.0000 -10589.0027 1325.3739 0.0000 0.0000 1812.0589 -7434.2308 305.3816 -9246.2897 -7430.3457 300.5747 -784.8007 -783.1061 31092.9280 4.3751 4.3609
TCL: Exiting due to exit command.
