Info: SIMULATION PARAMETERS:
Info: TIMESTEP               2
Info: NUMBER OF STEPS        0
Info: STEPS PER CYCLE        10
Info: PERIODIC CELL BASIS 1  34.207 0 0
Info: PERIODIC CELL BASIS 2  0 34.26 0
Info: PERIODIC CELL BASIS 3  0 0 37.195
Info: PERIODIC CELL CENTER   0 0 0
Info: WRAPPING WATERS AROUND PERIODIC BOUNDARIES ON OUTPUT.
Info: WRAPPING ALL CLUSTERS AROUND PERIODIC BOUNDARIES ON OUTPUT.
Info: FIRST LDB TIMESTEP     50
Info: LAST LDB TIMESTEP     -1
Info: HOM BACKGROUND SCALING 1
Info: PME BACKGROUND SCALING 1
Info: MIN ATOMS PER PATCH    40
Info: EMPTY PATCH LOAD       40 ATOMS
Info: INITIAL TEMPERATURE    300
Info: CENTER OF MASS MOVING INITIALLY? NO
Info: DIELECTRIC             1
Info: EXCLUDE                SCALED ONE-FOUR
Info: 1-4 ELECTROSTATICS SCALED BY 0.833333
Info: MODIFIED 1-4 VDW PARAMETERS WILL BE USED
Info: DCD FILENAME           mobley_9571888_equil.dcd
Info: DCD FREQUENCY          100000
Info: DCD FIRST STEP         100000
Info: DCD FILE WILL CONTAIN UNIT CELL DATA
Info: XST FILENAME           mobley_9571888_equil.xst
Info: XST FREQUENCY          100000
Info: NO VELOCITY DCD OUTPUT
Info: NO FORCE DCD OUTPUT
Info: OUTPUT FILENAME        mobley_9571888_equil
Info: BINARY OUTPUT FILES WILL BE USED
Info: RESTART FILENAME       mobley_9571888_equil.restart
Info: RESTART FREQUENCY      100000
Info: BINARY RESTART FILES WILL BE USED
Info: CUTOFF                 9
Info: PAIRLIST DISTANCE      11
Info: PAIRLIST SHRINK RATE   0.01
Info: PAIRLIST GROW RATE     0.01
Info: PAIRLIST TRIGGER       0.3
Info: PAIRLISTS PER CYCLE    2
Info: PAIRLISTS ENABLED
Info: MARGIN                 8
Info: HYDROGEN GROUP CUTOFF  2.5
Info: PATCH DIMENSION        21.5
Info: ENERGY OUTPUT STEPS    100000
Info: ENERGY EVALUATION STEPS    100000
Info: OUTPUT ENERGY PRECISION 4
Info: CROSSTERM ENERGY INCLUDED IN DIHEDRAL
Info: TIMING OUTPUT STEPS    1000000
Info: PRESSURE OUTPUT STEPS  100000
Info: LANGEVIN DYNAMICS ACTIVE
Info: LANGEVIN TEMPERATURE   30
Info: LANGEVIN USING BBK INTEGRATOR
Info: LANGEVIN DAMPING COEFFICIENT IS 1 INVERSE PS
Info: LANGEVIN DYNAMICS APPLIED TO HYDROGENS
Info: LANGEVIN PISTON PRESSURE CONTROL ACTIVE
Info:        TARGET PRESSURE IS 1.01325 BAR
Info:     OSCILLATION PERIOD IS 50 FS
Info:             DECAY TIME IS 25 FS
Info:     PISTON TEMPERATURE IS 300 K
Info:       PRESSURE CONTROL IS GROUP-BASED
Info:    INITIAL STRAIN RATE IS 0 0 0
Info:       CELL FLUCTUATION IS ISOTROPIC
Info: PARTICLE MESH EWALD (PME) ACTIVE
Info: PME TOLERANCE               1e-06
Info: PME EWALD COEFFICIENT       0.348832
Info: PME INTERPOLATION ORDER     4
Info: PME GRID DIMENSIONS         36 36 40
Info: PME MAXIMUM GRID SPACING    1
Info: FULL ELECTROSTATIC EVALUATION FREQUENCY      2
Info: USING VERLET I (r-RESPA) MTS SCHEME.
Info: C1 SPLITTING OF LONG RANGE ELECTROSTATICS
Info: PLACING ATOMS IN PATCHES BY HYDROGEN GROUPS
Info: RIGID BONDS TO HYDROGEN : ALL
Info:         ERROR TOLERANCE : 1e-08
Info:          MAX ITERATIONS : 100
Info: RIGID WATER USING SETTLE ALGORITHM
Info: RANDOM NUMBER SEED     1743222619
Info: USE HYDROGEN BONDS?    NO
Info: Using AMBER format force field!
Info: AMBER PARM FILE        mobley_9571888.prmtop
Info: COORDINATE PDB         mobley_9571888.pdb
Info: Exclusions will be read from PARM file!
Info: SCNB (VDW SCALING)     2
Info: USING ARITHMETIC MEAN TO COMBINE L-J SIGMA PARAMETERS
Info: BINARY COORDINATES     mobley_9571888_min.coor
Info: SUMMARY OF PARAMETERS:
Info: 12 BONDS
Info: 16 ANGLES
Info:   16 HARMONIC
Info:   0 COSINE-BASED
Info: 15 DIHEDRAL
Info: 0 IMPROPER
Info: 0 CROSSTERM
Info: 0 VDW
Info: 55 VDW_PAIRS
Info: 0 NBTHOLE_PAIRS
Info: STRUCTURE SUMMARY:
Info: 2947 ATOMS
Info: 2949 BONDS
Info: 53 ANGLES
Info: 120 DIHEDRALS
Info: 0 IMPROPERS
Info: 0 CROSSTERMS
Info: 3079 EXCLUSIONS
Info: 2928 RIGID BONDS
Info: 5913 DEGREES OF FREEDOM
Info: 993 HYDROGEN GROUPS
Info: 3 ATOMS IN LARGEST HYDROGEN GROUP
Info: 993 MIGRATION GROUPS
Info: 3 ATOMS IN LARGEST MIGRATION GROUP
Info: TOTAL MASS = 17954.5 amu
Info: TOTAL CHARGE = 7.17118e-08 e
Info: MASS DENSITY = 0.683983 g/cm^3
Info: ATOM DENSITY = 0.0676072 atoms/A^3
Info: ADDED 0 IMPLICIT EXCLUSIONS
Info: NONBONDED TABLE R-SQUARED SPACING: 0.0625
Info: NONBONDED TABLE SIZE: 705 POINTS
Info: REMOVING COM VELOCITY -0.0501907 0.0232678 -0.0388678
TCL: Running for 100000 steps
ETITLE: TS BOND ANGLE DIHED IMPRP ELECT VDW BOUNDARY MISC KINETIC TOTAL TEMP POTENTIAL TOTAL3 TEMPAVG PRESSURE GPRESSURE VOLUME PRESSAVG GPRESSAVG
ENERGY: 0 1.0518 40.5059 13.8633 0.0000 -13577.9695 2388.9730 0.0000 0.0000 1798.8257 -9334.7499 306.1763 -11133.5755 -9334.3707 306.1763 497.4942 533.8915 43590.0040 497.4942 533.8915
ENERGY: 100000 1.2452 41.6880 14.0424 0.0000 -14165.1858 2483.0911 0.0000 0.0000 178.6054 -11446.5136 30.4003 -11625.1190 -11446.1434 30.9363 380.5512 455.6052 28809.5902 3.9517 4.0273
TCL: Running 100000 steps at 60 kelvin.
TCL: Setting parameter langevinTemp to 60
TCL: Running for 100000 steps
ETITLE: TS BOND ANGLE DIHED IMPRP ELECT VDW BOUNDARY MISC KINETIC TOTAL TEMP POTENTIAL TOTAL3 TEMPAVG PRESSURE GPRESSURE VOLUME PRESSAVG GPRESSAVG
ENERGY: 100000 1.2452 41.6880 14.0424 0.0000 -14165.1858 2483.0911 0.0000 0.0000 178.5178 -11446.6013 30.3853 -11625.1190 -11446.2602 30.3853 402.4658 455.4595 28809.5902 402.4658 455.4595
ENERGY: 200000 2.9578 40.6003 14.7431 0.0000 -14028.3732 2412.2790 0.0000 0.0000 362.4844 -11195.3085 61.6981 -11557.7929 -11194.6988 59.9727 124.6625 197.6577 28785.9742 3.1182 3.1017
TCL: Running 100000 steps at 90 kelvin.
TCL: Setting parameter langevinTemp to 90
TCL: Running for 100000 steps
ETITLE: TS BOND ANGLE DIHED IMPRP ELECT VDW BOUNDARY MISC KINETIC TOTAL TEMP POTENTIAL TOTAL3 TEMPAVG PRESSURE GPRESSURE VOLUME PRESSAVG GPRESSAVG
ENERGY: 200000 2.9578 40.6003 14.7431 0.0000 -14028.3732 2412.2790 0.0000 0.0000 362.3053 -11195.4876 61.6676 -11557.7929 -11194.8489 61.6676 135.8205 197.4403 28785.9742 135.8205 197.4403
ENERGY: 300000 3.0954 44.1959 14.0074 0.0000 -13852.7425 2297.9398 0.0000 0.0000 523.0228 -10970.4813 89.0232 -11493.5040 -10968.2391 90.0268 -541.9640 -504.6117 28540.8063 6.2555 6.2150
TCL: Running 100000 steps at 120 kelvin.
TCL: Setting parameter langevinTemp to 120
TCL: Running for 100000 steps
ETITLE: TS BOND ANGLE DIHED IMPRP ELECT VDW BOUNDARY MISC KINETIC TOTAL TEMP POTENTIAL TOTAL3 TEMPAVG PRESSURE GPRESSURE VOLUME PRESSAVG GPRESSAVG
ENERGY: 300000 3.0954 44.1959 14.0074 0.0000 -13852.7425 2297.9398 0.0000 0.0000 522.7479 -10970.7562 88.9764 -11493.5040 -10969.5867 88.9764 -560.2077 -504.3058 28540.8063 -560.2077 -504.3058
ENERGY: 400000 2.4170 45.0646 14.0864 0.0000 -13786.7116 2349.9010 0.0000 0.0000 708.3348 -10666.9078 120.5649 -11375.2426 -10664.8597 119.8382 371.1842 433.4193 28704.4305 4.2671 4.3448
TCL: Running 100000 steps at 150 kelvin.
TCL: Setting parameter langevinTemp to 150
TCL: Running for 100000 steps
ETITLE: TS BOND ANGLE DIHED IMPRP ELECT VDW BOUNDARY MISC KINETIC TOTAL TEMP POTENTIAL TOTAL3 TEMPAVG PRESSURE GPRESSURE VOLUME PRESSAVG GPRESSAVG
ENERGY: 400000 2.4170 45.0646 14.0864 0.0000 -13786.7116 2349.9010 0.0000 0.0000 707.9690 -10667.2736 120.5027 -11375.2426 -10665.6292 120.5027 376.2364 433.6246 28704.4305 376.2364 433.6246
ENERGY: 500000 7.4932 44.1939 14.8608 0.0000 -13427.0868 2145.1975 0.0000 0.0000 851.0560 -10364.2855 144.8574 -11215.3415 -10361.9287 150.0195 -857.4145 -817.2325 28569.9292 2.4894 2.5099
TCL: Running 100000 steps at 180 kelvin.
TCL: Setting parameter langevinTemp to 180
TCL: Running for 100000 steps
ETITLE: TS BOND ANGLE DIHED IMPRP ELECT VDW BOUNDARY MISC KINETIC TOTAL TEMP POTENTIAL TOTAL3 TEMPAVG PRESSURE GPRESSURE VOLUME PRESSAVG GPRESSAVG
ENERGY: 500000 7.4932 44.1939 14.8608 0.0000 -13427.0868 2145.1975 0.0000 0.0000 850.6141 -10364.7274 144.7822 -11215.3415 -10363.1532 144.7822 -851.3438 -817.6961 28569.9292 -851.3438 -817.6961
ENERGY: 600000 5.6128 44.9257 14.4695 0.0000 -12989.2798 2035.7121 0.0000 0.0000 1069.2945 -9819.2652 182.0035 -10888.5597 -9817.9365 179.6463 -492.2174 -421.5963 29134.6545 4.9664 4.9149
TCL: Running 100000 steps at 210 kelvin.
TCL: Setting parameter langevinTemp to 210
TCL: Running for 100000 steps
ETITLE: TS BOND ANGLE DIHED IMPRP ELECT VDW BOUNDARY MISC KINETIC TOTAL TEMP POTENTIAL TOTAL3 TEMPAVG PRESSURE GPRESSURE VOLUME PRESSAVG GPRESSAVG
ENERGY: 600000 5.6128 44.9257 14.4695 0.0000 -12989.2798 2035.7121 0.0000 0.0000 1068.7571 -9819.8026 181.9121 -10888.5597 -9817.9912 181.9121 -483.1742 -422.5434 29134.6545 -483.1742 -422.5434
ENERGY: 700000 4.7443 49.6423 13.9774 0.0000 -12303.4643 1811.7611 0.0000 0.0000 1233.6584 -9189.6809 209.9798 -10423.3393 -9188.3287 209.9095 -734.0586 -693.3872 29063.0655 3.2711 3.2293
TCL: Running 100000 steps at 240 kelvin.
TCL: Setting parameter langevinTemp to 240
TCL: Running for 100000 steps
ETITLE: TS BOND ANGLE DIHED IMPRP ELECT VDW BOUNDARY MISC KINETIC TOTAL TEMP POTENTIAL TOTAL3 TEMPAVG PRESSURE GPRESSURE VOLUME PRESSAVG GPRESSAVG
ENERGY: 700000 4.7443 49.6423 13.9774 0.0000 -12303.4643 1811.7611 0.0000 0.0000 1233.0337 -9190.3056 209.8734 -10423.3393 -9187.8435 209.8734 -766.4879 -694.4255 29063.0655 -766.4879 -694.4255
ENERGY: 800000 8.2579 47.2204 14.0447 0.0000 -11775.4087 1730.7132 0.0000 0.0000 1424.3909 -8550.7816 242.4441 -9975.1725 -8546.3457 239.2995 180.5007 287.4925 29667.2496 4.3417 4.2592
TCL: Running 100000 steps at 270 kelvin.
TCL: Setting parameter langevinTemp to 270
TCL: Running for 100000 steps
ETITLE: TS BOND ANGLE DIHED IMPRP ELECT VDW BOUNDARY MISC KINETIC TOTAL TEMP POTENTIAL TOTAL3 TEMPAVG PRESSURE GPRESSURE VOLUME PRESSAVG GPRESSAVG
ENERGY: 800000 8.2579 47.2204 14.0447 0.0000 -11775.4087 1730.7132 0.0000 0.0000 1423.6916 -8551.4809 242.3251 -9975.1725 -8549.4627 242.3251 204.9920 289.6304 29667.2496 204.9920 289.6304
ENERGY: 900000 9.6539 54.1659 15.0642 0.0000 -11127.1414 1512.9171 0.0000 0.0000 1605.0451 -7930.2952 273.1931 -9535.3402 -7926.8137 269.7360 -512.6579 -485.6636 30368.9552 4.0340 4.0597
TCL: Running 1000000 steps at 300 kelvin.
TCL: Setting parameter langevinTemp to 300
TCL: Running for 1000000 steps
ETITLE: TS BOND ANGLE DIHED IMPRP ELECT VDW BOUNDARY MISC KINETIC TOTAL TEMP POTENTIAL TOTAL3 TEMPAVG PRESSURE GPRESSURE VOLUME PRESSAVG GPRESSAVG
ENERGY: 900000 9.6539 54.1659 15.0642 0.0000 -11127.1414 1512.9171 0.0000 0.0000 1604.2474 -7931.0928 273.0573 -9535.3402 -7928.6405 273.0573 -562.2368 -485.1612 30368.9552 -562.2368 -485.1612
ENERGY: 1100000 8.8070 50.7782 14.1735 0.0000 -10652.9475 1433.0281 0.0000 0.0000 1748.3334 -7397.8274 297.5821 -9146.1608 -7392.8863 300.3080 232.8949 295.5041 30309.0222 4.0711 3.8167
ENERGY: 1300000 6.3350 54.9703 15.8128 0.0000 -10655.6884 1379.4559 0.0000 0.0000 1788.7715 -7410.3430 304.4650 -9199.1144 -7405.2375 299.9618 -340.8675 -232.2114 30373.2702 2.5058 2.5713
ENERGY: 1500000 7.1250 57.9091 14.3753 0.0000 -10641.4511 1420.7776 0.0000 0.0000 1784.4295 -7356.8346 303.7259 -9141.2641 -7351.6536 299.6800 116.8242 140.3196 30434.7634 2.2801 2.2973
ENERGY: 1700000 8.8172 51.2364 13.6150 0.0000 -10671.5692 1387.5667 0.0000 0.0000 1812.3228 -7398.0111 308.4736 -9210.3339 -7395.3757 299.3205 65.9053 96.9479 29890.2463 2.8372 2.8467
ENERGY: 1900000 9.8605 49.0980 16.1031 0.0000 -10788.8120 1502.0387 0.0000 0.0000 1769.4617 -7442.2501 301.1783 -9211.7117 -7438.9733 299.9820 493.9702 552.1005 30270.2969 4.1864 4.0815
TCL: Exiting due to exit command.
