Info: SIMULATION PARAMETERS:
Info: TIMESTEP               2
Info: NUMBER OF STEPS        0
Info: STEPS PER CYCLE        10
Info: PERIODIC CELL BASIS 1  34.986 0 0
Info: PERIODIC CELL BASIS 2  0 35.779 0
Info: PERIODIC CELL BASIS 3  0 0 34.933
Info: PERIODIC CELL CENTER   0 0 0
Info: WRAPPING WATERS AROUND PERIODIC BOUNDARIES ON OUTPUT.
Info: WRAPPING ALL CLUSTERS AROUND PERIODIC BOUNDARIES ON OUTPUT.
Info: FIRST LDB TIMESTEP     50
Info: LAST LDB TIMESTEP     -1
Info: HOM BACKGROUND SCALING 1
Info: PME BACKGROUND SCALING 1
Info: MIN ATOMS PER PATCH    40
Info: EMPTY PATCH LOAD       40 ATOMS
Info: INITIAL TEMPERATURE    300
Info: CENTER OF MASS MOVING INITIALLY? NO
Info: DIELECTRIC             1
Info: EXCLUDE                SCALED ONE-FOUR
Info: 1-4 ELECTROSTATICS SCALED BY 0.833333
Info: MODIFIED 1-4 VDW PARAMETERS WILL BE USED
Info: DCD FILENAME           mobley_525934_equil.dcd
Info: DCD FREQUENCY          100000
Info: DCD FIRST STEP         100000
Info: DCD FILE WILL CONTAIN UNIT CELL DATA
Info: XST FILENAME           mobley_525934_equil.xst
Info: XST FREQUENCY          100000
Info: NO VELOCITY DCD OUTPUT
Info: NO FORCE DCD OUTPUT
Info: OUTPUT FILENAME        mobley_525934_equil
Info: BINARY OUTPUT FILES WILL BE USED
Info: RESTART FILENAME       mobley_525934_equil.restart
Info: RESTART FREQUENCY      100000
Info: BINARY RESTART FILES WILL BE USED
Info: CUTOFF                 9
Info: PAIRLIST DISTANCE      11
Info: PAIRLIST SHRINK RATE   0.01
Info: PAIRLIST GROW RATE     0.01
Info: PAIRLIST TRIGGER       0.3
Info: PAIRLISTS PER CYCLE    2
Info: PAIRLISTS ENABLED
Info: MARGIN                 8
Info: HYDROGEN GROUP CUTOFF  2.5
Info: PATCH DIMENSION        21.5
Info: ENERGY OUTPUT STEPS    100000
Info: ENERGY EVALUATION STEPS    100000
Info: OUTPUT ENERGY PRECISION 4
Info: CROSSTERM ENERGY INCLUDED IN DIHEDRAL
Info: TIMING OUTPUT STEPS    1000000
Info: PRESSURE OUTPUT STEPS  100000
Info: LANGEVIN DYNAMICS ACTIVE
Info: LANGEVIN TEMPERATURE   30
Info: LANGEVIN USING BBK INTEGRATOR
Info: LANGEVIN DAMPING COEFFICIENT IS 1 INVERSE PS
Info: LANGEVIN DYNAMICS APPLIED TO HYDROGENS
Info: LANGEVIN PISTON PRESSURE CONTROL ACTIVE
Info:        TARGET PRESSURE IS 1.01325 BAR
Info:     OSCILLATION PERIOD IS 50 FS
Info:             DECAY TIME IS 25 FS
Info:     PISTON TEMPERATURE IS 300 K
Info:       PRESSURE CONTROL IS GROUP-BASED
Info:    INITIAL STRAIN RATE IS 0 0 0
Info:       CELL FLUCTUATION IS ISOTROPIC
Info: PARTICLE MESH EWALD (PME) ACTIVE
Info: PME TOLERANCE               1e-06
Info: PME EWALD COEFFICIENT       0.348832
Info: PME INTERPOLATION ORDER     4
Info: PME GRID DIMENSIONS         36 36 36
Info: PME MAXIMUM GRID SPACING    1
Info: FULL ELECTROSTATIC EVALUATION FREQUENCY      2
Info: USING VERLET I (r-RESPA) MTS SCHEME.
Info: C1 SPLITTING OF LONG RANGE ELECTROSTATICS
Info: PLACING ATOMS IN PATCHES BY HYDROGEN GROUPS
Info: RIGID BONDS TO HYDROGEN : ALL
Info:         ERROR TOLERANCE : 1e-08
Info:          MAX ITERATIONS : 100
Info: RIGID WATER USING SETTLE ALGORITHM
Info: RANDOM NUMBER SEED     1743155873
Info: USE HYDROGEN BONDS?    NO
Info: Using AMBER format force field!
Info: AMBER PARM FILE        mobley_525934.prmtop
Info: COORDINATE PDB         mobley_525934.pdb
Info: Exclusions will be read from PARM file!
Info: SCNB (VDW SCALING)     2
Info: USING ARITHMETIC MEAN TO COMBINE L-J SIGMA PARAMETERS
Info: BINARY COORDINATES     mobley_525934_min.coor
Info: SUMMARY OF PARAMETERS:
Info: 5 BONDS
Info: 3 ANGLES
Info:   3 HARMONIC
Info:   0 COSINE-BASED
Info: 1 DIHEDRAL
Info: 0 IMPROPER
Info: 0 CROSSTERM
Info: 0 VDW
Info: 21 VDW_PAIRS
Info: 0 NBTHOLE_PAIRS
Info: STRUCTURE SUMMARY:
Info: 2904 ATOMS
Info: 2903 BONDS
Info: 7 ANGLES
Info: 3 DIHEDRALS
Info: 0 IMPROPERS
Info: 0 CROSSTERMS
Info: 2913 EXCLUSIONS
Info: 2902 RIGID BONDS
Info: 5810 DEGREES OF FREEDOM
Info: 968 HYDROGEN GROUPS
Info: 4 ATOMS IN LARGEST HYDROGEN GROUP
Info: 968 MIGRATION GROUPS
Info: 4 ATOMS IN LARGEST MIGRATION GROUP
Info: TOTAL MASS = 17451.6 amu
Info: TOTAL CHARGE = 1.86265e-08 e
Info: MASS DENSITY = 0.662728 g/cm^3
Info: ATOM DENSITY = 0.0664107 atoms/A^3
Info: ADDED 0 IMPLICIT EXCLUSIONS
Info: NONBONDED TABLE R-SQUARED SPACING: 0.0625
Info: NONBONDED TABLE SIZE: 705 POINTS
Info: REMOVING COM VELOCITY 0.0184299 0.0795231 0.039018
TCL: Running for 100000 steps
ETITLE: TS BOND ANGLE DIHED IMPRP ELECT VDW BOUNDARY MISC KINETIC TOTAL TEMP POTENTIAL TOTAL3 TEMPAVG PRESSURE GPRESSURE VOLUME PRESSAVG GPRESSAVG
ENERGY: 0 0.0029 0.0924 0.0021 0.0000 -13472.2419 2397.0046 0.0000 0.0000 1722.3226 -9352.8173 298.3519 -11075.1399 -9352.4607 298.3519 498.9238 532.6733 43727.8751 498.9238 532.6733
ENERGY: 100000 0.0045 0.1995 0.0042 0.0000 -13977.8497 2382.9536 0.0000 0.0000 168.2522 -11426.4356 29.1457 -11594.6879 -11426.2407 30.8822 -533.8167 -473.7751 28376.6630 3.7122 3.6674
TCL: Running 100000 steps at 60 kelvin.
TCL: Setting parameter langevinTemp to 60
TCL: Running for 100000 steps
ETITLE: TS BOND ANGLE DIHED IMPRP ELECT VDW BOUNDARY MISC KINETIC TOTAL TEMP POTENTIAL TOTAL3 TEMPAVG PRESSURE GPRESSURE VOLUME PRESSAVG GPRESSAVG
ENERGY: 100000 0.0045 0.1995 0.0042 0.0000 -13977.8497 2382.9536 0.0000 0.0000 168.1634 -11426.5245 29.1304 -11594.6879 -11426.2202 29.1304 -531.3069 -474.2241 28376.6630 -531.3069 -474.2241
ENERGY: 200000 0.0049 0.3964 1.1710 0.0000 -13961.9802 2456.6007 0.0000 0.0000 347.6692 -11156.1379 60.2255 -11503.8072 -11154.9993 59.9545 609.5889 643.4497 27974.9240 3.4345 3.4586
TCL: Running 100000 steps at 90 kelvin.
TCL: Setting parameter langevinTemp to 90
TCL: Running for 100000 steps
ETITLE: TS BOND ANGLE DIHED IMPRP ELECT VDW BOUNDARY MISC KINETIC TOTAL TEMP POTENTIAL TOTAL3 TEMPAVG PRESSURE GPRESSURE VOLUME PRESSAVG GPRESSAVG
ENERGY: 200000 0.0049 0.3964 1.1710 0.0000 -13961.9802 2456.6007 0.0000 0.0000 347.5068 -11156.3004 60.1974 -11503.8072 -11155.7017 60.1974 594.5611 644.1659 27974.9240 594.5611 644.1659
ENERGY: 300000 0.0244 0.4433 0.1896 0.0000 -13843.6575 2420.2397 0.0000 0.0000 493.0272 -10929.7334 85.4054 -11422.7606 -10927.9658 89.8593 578.8075 627.7587 28065.5409 5.9830 5.9971
TCL: Running 100000 steps at 120 kelvin.
TCL: Setting parameter langevinTemp to 120
TCL: Running for 100000 steps
ETITLE: TS BOND ANGLE DIHED IMPRP ELECT VDW BOUNDARY MISC KINETIC TOTAL TEMP POTENTIAL TOTAL3 TEMPAVG PRESSURE GPRESSURE VOLUME PRESSAVG GPRESSAVG
ENERGY: 300000 0.0244 0.4433 0.1896 0.0000 -13843.6575 2420.2397 0.0000 0.0000 492.7652 -10929.9955 85.3600 -11422.7606 -10929.0996 85.3600 580.4953 627.8141 28065.5409 580.4953 627.8141
ENERGY: 400000 0.0087 1.0183 0.0055 0.0000 -13595.3723 2310.7024 0.0000 0.0000 677.3804 -10606.2571 117.3402 -11283.6374 -10604.7706 119.9981 40.4439 66.6947 28363.3684 3.8855 3.8175
TCL: Running 100000 steps at 150 kelvin.
TCL: Setting parameter langevinTemp to 150
TCL: Running for 100000 steps
ETITLE: TS BOND ANGLE DIHED IMPRP ELECT VDW BOUNDARY MISC KINETIC TOTAL TEMP POTENTIAL TOTAL3 TEMPAVG PRESSURE GPRESSURE VOLUME PRESSAVG GPRESSAVG
ENERGY: 400000 0.0087 1.0183 0.0055 0.0000 -13595.3723 2310.7024 0.0000 0.0000 677.0337 -10606.6038 117.2802 -11283.6374 -10605.3194 117.2802 17.5683 67.0755 28363.3684 17.5683 67.0755
ENERGY: 500000 0.0300 0.5714 1.4801 0.0000 -13393.6315 2278.4275 0.0000 0.0000 867.0767 -10246.0459 150.2006 -11113.1226 -10244.2041 149.7950 513.9900 592.4230 28173.9097 3.4291 3.4870
TCL: Running 100000 steps at 180 kelvin.
TCL: Setting parameter langevinTemp to 180
TCL: Running for 100000 steps
ETITLE: TS BOND ANGLE DIHED IMPRP ELECT VDW BOUNDARY MISC KINETIC TOTAL TEMP POTENTIAL TOTAL3 TEMPAVG PRESSURE GPRESSURE VOLUME PRESSAVG GPRESSAVG
ENERGY: 500000 0.0300 0.5714 1.4801 0.0000 -13393.6315 2278.4275 0.0000 0.0000 866.6314 -10246.4912 150.1235 -11113.1226 -10244.2726 150.1235 526.4088 592.7524 28173.9097 526.4088 592.7524
ENERGY: 600000 0.4559 0.8147 0.8407 0.0000 -12836.1422 2025.1586 0.0000 0.0000 1065.3128 -9743.5594 184.5404 -10808.8722 -9741.3901 180.1900 -575.6958 -506.4354 28717.4484 5.1940 5.0411
TCL: Running 100000 steps at 210 kelvin.
TCL: Setting parameter langevinTemp to 210
TCL: Running for 100000 steps
ETITLE: TS BOND ANGLE DIHED IMPRP ELECT VDW BOUNDARY MISC KINETIC TOTAL TEMP POTENTIAL TOTAL3 TEMPAVG PRESSURE GPRESSURE VOLUME PRESSAVG GPRESSAVG
ENERGY: 600000 0.4559 0.8147 0.8407 0.0000 -12836.1422 2025.1586 0.0000 0.0000 1064.7926 -9744.0796 184.4503 -10808.8722 -9742.0692 184.4503 -561.3989 -505.9474 28717.4484 -561.3989 -505.9474
ENERGY: 700000 0.0441 1.0541 0.3065 0.0000 -12283.6972 1881.7253 0.0000 0.0000 1211.5281 -9189.0391 209.8687 -10400.5672 -9186.9906 209.6141 160.8904 203.0849 28160.6561 3.5905 3.5374
TCL: Running 100000 steps at 240 kelvin.
TCL: Setting parameter langevinTemp to 240
TCL: Running for 100000 steps
ETITLE: TS BOND ANGLE DIHED IMPRP ELECT VDW BOUNDARY MISC KINETIC TOTAL TEMP POTENTIAL TOTAL3 TEMPAVG PRESSURE GPRESSURE VOLUME PRESSAVG GPRESSAVG
ENERGY: 700000 0.0441 1.0541 0.3065 0.0000 -12283.6972 1881.7253 0.0000 0.0000 1210.9095 -9189.6578 209.7616 -10400.5672 -9187.7225 209.7616 132.3245 201.5930 28160.6561 132.3245 201.5930
ENERGY: 800000 0.1607 3.8170 0.5674 0.0000 -11681.7245 1716.5664 0.0000 0.0000 1400.0562 -8560.5568 242.5268 -9960.6130 -8557.9537 239.6512 119.3450 265.3860 28293.7497 1.9298 1.9806
TCL: Running 100000 steps at 270 kelvin.
TCL: Setting parameter langevinTemp to 270
TCL: Running for 100000 steps
ETITLE: TS BOND ANGLE DIHED IMPRP ELECT VDW BOUNDARY MISC KINETIC TOTAL TEMP POTENTIAL TOTAL3 TEMPAVG PRESSURE GPRESSURE VOLUME PRESSAVG GPRESSAVG
ENERGY: 800000 0.1607 3.8170 0.5674 0.0000 -11681.7245 1716.5664 0.0000 0.0000 1399.3729 -8561.2400 242.4084 -9960.6130 -8559.2029 242.4084 172.4768 264.4277 28293.7497 172.4768 264.4277
ENERGY: 900000 0.4378 1.2382 0.0827 0.0000 -11044.4473 1532.7122 0.0000 0.0000 1550.6030 -7959.3732 268.6055 -9509.9763 -7953.9644 270.6614 -230.8094 -199.2596 29226.6898 2.8692 2.9557
TCL: Running 1000000 steps at 300 kelvin.
TCL: Setting parameter langevinTemp to 300
TCL: Running for 1000000 steps
ETITLE: TS BOND ANGLE DIHED IMPRP ELECT VDW BOUNDARY MISC KINETIC TOTAL TEMP POTENTIAL TOTAL3 TEMPAVG PRESSURE GPRESSURE VOLUME PRESSAVG GPRESSAVG
ENERGY: 900000 0.4378 1.2382 0.0827 0.0000 -11044.4473 1532.7122 0.0000 0.0000 1549.8245 -7960.1517 268.4706 -9509.9763 -7957.9536 268.4706 -288.4432 -198.1124 29226.6898 -288.4432 -198.1124
ENERGY: 1100000 0.0025 1.0636 0.5124 0.0000 -10449.9325 1347.6102 0.0000 0.0000 1761.0133 -7339.7305 305.0541 -9100.7438 -7336.3089 300.5963 -656.5316 -538.2610 30118.8772 3.5621 3.4916
ENERGY: 1300000 0.1175 1.8958 1.2542 0.0000 -10620.3822 1466.0001 0.0000 0.0000 1689.8868 -7461.2278 292.7331 -9151.1146 -7457.2088 300.2432 340.8517 354.0697 29817.1160 3.2017 3.1841
ENERGY: 1500000 0.2661 2.6441 1.2079 0.0000 -10386.7404 1299.9974 0.0000 0.0000 1760.8375 -7321.7873 305.0237 -9082.6249 -7316.5327 299.8928 -929.3640 -852.5646 30036.3582 4.3047 4.1963
ENERGY: 1700000 0.2087 1.6709 0.2984 0.0000 -10584.7837 1428.5006 0.0000 0.0000 1792.2946 -7361.8105 310.4729 -9154.1051 -7358.5453 300.3415 170.1982 222.2804 29680.8582 2.9231 2.9572
ENERGY: 1900000 0.3864 1.9339 0.1452 0.0000 -10584.9282 1396.3550 0.0000 0.0000 1711.5517 -7474.5560 296.4861 -9186.1077 -7471.8021 300.4551 -585.2273 -553.1954 30321.4512 3.7343 3.5998
TCL: Exiting due to exit command.
