Info: SIMULATION PARAMETERS:
Info: TIMESTEP               2
Info: NUMBER OF STEPS        0
Info: STEPS PER CYCLE        10
Info: PERIODIC CELL BASIS 1  36.005 0 0
Info: PERIODIC CELL BASIS 2  0 34.26 0
Info: PERIODIC CELL BASIS 3  0 0 35.856
Info: PERIODIC CELL CENTER   0 0 0
Info: WRAPPING WATERS AROUND PERIODIC BOUNDARIES ON OUTPUT.
Info: WRAPPING ALL CLUSTERS AROUND PERIODIC BOUNDARIES ON OUTPUT.
Info: FIRST LDB TIMESTEP     50
Info: LAST LDB TIMESTEP     -1
Info: HOM BACKGROUND SCALING 1
Info: PME BACKGROUND SCALING 1
Info: MIN ATOMS PER PATCH    40
Info: EMPTY PATCH LOAD       40 ATOMS
Info: INITIAL TEMPERATURE    300
Info: CENTER OF MASS MOVING INITIALLY? NO
Info: DIELECTRIC             1
Info: EXCLUDE                SCALED ONE-FOUR
Info: 1-4 ELECTROSTATICS SCALED BY 0.833333
Info: MODIFIED 1-4 VDW PARAMETERS WILL BE USED
Info: DCD FILENAME           mobley_1821184_equil.dcd
Info: DCD FREQUENCY          100000
Info: DCD FIRST STEP         100000
Info: DCD FILE WILL CONTAIN UNIT CELL DATA
Info: XST FILENAME           mobley_1821184_equil.xst
Info: XST FREQUENCY          100000
Info: NO VELOCITY DCD OUTPUT
Info: NO FORCE DCD OUTPUT
Info: OUTPUT FILENAME        mobley_1821184_equil
Info: BINARY OUTPUT FILES WILL BE USED
Info: RESTART FILENAME       mobley_1821184_equil.restart
Info: RESTART FREQUENCY      100000
Info: BINARY RESTART FILES WILL BE USED
Info: CUTOFF                 9
Info: PAIRLIST DISTANCE      11
Info: PAIRLIST SHRINK RATE   0.01
Info: PAIRLIST GROW RATE     0.01
Info: PAIRLIST TRIGGER       0.3
Info: PAIRLISTS PER CYCLE    2
Info: PAIRLISTS ENABLED
Info: MARGIN                 8
Info: HYDROGEN GROUP CUTOFF  2.5
Info: PATCH DIMENSION        21.5
Info: ENERGY OUTPUT STEPS    100000
Info: ENERGY EVALUATION STEPS    100000
Info: OUTPUT ENERGY PRECISION 4
Info: CROSSTERM ENERGY INCLUDED IN DIHEDRAL
Info: TIMING OUTPUT STEPS    1000000
Info: PRESSURE OUTPUT STEPS  100000
Info: LANGEVIN DYNAMICS ACTIVE
Info: LANGEVIN TEMPERATURE   30
Info: LANGEVIN USING BBK INTEGRATOR
Info: LANGEVIN DAMPING COEFFICIENT IS 1 INVERSE PS
Info: LANGEVIN DYNAMICS APPLIED TO HYDROGENS
Info: LANGEVIN PISTON PRESSURE CONTROL ACTIVE
Info:        TARGET PRESSURE IS 1.01325 BAR
Info:     OSCILLATION PERIOD IS 50 FS
Info:             DECAY TIME IS 25 FS
Info:     PISTON TEMPERATURE IS 300 K
Info:       PRESSURE CONTROL IS GROUP-BASED
Info:    INITIAL STRAIN RATE IS 0 0 0
Info:       CELL FLUCTUATION IS ISOTROPIC
Info: PARTICLE MESH EWALD (PME) ACTIVE
Info: PME TOLERANCE               1e-06
Info: PME EWALD COEFFICIENT       0.348832
Info: PME INTERPOLATION ORDER     4
Info: PME GRID DIMENSIONS         40 36 36
Info: PME MAXIMUM GRID SPACING    1
Info: FULL ELECTROSTATIC EVALUATION FREQUENCY      2
Info: USING VERLET I (r-RESPA) MTS SCHEME.
Info: C1 SPLITTING OF LONG RANGE ELECTROSTATICS
Info: PLACING ATOMS IN PATCHES BY HYDROGEN GROUPS
Info: RIGID BONDS TO HYDROGEN : ALL
Info:         ERROR TOLERANCE : 1e-08
Info:          MAX ITERATIONS : 100
Info: RIGID WATER USING SETTLE ALGORITHM
Info: RANDOM NUMBER SEED     1743215621
Info: USE HYDROGEN BONDS?    NO
Info: Using AMBER format force field!
Info: AMBER PARM FILE        mobley_1821184.prmtop
Info: COORDINATE PDB         mobley_1821184.pdb
Info: Exclusions will be read from PARM file!
Info: SCNB (VDW SCALING)     2
Info: USING ARITHMETIC MEAN TO COMBINE L-J SIGMA PARAMETERS
Info: BINARY COORDINATES     mobley_1821184_min.coor
Info: SUMMARY OF PARAMETERS:
Info: 12 BONDS
Info: 15 ANGLES
Info:   15 HARMONIC
Info:   0 COSINE-BASED
Info: 7 DIHEDRAL
Info: 0 IMPROPER
Info: 0 CROSSTERM
Info: 0 VDW
Info: 45 VDW_PAIRS
Info: 0 NBTHOLE_PAIRS
Info: STRUCTURE SUMMARY:
Info: 2932 ATOMS
Info: 2933 BONDS
Info: 33 ANGLES
Info: 55 DIHEDRALS
Info: 0 IMPROPERS
Info: 0 CROSSTERMS
Info: 3004 EXCLUSIONS
Info: 2922 RIGID BONDS
Info: 5874 DEGREES OF FREEDOM
Info: 981 HYDROGEN GROUPS
Info: 4 ATOMS IN LARGEST HYDROGEN GROUP
Info: 981 MIGRATION GROUPS
Info: 4 ATOMS IN LARGEST MIGRATION GROUP
Info: TOTAL MASS = 17624.7 amu
Info: TOTAL CHARGE = 9.99868e-05 e
Info: MASS DENSITY = 0.661712 g/cm^3
Info: ATOM DENSITY = 0.0662906 atoms/A^3
Info: ADDED 0 IMPLICIT EXCLUSIONS
Info: NONBONDED TABLE R-SQUARED SPACING: 0.0625
Info: NONBONDED TABLE SIZE: 705 POINTS
Info: REMOVING COM VELOCITY -0.226853 0.0810124 -0.111774
TCL: Running for 100000 steps
ETITLE: TS BOND ANGLE DIHED IMPRP ELECT VDW BOUNDARY MISC KINETIC TOTAL TEMP POTENTIAL TOTAL3 TEMPAVG PRESSURE GPRESSURE VOLUME PRESSAVG GPRESSAVG
ENERGY: 0 1.2209 11.8543 0.0724 0.0000 -13554.1169 2405.9395 0.0000 0.0000 1696.7070 -9438.3227 290.7122 -11135.0297 -9438.0125 290.7122 496.8311 529.6290 44229.4983 496.8311 529.6290
ENERGY: 100000 1.5781 12.3769 0.5318 0.0000 -14208.5849 2512.0069 0.0000 0.0000 174.9550 -11507.1362 29.9766 -11682.0912 -11506.5903 30.8760 334.6726 367.6114 28588.1046 5.6912 5.6902
TCL: Running 100000 steps at 60 kelvin.
TCL: Setting parameter langevinTemp to 60
TCL: Running for 100000 steps
ETITLE: TS BOND ANGLE DIHED IMPRP ELECT VDW BOUNDARY MISC KINETIC TOTAL TEMP POTENTIAL TOTAL3 TEMPAVG PRESSURE GPRESSURE VOLUME PRESSAVG GPRESSAVG
ENERGY: 100000 1.5781 12.3769 0.5318 0.0000 -14208.5849 2512.0069 0.0000 0.0000 174.8686 -11507.2225 29.9618 -11682.0912 -11506.8419 29.9618 313.4962 367.6876 28588.1046 313.4962 367.6876
ENERGY: 200000 2.1332 12.4512 0.6796 0.0000 -14002.1704 2385.3143 0.0000 0.0000 339.5988 -11261.9932 58.1866 -11601.5920 -11261.2947 59.9040 -408.1449 -342.0873 28443.8976 5.4471 5.4873
TCL: Running 100000 steps at 90 kelvin.
TCL: Setting parameter langevinTemp to 90
TCL: Running for 100000 steps
ETITLE: TS BOND ANGLE DIHED IMPRP ELECT VDW BOUNDARY MISC KINETIC TOTAL TEMP POTENTIAL TOTAL3 TEMPAVG PRESSURE GPRESSURE VOLUME PRESSAVG GPRESSAVG
ENERGY: 200000 2.1332 12.4512 0.6796 0.0000 -14002.1704 2385.3143 0.0000 0.0000 339.4222 -11262.1699 58.1563 -11601.5920 -11261.5368 58.1563 -399.0329 -342.4667 28443.8976 -399.0329 -342.4667
ENERGY: 300000 1.7211 13.8348 0.5480 0.0000 -13892.5401 2358.8410 0.0000 0.0000 532.9207 -10984.6744 91.3101 -11517.5951 -10983.3889 90.1395 -183.7226 -157.3887 28420.8633 2.4796 2.5107
TCL: Running 100000 steps at 120 kelvin.
TCL: Setting parameter langevinTemp to 120
TCL: Running for 100000 steps
ETITLE: TS BOND ANGLE DIHED IMPRP ELECT VDW BOUNDARY MISC KINETIC TOTAL TEMP POTENTIAL TOTAL3 TEMPAVG PRESSURE GPRESSURE VOLUME PRESSAVG GPRESSAVG
ENERGY: 300000 1.7211 13.8348 0.5480 0.0000 -13892.5401 2358.8410 0.0000 0.0000 532.6577 -10984.9375 91.2651 -11517.5951 -10983.8633 91.2651 -212.1136 -157.0651 28420.8633 -212.1136 -157.0651
ENERGY: 400000 2.1930 14.6672 1.1038 0.0000 -13674.9427 2275.6433 0.0000 0.0000 709.5531 -10671.7823 121.5742 -11381.3354 -10670.7005 119.8534 -480.8223 -382.4019 28584.1671 3.5079 3.4014
TCL: Running 100000 steps at 150 kelvin.
TCL: Setting parameter langevinTemp to 150
TCL: Running for 100000 steps
ETITLE: TS BOND ANGLE DIHED IMPRP ELECT VDW BOUNDARY MISC KINETIC TOTAL TEMP POTENTIAL TOTAL3 TEMPAVG PRESSURE GPRESSURE VOLUME PRESSAVG GPRESSAVG
ENERGY: 400000 2.1930 14.6672 1.1038 0.0000 -13674.9427 2275.6433 0.0000 0.0000 709.2140 -10672.1214 121.5161 -11381.3354 -10670.5606 121.5161 -437.3970 -382.9753 28584.1671 -437.3970 -382.9753
ENERGY: 500000 4.1897 15.0565 1.8235 0.0000 -13452.9266 2241.7096 0.0000 0.0000 868.9151 -10321.2322 148.8791 -11190.1472 -10319.2467 149.9514 13.3612 68.2037 28697.1297 3.4415 3.5368
TCL: Running 100000 steps at 180 kelvin.
TCL: Setting parameter langevinTemp to 180
TCL: Running for 100000 steps
ETITLE: TS BOND ANGLE DIHED IMPRP ELECT VDW BOUNDARY MISC KINETIC TOTAL TEMP POTENTIAL TOTAL3 TEMPAVG PRESSURE GPRESSURE VOLUME PRESSAVG GPRESSAVG
ENERGY: 500000 4.1897 15.0565 1.8235 0.0000 -13452.9266 2241.7096 0.0000 0.0000 868.4968 -10321.6504 148.8075 -11190.1472 -10320.2429 148.8075 13.8908 67.3080 28697.1297 13.8908 67.3080
ENERGY: 600000 2.5366 17.9309 2.9564 0.0000 -13046.2224 2127.1237 0.0000 0.0000 1041.7860 -9853.8889 178.4987 -10895.6749 -9851.9297 179.9533 224.7500 293.5000 28566.9490 3.5885 3.7332
TCL: Running 100000 steps at 210 kelvin.
TCL: Setting parameter langevinTemp to 210
TCL: Running for 100000 steps
ETITLE: TS BOND ANGLE DIHED IMPRP ELECT VDW BOUNDARY MISC KINETIC TOTAL TEMP POTENTIAL TOTAL3 TEMPAVG PRESSURE GPRESSURE VOLUME PRESSAVG GPRESSAVG
ENERGY: 600000 2.5366 17.9309 2.9564 0.0000 -13046.2224 2127.1237 0.0000 0.0000 1041.2438 -9854.4311 178.4058 -10895.6749 -9852.5165 178.4058 233.2729 292.2983 28566.9490 233.2729 292.2983
ENERGY: 700000 2.2472 16.0093 2.2368 0.0000 -12388.5045 1909.9614 0.0000 0.0000 1236.5833 -9221.4665 211.8750 -10458.0498 -9218.8546 210.3950 15.4197 114.8059 28578.1316 3.7245 3.6546
TCL: Running 100000 steps at 240 kelvin.
TCL: Setting parameter langevinTemp to 240
TCL: Running for 100000 steps
ETITLE: TS BOND ANGLE DIHED IMPRP ELECT VDW BOUNDARY MISC KINETIC TOTAL TEMP POTENTIAL TOTAL3 TEMPAVG PRESSURE GPRESSURE VOLUME PRESSAVG GPRESSAVG
ENERGY: 700000 2.2472 16.0093 2.2368 0.0000 -12388.5045 1909.9614 0.0000 0.0000 1235.9438 -9222.1060 211.7655 -10458.0498 -9220.0418 211.7655 25.9567 114.1194 28578.1316 25.9567 114.1194
ENERGY: 800000 5.8860 12.9301 5.2245 0.0000 -11639.4417 1673.3345 0.0000 0.0000 1391.2256 -8550.8411 238.3713 -9942.0667 -8548.2381 239.8984 -476.4148 -394.1781 29365.3399 4.2071 3.9706
TCL: Running 100000 steps at 270 kelvin.
TCL: Setting parameter langevinTemp to 270
TCL: Running for 100000 steps
ETITLE: TS BOND ANGLE DIHED IMPRP ELECT VDW BOUNDARY MISC KINETIC TOTAL TEMP POTENTIAL TOTAL3 TEMPAVG PRESSURE GPRESSURE VOLUME PRESSAVG GPRESSAVG
ENERGY: 800000 5.8860 12.9301 5.2245 0.0000 -11639.4417 1673.3345 0.0000 0.0000 1390.5506 -8551.5161 238.2557 -9942.0667 -8549.1230 238.2557 -472.1010 -396.4486 29365.3399 -472.1010 -396.4486
ENERGY: 900000 1.7576 19.2601 4.9931 0.0000 -11116.8741 1561.2706 0.0000 0.0000 1603.0966 -7926.4962 274.6731 -9529.5928 -7924.6486 269.5844 -206.6505 -78.6567 29942.3232 2.4286 2.3532
TCL: Running 1000000 steps at 300 kelvin.
TCL: Setting parameter langevinTemp to 300
TCL: Running for 1000000 steps
ETITLE: TS BOND ANGLE DIHED IMPRP ELECT VDW BOUNDARY MISC KINETIC TOTAL TEMP POTENTIAL TOTAL3 TEMPAVG PRESSURE GPRESSURE VOLUME PRESSAVG GPRESSAVG
ENERGY: 900000 1.7576 19.2601 4.9931 0.0000 -11116.8741 1561.2706 0.0000 0.0000 1602.3413 -7927.2515 274.5437 -9529.5928 -7925.3055 274.5437 -165.1094 -77.7569 29942.3232 -165.1094 -77.7569
ENERGY: 1100000 5.6289 14.5402 5.8147 0.0000 -10475.0152 1365.8374 0.0000 0.0000 1762.0914 -7321.1026 301.9151 -9083.1940 -7317.0480 299.6081 -410.5633 -332.1712 30679.7081 3.1378 3.1292
ENERGY: 1300000 4.8713 16.2617 4.5859 0.0000 -10647.2133 1423.8098 0.0000 0.0000 1719.1634 -7478.5213 294.5599 -9197.6847 -7472.4957 299.9969 42.4036 79.4823 29812.5446 3.6644 3.5448
ENERGY: 1500000 3.2854 15.4736 2.1711 0.0000 -10559.2819 1382.7093 0.0000 0.0000 1835.4238 -7320.2187 314.4798 -9155.6425 -7318.5773 300.5875 -301.9589 -215.2959 30307.6299 3.2498 3.2176
ENERGY: 1700000 6.1393 18.0971 6.6008 0.0000 -10681.4918 1463.4529 0.0000 0.0000 1772.9326 -7414.2691 303.7727 -9187.2018 -7409.7048 299.9006 22.2656 167.4232 30108.1279 2.4588 2.4182
ENERGY: 1900000 3.3712 19.9045 6.4239 0.0000 -10692.0257 1454.9141 0.0000 0.0000 1760.4397 -7446.9722 301.6321 -9207.4119 -7446.4777 300.1490 219.5842 337.6585 30035.3407 3.8951 4.0120
TCL: Exiting due to exit command.
