Info: SIMULATION PARAMETERS:
Info: TIMESTEP               2
Info: NUMBER OF STEPS        0
Info: STEPS PER CYCLE        10
Info: PERIODIC CELL BASIS 1  36.005 0 0
Info: PERIODIC CELL BASIS 2  0 34.1 0
Info: PERIODIC CELL BASIS 3  0 0 36.488
Info: PERIODIC CELL CENTER   0 0 0
Info: WRAPPING WATERS AROUND PERIODIC BOUNDARIES ON OUTPUT.
Info: WRAPPING ALL CLUSTERS AROUND PERIODIC BOUNDARIES ON OUTPUT.
Info: FIRST LDB TIMESTEP     50
Info: LAST LDB TIMESTEP     -1
Info: HOM BACKGROUND SCALING 1
Info: PME BACKGROUND SCALING 1
Info: MIN ATOMS PER PATCH    40
Info: EMPTY PATCH LOAD       40 ATOMS
Info: INITIAL TEMPERATURE    300
Info: CENTER OF MASS MOVING INITIALLY? NO
Info: DIELECTRIC             1
Info: EXCLUDE                SCALED ONE-FOUR
Info: 1-4 ELECTROSTATICS SCALED BY 0.833333
Info: MODIFIED 1-4 VDW PARAMETERS WILL BE USED
Info: DCD FILENAME           mobley_5571660_equil.dcd
Info: DCD FREQUENCY          100000
Info: DCD FIRST STEP         100000
Info: DCD FILE WILL CONTAIN UNIT CELL DATA
Info: XST FILENAME           mobley_5571660_equil.xst
Info: XST FREQUENCY          100000
Info: NO VELOCITY DCD OUTPUT
Info: NO FORCE DCD OUTPUT
Info: OUTPUT FILENAME        mobley_5571660_equil
Info: BINARY OUTPUT FILES WILL BE USED
Info: RESTART FILENAME       mobley_5571660_equil.restart
Info: RESTART FREQUENCY      100000
Info: BINARY RESTART FILES WILL BE USED
Info: CUTOFF                 9
Info: PAIRLIST DISTANCE      11
Info: PAIRLIST SHRINK RATE   0.01
Info: PAIRLIST GROW RATE     0.01
Info: PAIRLIST TRIGGER       0.3
Info: PAIRLISTS PER CYCLE    2
Info: PAIRLISTS ENABLED
Info: MARGIN                 8
Info: HYDROGEN GROUP CUTOFF  2.5
Info: PATCH DIMENSION        21.5
Info: ENERGY OUTPUT STEPS    100000
Info: ENERGY EVALUATION STEPS    100000
Info: OUTPUT ENERGY PRECISION 4
Info: CROSSTERM ENERGY INCLUDED IN DIHEDRAL
Info: TIMING OUTPUT STEPS    1000000
Info: PRESSURE OUTPUT STEPS  100000
Info: LANGEVIN DYNAMICS ACTIVE
Info: LANGEVIN TEMPERATURE   30
Info: LANGEVIN USING BBK INTEGRATOR
Info: LANGEVIN DAMPING COEFFICIENT IS 1 INVERSE PS
Info: LANGEVIN DYNAMICS APPLIED TO HYDROGENS
Info: LANGEVIN PISTON PRESSURE CONTROL ACTIVE
Info:        TARGET PRESSURE IS 1.01325 BAR
Info:     OSCILLATION PERIOD IS 50 FS
Info:             DECAY TIME IS 25 FS
Info:     PISTON TEMPERATURE IS 300 K
Info:       PRESSURE CONTROL IS GROUP-BASED
Info:    INITIAL STRAIN RATE IS 0 0 0
Info:       CELL FLUCTUATION IS ISOTROPIC
Info: PARTICLE MESH EWALD (PME) ACTIVE
Info: PME TOLERANCE               1e-06
Info: PME EWALD COEFFICIENT       0.348832
Info: PME INTERPOLATION ORDER     4
Info: PME GRID DIMENSIONS         40 36 40
Info: PME MAXIMUM GRID SPACING    1
Info: FULL ELECTROSTATIC EVALUATION FREQUENCY      2
Info: USING VERLET I (r-RESPA) MTS SCHEME.
Info: C1 SPLITTING OF LONG RANGE ELECTROSTATICS
Info: PLACING ATOMS IN PATCHES BY HYDROGEN GROUPS
Info: RIGID BONDS TO HYDROGEN : ALL
Info:         ERROR TOLERANCE : 1e-08
Info:          MAX ITERATIONS : 100
Info: RIGID WATER USING SETTLE ALGORITHM
Info: RANDOM NUMBER SEED     1743217732
Info: USE HYDROGEN BONDS?    NO
Info: Using AMBER format force field!
Info: AMBER PARM FILE        mobley_5571660.prmtop
Info: COORDINATE PDB         mobley_5571660.pdb
Info: Exclusions will be read from PARM file!
Info: SCNB (VDW SCALING)     2
Info: USING ARITHMETIC MEAN TO COMBINE L-J SIGMA PARAMETERS
Info: BINARY COORDINATES     mobley_5571660_min.coor
Info: SUMMARY OF PARAMETERS:
Info: 8 BONDS
Info: 8 ANGLES
Info:   8 HARMONIC
Info:   0 COSINE-BASED
Info: 4 DIHEDRAL
Info: 0 IMPROPER
Info: 0 CROSSTERM
Info: 0 VDW
Info: 36 VDW_PAIRS
Info: 0 NBTHOLE_PAIRS
Info: STRUCTURE SUMMARY:
Info: 2987 ATOMS
Info: 2987 BONDS
Info: 33 ANGLES
Info: 47 DIHEDRALS
Info: 0 IMPROPERS
Info: 0 CROSSTERMS
Info: 3057 EXCLUSIONS
Info: 2978 RIGID BONDS
Info: 5983 DEGREES OF FREEDOM
Info: 998 HYDROGEN GROUPS
Info: 4 ATOMS IN LARGEST HYDROGEN GROUP
Info: 998 MIGRATION GROUPS
Info: 4 ATOMS IN LARGEST MIGRATION GROUP
Info: TOTAL MASS = 17939 amu
Info: TOTAL CHARGE = -9.99719e-05 e
Info: MASS DENSITY = 0.664952 g/cm^3
Info: ATOM DENSITY = 0.0666758 atoms/A^3
Info: ADDED 0 IMPLICIT EXCLUSIONS
Info: NONBONDED TABLE R-SQUARED SPACING: 0.0625
Info: NONBONDED TABLE SIZE: 705 POINTS
Info: REMOVING COM VELOCITY -0.103953 -0.0547738 0.0223847
TCL: Running for 100000 steps
ETITLE: TS BOND ANGLE DIHED IMPRP ELECT VDW BOUNDARY MISC KINETIC TOTAL TEMP POTENTIAL TOTAL3 TEMPAVG PRESSURE GPRESSURE VOLUME PRESSAVG GPRESSAVG
ENERGY: 0 0.2600 0.3818 1.8786 0.0000 -13864.5943 2447.9532 0.0000 0.0000 1788.7715 -9625.3492 300.9028 -11414.1207 -9624.9890 300.9028 536.8996 566.1961 44798.8900 536.8996 566.1961
ENERGY: 100000 0.9601 0.6556 2.3170 0.0000 -14295.1351 2390.1943 0.0000 0.0000 176.6528 -11724.3554 29.7161 -11901.0082 -11723.7614 30.8979 -1032.8138 -964.5383 29208.6280 3.7071 3.7314
TCL: Running 100000 steps at 60 kelvin.
TCL: Setting parameter langevinTemp to 60
TCL: Running for 100000 steps
ETITLE: TS BOND ANGLE DIHED IMPRP ELECT VDW BOUNDARY MISC KINETIC TOTAL TEMP POTENTIAL TOTAL3 TEMPAVG PRESSURE GPRESSURE VOLUME PRESSAVG GPRESSAVG
ENERGY: 100000 0.9601 0.6556 2.3170 0.0000 -14295.1351 2390.1943 0.0000 0.0000 176.5648 -11724.4434 29.7013 -11901.0082 -11723.9590 29.7013 -1036.7992 -964.4061 29208.6280 -1036.7992 -964.4061
ENERGY: 200000 0.6512 1.7477 2.2321 0.0000 -14319.4473 2464.2902 0.0000 0.0000 351.8339 -11498.6922 59.1847 -11850.5261 -11497.8744 60.0671 -167.7946 -119.0576 29114.4340 4.7570 4.7561
TCL: Running 100000 steps at 90 kelvin.
TCL: Setting parameter langevinTemp to 90
TCL: Running for 100000 steps
ETITLE: TS BOND ANGLE DIHED IMPRP ELECT VDW BOUNDARY MISC KINETIC TOTAL TEMP POTENTIAL TOTAL3 TEMPAVG PRESSURE GPRESSURE VOLUME PRESSAVG GPRESSAVG
ENERGY: 200000 0.6512 1.7477 2.2321 0.0000 -14319.4473 2464.2902 0.0000 0.0000 351.6555 -11498.8706 59.1546 -11850.5261 -11498.1860 59.1546 -176.9781 -118.9387 29114.4340 -176.9781 -118.9387
ENERGY: 300000 0.9603 1.2623 2.9314 0.0000 -14161.0213 2451.9267 0.0000 0.0000 527.0865 -11176.8541 88.6652 -11703.9406 -11175.7003 89.9590 224.0303 307.2709 29198.9983 5.0633 5.0067
TCL: Running 100000 steps at 120 kelvin.
TCL: Setting parameter langevinTemp to 120
TCL: Running for 100000 steps
ETITLE: TS BOND ANGLE DIHED IMPRP ELECT VDW BOUNDARY MISC KINETIC TOTAL TEMP POTENTIAL TOTAL3 TEMPAVG PRESSURE GPRESSURE VOLUME PRESSAVG GPRESSAVG
ENERGY: 300000 0.9603 1.2623 2.9314 0.0000 -14161.0213 2451.9267 0.0000 0.0000 526.8193 -11177.1214 88.6203 -11703.9406 -11175.8324 88.6203 263.8159 306.7194 29198.9983 263.8159 306.7194
ENERGY: 400000 2.0169 3.1300 4.2017 0.0000 -13964.5669 2385.3412 0.0000 0.0000 728.8788 -10840.9983 122.6102 -11569.8771 -10838.7105 119.7981 379.1040 407.9901 29017.8585 3.7040 3.8164
TCL: Running 100000 steps at 150 kelvin.
TCL: Setting parameter langevinTemp to 150
TCL: Running for 100000 steps
ETITLE: TS BOND ANGLE DIHED IMPRP ELECT VDW BOUNDARY MISC KINETIC TOTAL TEMP POTENTIAL TOTAL3 TEMPAVG PRESSURE GPRESSURE VOLUME PRESSAVG GPRESSAVG
ENERGY: 400000 2.0169 3.1300 4.2017 0.0000 -13964.5669 2385.3412 0.0000 0.0000 728.5227 -10841.3545 122.5503 -11569.8771 -10840.0723 122.5503 358.7410 408.6878 29017.8585 358.7410 408.6878
ENERGY: 500000 1.7107 4.1283 3.4065 0.0000 -13588.9941 2173.4002 0.0000 0.0000 908.9542 -10497.3943 152.9021 -11406.3484 -10494.6006 149.8645 -882.0950 -815.4740 29211.9307 2.9635 2.8370
TCL: Running 100000 steps at 180 kelvin.
TCL: Setting parameter langevinTemp to 180
TCL: Running for 100000 steps
ETITLE: TS BOND ANGLE DIHED IMPRP ELECT VDW BOUNDARY MISC KINETIC TOTAL TEMP POTENTIAL TOTAL3 TEMPAVG PRESSURE GPRESSURE VOLUME PRESSAVG GPRESSAVG
ENERGY: 500000 1.7107 4.1283 3.4065 0.0000 -13588.9941 2173.4002 0.0000 0.0000 908.5190 -10497.8295 152.8289 -11406.3484 -10495.6414 152.8289 -874.9680 -815.1033 29211.9307 -874.9680 -815.1033
ENERGY: 600000 1.1898 7.5861 2.2014 0.0000 -13103.3534 2020.5533 0.0000 0.0000 1044.6459 -10027.1770 175.7278 -11071.8229 -10024.1376 180.0154 -680.9982 -597.6551 28972.5616 4.6497 4.6009
TCL: Running 100000 steps at 210 kelvin.
TCL: Setting parameter langevinTemp to 210
TCL: Running for 100000 steps
ETITLE: TS BOND ANGLE DIHED IMPRP ELECT VDW BOUNDARY MISC KINETIC TOTAL TEMP POTENTIAL TOTAL3 TEMPAVG PRESSURE GPRESSURE VOLUME PRESSAVG GPRESSAVG
ENERGY: 600000 1.1898 7.5861 2.2014 0.0000 -13103.3534 2020.5533 0.0000 0.0000 1044.1336 -10027.6893 175.6416 -11071.8229 -10025.4091 175.6416 -665.6626 -597.3735 28972.5616 -665.6626 -597.3735
ENERGY: 700000 1.6985 5.0683 3.1839 0.0000 -12587.4231 1974.5890 0.0000 0.0000 1234.2418 -9368.6415 207.6212 -10602.8833 -9365.3726 209.7821 482.5543 514.8806 29198.4706 4.3005 4.1980
TCL: Running 100000 steps at 240 kelvin.
TCL: Setting parameter langevinTemp to 240
TCL: Running for 100000 steps
ETITLE: TS BOND ANGLE DIHED IMPRP ELECT VDW BOUNDARY MISC KINETIC TOTAL TEMP POTENTIAL TOTAL3 TEMPAVG PRESSURE GPRESSURE VOLUME PRESSAVG GPRESSAVG
ENERGY: 700000 1.6985 5.0683 3.1839 0.0000 -12587.4231 1974.5890 0.0000 0.0000 1233.6118 -9369.2715 207.5152 -10602.8833 -9367.8150 207.5152 443.2490 515.9847 29198.4706 443.2490 515.9847
ENERGY: 800000 1.8445 4.5275 2.1926 0.0000 -11979.2128 1748.9597 0.0000 0.0000 1427.0622 -8794.6263 240.0569 -10221.6885 -8791.0783 239.3999 -49.6574 23.5722 29351.9563 4.4317 4.5825
TCL: Running 100000 steps at 270 kelvin.
TCL: Setting parameter langevinTemp to 270
TCL: Running for 100000 steps
ETITLE: TS BOND ANGLE DIHED IMPRP ELECT VDW BOUNDARY MISC KINETIC TOTAL TEMP POTENTIAL TOTAL3 TEMPAVG PRESSURE GPRESSURE VOLUME PRESSAVG GPRESSAVG
ENERGY: 800000 1.8445 4.5275 2.1926 0.0000 -11979.2128 1748.9597 0.0000 0.0000 1426.3761 -8795.3124 239.9415 -10221.6885 -8793.7378 239.9415 -58.4838 24.6045 29351.9563 -58.4838 24.6045
ENERGY: 900000 2.5347 6.4679 3.2567 0.0000 -11332.6886 1509.2744 0.0000 0.0000 1605.4928 -8205.6620 270.0721 -9811.1548 -8203.4842 269.9075 -658.9133 -593.0266 29942.9071 3.7278 3.6860
TCL: Running 1000000 steps at 300 kelvin.
TCL: Setting parameter langevinTemp to 300
TCL: Running for 1000000 steps
ETITLE: TS BOND ANGLE DIHED IMPRP ELECT VDW BOUNDARY MISC KINETIC TOTAL TEMP POTENTIAL TOTAL3 TEMPAVG PRESSURE GPRESSURE VOLUME PRESSAVG GPRESSAVG
ENERGY: 900000 2.5347 6.4679 3.2567 0.0000 -11332.6886 1509.2744 0.0000 0.0000 1604.7007 -8206.4541 269.9389 -9811.1548 -8203.3823 269.9389 -687.3875 -595.7437 29942.9071 -687.3875 -595.7437
ENERGY: 1100000 3.7732 7.5887 5.2823 0.0000 -10861.8573 1479.7473 0.0000 0.0000 1762.3299 -7603.1358 296.4549 -9365.4657 -7598.9790 300.6769 -35.5517 82.3368 30994.0630 2.4687 2.6077
ENERGY: 1300000 1.2236 7.3268 2.7065 0.0000 -10845.9274 1418.6740 0.0000 0.0000 1772.8663 -7643.1302 298.2273 -9415.9965 -7639.5238 300.2595 -649.1175 -537.3439 31083.8974 2.2833 2.3819
ENERGY: 1500000 3.7611 5.9864 1.6594 0.0000 -10775.5241 1437.1510 0.0000 0.0000 1787.9756 -7538.9907 300.7689 -9326.9663 -7534.4994 300.2239 -182.8775 -133.6327 31079.4635 2.0294 1.8733
ENERGY: 1700000 2.9605 4.4307 3.6094 0.0000 -10836.7374 1468.8051 0.0000 0.0000 1758.0730 -7598.8587 295.7388 -9356.9317 -7596.3658 299.7534 489.4255 593.6909 30270.9969 3.0227 3.1202
ENERGY: 1900000 5.2782 8.2435 6.2338 0.0000 -10728.1313 1386.0897 0.0000 0.0000 1780.7446 -7541.5416 299.5525 -9322.2862 -7539.0151 299.8307 -404.2304 -395.5139 30874.6826 2.8480 2.7781
TCL: Exiting due to exit command.
