Info: SIMULATION PARAMETERS:
Info: TIMESTEP               2
Info: NUMBER OF STEPS        0
Info: STEPS PER CYCLE        10
Info: PERIODIC CELL BASIS 1  30.9773 0 0
Info: PERIODIC CELL BASIS 2  0 31.2047 0
Info: PERIODIC CELL BASIS 3  0 0 31.6082
Info: PERIODIC CELL CENTER   0 0 0
Info: WRAPPING WATERS AROUND PERIODIC BOUNDARIES ON OUTPUT.
Info: WRAPPING ALL CLUSTERS AROUND PERIODIC BOUNDARIES ON OUTPUT.
Info: FIRST LDB TIMESTEP     50
Info: LAST LDB TIMESTEP     -1
Info: HOM BACKGROUND SCALING 1
Info: PME BACKGROUND SCALING 1
Info: MIN ATOMS PER PATCH    40
Info: EMPTY PATCH LOAD       40 ATOMS
Info: VELOCITY FILE          mobley_4434915_equil.vel
Info: CENTER OF MASS MOVING INITIALLY? NO
Info: DIELECTRIC             1
Info: EXCLUDE                SCALED ONE-FOUR
Info: 1-4 ELECTROSTATICS SCALED BY 0.833333
Info: MODIFIED 1-4 VDW PARAMETERS WILL BE USED
Info: DCD FILENAME           mobley_4434915_prod.dcd
Info: DCD FREQUENCY          100000
Info: DCD FIRST STEP         100000
Info: DCD FILE WILL CONTAIN UNIT CELL DATA
Info: XST FILENAME           mobley_4434915_prod.xst
Info: XST FREQUENCY          100000
Info: NO VELOCITY DCD OUTPUT
Info: NO FORCE DCD OUTPUT
Info: OUTPUT FILENAME        mobley_4434915_prod
Info: BINARY OUTPUT FILES WILL BE USED
Info: RESTART FILENAME       mobley_4434915_prod.restart
Info: RESTART FREQUENCY      100000
Info: BINARY RESTART FILES WILL BE USED
Info: CUTOFF                 9
Info: PAIRLIST DISTANCE      11
Info: PAIRLIST SHRINK RATE   0.01
Info: PAIRLIST GROW RATE     0.01
Info: PAIRLIST TRIGGER       0.3
Info: PAIRLISTS PER CYCLE    2
Info: PAIRLISTS ENABLED
Info: MARGIN                 2
Info: HYDROGEN GROUP CUTOFF  2.5
Info: PATCH DIMENSION        15.5
Info: ENERGY OUTPUT STEPS    100000
Info: ENERGY EVALUATION STEPS    100000
Info: OUTPUT ENERGY PRECISION 4
Info: CROSSTERM ENERGY INCLUDED IN DIHEDRAL
Info: TIMING OUTPUT STEPS    1000000
Info: PRESSURE OUTPUT STEPS  100000
Info: ALCHEMICAL FEP ON
Info: FEP CURRENT LAMBDA VALUE     0
Info: FEP COMPARISON LAMBDA VALUE  0.05
Info: FEP INTRA-ALCHEMICAL NON-BONDED INTERACTIONS WILL BE RETAINED
Info: FEP INTRA-ALCHEMICAL BONDED INTERACTIONS WILL BE RETAINED
Info: FEP VDW SHIFTING COEFFICIENT 5
Info: FEP ELEC. ACTIVE FOR ANNIHILATED PARTICLES BETWEEN LAMBDA = 0 AND LAMBDA = 0.5
Info: FEP ELEC. ACTIVE FOR EXNIHILATED PARTICLES BETWEEN LAMBDA = 0.5 AND LAMBDA = 1
Info: FEP VDW ACTIVE FOR ANNIHILATED PARTICLES BETWEEN LAMBDA = 0 AND LAMBDA = 1
Info: FEP VDW ACTIVE FOR EXNIHILATED PARTICLES BETWEEN LAMBDA = 0 AND LAMBDA = 1
Info: FEP BOND ACTIVE FOR ANNIHILATED PARTICLES BETWEEN LAMBDA = 1 AND LAMBDA = 1
Info: FEP BOND ACTIVE FOR EXNIHILATED PARTICLES BETWEEN LAMBDA = 0 AND LAMBDA = 0
Info: LANGEVIN DYNAMICS ACTIVE
Info: LANGEVIN TEMPERATURE   300
Info: LANGEVIN USING BBK INTEGRATOR
Info: LANGEVIN DAMPING COEFFICIENT IS 1 INVERSE PS
Info: LANGEVIN DYNAMICS APPLIED TO HYDROGENS
Info: LANGEVIN PISTON PRESSURE CONTROL ACTIVE
Info:        TARGET PRESSURE IS 1.01325 BAR
Info:     OSCILLATION PERIOD IS 50 FS
Info:             DECAY TIME IS 25 FS
Info:     PISTON TEMPERATURE IS 300 K
Info:       PRESSURE CONTROL IS GROUP-BASED
Info:    INITIAL STRAIN RATE IS 0.000807287 0.000807287 0.000807287
Info:       CELL FLUCTUATION IS ISOTROPIC
Info: PARTICLE MESH EWALD (PME) ACTIVE
Info: PME TOLERANCE               1e-06
Info: PME EWALD COEFFICIENT       0.348832
Info: PME INTERPOLATION ORDER     4
Info: PME GRID DIMENSIONS         32 32 32
Info: PME MAXIMUM GRID SPACING    1
Info: PME CALCULATION WILL BE PERFORMED ON GPU
Info: FULL ELECTROSTATIC EVALUATION FREQUENCY      2
Info: USING VERLET I (r-RESPA) MTS SCHEME.
Info: C1 SPLITTING OF LONG RANGE ELECTROSTATICS
Info: PLACING ATOMS IN PATCHES BY HYDROGEN GROUPS
Info: RIGID BONDS TO HYDROGEN : ALL
Info:         ERROR TOLERANCE : 1e-08
Info:          MAX ITERATIONS : 100
Info: RIGID WATER USING SETTLE ALGORITHM
Info: RANDOM NUMBER SEED     1743390634
Info: USE HYDROGEN BONDS?    NO
Info: Using AMBER format force field!
Info: AMBER PARM FILE        mobley_4434915.prmtop
Info: COORDINATE PDB         mobley_4434915.pdb
Info: Exclusions will be read from PARM file!
Info: SCNB (VDW SCALING)     2
Info: USING ARITHMETIC MEAN TO COMBINE L-J SIGMA PARAMETERS
Info: BINARY COORDINATES     mobley_4434915_equil.coor
Info: SUMMARY OF PARAMETERS:
Info: 4 BONDS
Info: 2 ANGLES
Info:   2 HARMONIC
Info:   0 COSINE-BASED
Info: 0 DIHEDRAL
Info: 0 IMPROPER
Info: 0 CROSSTERM
Info: 0 VDW
Info: 15 VDW_PAIRS
Info: 0 NBTHOLE_PAIRS
Info: To read alchdata from file: mobley_4434915.pdb
Info: To read alchflag data from column: 5
Info: STRUCTURE SUMMARY:
Info: 2984 ATOMS
Info: 2983 BONDS
Info: 6 ANGLES
Info: 0 DIHEDRALS
Info: 0 IMPROPERS
Info: 0 CROSSTERMS
Info: 2989 EXCLUSIONS
Info: 2982 RIGID BONDS
Info: ALCH: 0 ATOMS TO DISAPPEAR IN FINAL STATE
Info: ALCH: 5 ATOMS TO APPEAR IN FINAL STATE
Info: 5970 DEGREES OF FREEDOM
Info: 995 HYDROGEN GROUPS
Info: 4 ATOMS IN LARGEST HYDROGEN GROUP
Info: 995 MIGRATION GROUPS
Info: 4 ATOMS IN LARGEST MIGRATION GROUP
Info: TOTAL MASS = 17940.4 amu
Info: TOTAL CHARGE = -0.000100018 e
Info: MASS DENSITY = 0.97505 g/cm^3
Info: ATOM DENSITY = 0.0976641 atoms/A^3
Info: ADDED 0 IMPLICIT EXCLUSIONS
Info: NONBONDED TABLE R-SQUARED SPACING: 0.0625
Info: NONBONDED TABLE SIZE: 705 POINTS
Info: REMOVING COM VELOCITY -0.0885006 -0.0753841 0.0883314
Info: Use 3D box decompostion in PME FFT.
Info: Updated CUDA force table with 4096 elements.
Info: Updated CUDA LJ table with 5 x 5 elements.
Info: Found 8 unique exclusion lists needing 8 bytes
TCL: Running for 1500000 steps
ETITLE: TS BOND ANGLE DIHED IMPRP ELECT VDW BOUNDARY MISC KINETIC TOTAL TEMP POTENTIAL TOTALAVG TEMPAVG PRESSURE GPRESSURE VOLUME PRESSAVG GPRESSAVG
ENERGY: 0 1.6795 1.2018 0.0000 0.0000 -10800.7436 1367.6686 0.0000 0.0000 1846.3775 -7583.8163 311.2695 -9430.1938 -7583.8163 311.2695 -722.3613 -633.7822 30553.7085 -722.3613 -633.7822
ENERGY: 300000 0.0659 3.2280 0.0000 0.0000 -10795.4642 1436.5041 0.0000 0.0000 1779.7033 -7575.9630 300.0293 -9355.6663 -7618.7248 301.4007 -443.0716 -378.7112 31274.5134 -203.1058 -136.7153
ENERGY: 600000 0.8214 2.2799 0.0000 0.0000 -10666.6295 1388.7481 0.0000 0.0000 1814.9828 -7459.7973 305.9768 -9274.7800 -7605.4653 301.0364 -149.5045 -91.1514 30944.5740 -177.4964 -116.9543
ENERGY: 900000 0.0069 2.1298 0.0000 0.0000 -10873.4461 1582.0477 0.0000 0.0000 1796.3135 -7492.9483 302.8295 -9289.2618 -7587.2908 302.1203 963.4670 975.1523 31335.7675 -28.5261 37.0240
ENERGY: 1200000 0.1266 0.9226 0.0000 0.0000 -10832.5966 1437.4695 0.0000 0.0000 1749.2029 -7644.8750 294.8874 -9394.0779 -7583.8912 301.8481 -275.8520 -207.4530 30768.1041 -137.3673 -67.9432
ENERGY: 1500000 1.4719 1.8944 0.0000 0.0000 -10792.5341 1413.6165 0.0000 0.0000 1807.9044 -7567.6470 304.7835 -9375.5514 -7584.5816 302.3098 -337.0982 -183.8683 30653.1682 -142.0286 -63.4251
TCL: Running FEP window   2: Lambda1 0.05   Lambda2 0.1    [dLambda 0.05  ]
TCL: Setting parameter firsttimestep to 0
TCL: Setting parameter alchLambda to 0.05
Info: NONBONDED TABLE R-SQUARED SPACING: 0.0625
Info: NONBONDED TABLE SIZE: 705 POINTS
TCL: Setting parameter alchLambda2 to 0.1
Info: NONBONDED TABLE R-SQUARED SPACING: 0.0625
Info: NONBONDED TABLE SIZE: 705 POINTS
TCL: Running for 1500000 steps
ETITLE: TS BOND ANGLE DIHED IMPRP ELECT VDW BOUNDARY MISC KINETIC TOTAL TEMP POTENTIAL TOTALAVG TEMPAVG PRESSURE GPRESSURE VOLUME PRESSAVG GPRESSAVG
ENERGY: 0 1.4719 1.8944 0.0000 0.0000 -10792.5336 1415.9967 0.0000 0.0000 1806.9906 -7566.1800 304.6295 -9373.1707 -7566.1800 304.6295 -257.0654 -181.4723 30653.1682 -257.0654 -181.4723
ENERGY: 300000 0.2219 1.5555 0.0000 0.0000 -10861.8279 1458.7801 0.0000 0.0000 1783.2356 -7618.0348 300.6248 -9401.2705 -7559.0871 300.5886 -67.6669 129.5699 30255.5775 -425.3995 -317.5641
ENERGY: 600000 0.0135 2.5741 0.0000 0.0000 -10819.8898 1424.7649 0.0000 0.0000 1764.7030 -7627.8343 297.5005 -9392.5373 -7591.4162 297.3197 -530.8406 -453.9923 31029.6145 -340.2908 -245.3602
ENERGY: 900000 0.0022 1.7465 0.0000 0.0000 -10897.4752 1495.5591 0.0000 0.0000 1763.7372 -7636.4302 297.3377 -9400.1675 -7607.2429 297.0330 363.9212 426.1216 30370.8920 -199.9343 -106.7713
ENERGY: 1200000 1.3448 1.8531 0.0000 0.0000 -10815.7011 1462.1224 0.0000 0.0000 1804.4680 -7545.9128 304.2042 -9350.3808 -7610.8790 298.7404 37.0907 82.9742 30968.8816 -176.3212 -92.5567
ENERGY: 1500000 0.6316 0.4949 0.0000 0.0000 -10874.8791 1457.2922 0.0000 0.0000 1775.8618 -7640.5987 299.3817 -9416.4604 -7608.8699 299.5073 -266.9347 -151.3299 30599.5749 -244.5154 -158.1535
TCL: Running FEP window   3: Lambda1 0.1    Lambda2 0.15000000000000002 [dLambda 0.05000000000000002]
TCL: Setting parameter firsttimestep to 0
TCL: Setting parameter alchLambda to 0.1
Info: NONBONDED TABLE R-SQUARED SPACING: 0.0625
Info: NONBONDED TABLE SIZE: 705 POINTS
TCL: Setting parameter alchLambda2 to 0.15000000000000002
Info: NONBONDED TABLE R-SQUARED SPACING: 0.0625
Info: NONBONDED TABLE SIZE: 705 POINTS
TCL: Running for 1500000 steps
ETITLE: TS BOND ANGLE DIHED IMPRP ELECT VDW BOUNDARY MISC KINETIC TOTAL TEMP POTENTIAL TOTALAVG TEMPAVG PRESSURE GPRESSURE VOLUME PRESSAVG GPRESSAVG
ENERGY: 0 0.6316 0.4949 0.0000 0.0000 -10874.8817 1457.8118 0.0000 0.0000 1774.9959 -7640.9475 299.2357 -9415.9434 -7640.9475 299.2357 -233.1332 -146.1472 30599.5749 -233.1332 -146.1472
ENERGY: 300000 0.0375 1.8211 0.0000 0.0000 -10810.1850 1428.4312 0.0000 0.0000 1775.8892 -7604.0061 299.3863 -9379.8953 -7628.1012 301.2113 -310.9697 -220.1673 30659.1770 -311.3128 -250.1549
ENERGY: 600000 0.3395 1.8303 0.0000 0.0000 -10873.3390 1477.2913 0.0000 0.0000 1802.8536 -7591.0244 303.9321 -9393.8780 -7610.9549 302.7805 -63.3294 83.2719 30664.5009 -45.6910 42.1861
ENERGY: 900000 0.4171 0.5093 0.0000 0.0000 -10942.9020 1472.7864 0.0000 0.0000 1728.7646 -7740.4247 291.4418 -9469.1892 -7635.0507 300.4030 -277.7349 -208.7789 30860.1898 -88.0715 -2.1792
ENERGY: 1200000 0.1045 3.1906 0.0000 0.0000 -10803.7125 1421.6320 0.0000 0.0000 1756.8856 -7621.8997 296.1826 -9378.7854 -7633.8457 300.3318 -241.9075 -229.4361 30415.5143 -135.3568 -58.6665
ENERGY: 1500000 0.0511 0.7658 0.0000 0.0000 -11031.7483 1556.0659 0.0000 0.0000 1869.9455 -7604.9200 315.2427 -9474.8654 -7624.9045 301.2145 867.3277 865.4525 29831.9010 -102.8703 -35.1611
TCL: Running FEP window   4: Lambda1 0.15000000000000002 Lambda2 0.2    [dLambda 0.04999999999999999]
TCL: Setting parameter firsttimestep to 0
TCL: Setting parameter alchLambda to 0.15000000000000002
Info: NONBONDED TABLE R-SQUARED SPACING: 0.0625
Info: NONBONDED TABLE SIZE: 705 POINTS
TCL: Setting parameter alchLambda2 to 0.2
Info: NONBONDED TABLE R-SQUARED SPACING: 0.0625
Info: NONBONDED TABLE SIZE: 705 POINTS
TCL: Running for 1500000 steps
ETITLE: TS BOND ANGLE DIHED IMPRP ELECT VDW BOUNDARY MISC KINETIC TOTAL TEMP POTENTIAL TOTALAVG TEMPAVG PRESSURE GPRESSURE VOLUME PRESSAVG GPRESSAVG
ENERGY: 0 0.0511 0.7658 0.0000 0.0000 -11031.7493 1556.3519 0.0000 0.0000 1869.0701 -7605.5103 315.0951 -9474.5805 -7605.5103 315.0951 771.2404 868.4033 29831.9010 771.2404 868.4033
ENERGY: 300000 0.1040 0.6147 0.0000 0.0000 -10969.0547 1474.3297 0.0000 0.0000 1782.2895 -7711.7169 300.4653 -9494.0063 -7617.4815 304.3192 -115.4635 -125.0247 30480.5978 384.9022 420.4934
ENERGY: 600000 0.3794 0.8274 0.0000 0.0000 -10841.7281 1463.7961 0.0000 0.0000 1804.3640 -7572.3612 304.1867 -9376.7252 -7617.5982 303.1566 148.8413 228.3305 30342.0524 114.4388 168.3150
ENERGY: 900000 0.2798 1.4919 0.0000 0.0000 -10901.7969 1464.2169 0.0000 0.0000 1764.1469 -7671.6614 297.4067 -9435.8083 -7620.9973 300.8865 -15.8837 -36.9536 30804.2237 49.7032 92.1382
ENERGY: 1200000 0.0248 0.8971 0.0000 0.0000 -10847.2138 1420.6661 0.0000 0.0000 1790.5273 -7635.0984 301.8541 -9425.6258 -7621.1802 301.2501 -684.8100 -602.9026 31018.5534 -32.4975 13.2035
ENERGY: 1500000 0.1200 1.6843 0.0000 0.0000 -10829.0131 1463.2561 0.0000 0.0000 1743.0373 -7620.9154 293.8480 -9363.9527 -7619.0097 300.4614 -58.9927 31.9785 30696.2178 -58.1628 -9.7391
TCL: Running FEP window   5: Lambda1 0.2    Lambda2 0.25   [dLambda 0.04999999999999999]
TCL: Setting parameter firsttimestep to 0
TCL: Setting parameter alchLambda to 0.2
Info: NONBONDED TABLE R-SQUARED SPACING: 0.0625
Info: NONBONDED TABLE SIZE: 705 POINTS
TCL: Setting parameter alchLambda2 to 0.25
Info: NONBONDED TABLE R-SQUARED SPACING: 0.0625
Info: NONBONDED TABLE SIZE: 705 POINTS
TCL: Running for 1500000 steps
ETITLE: TS BOND ANGLE DIHED IMPRP ELECT VDW BOUNDARY MISC KINETIC TOTAL TEMP POTENTIAL TOTALAVG TEMPAVG PRESSURE GPRESSURE VOLUME PRESSAVG GPRESSAVG
ENERGY: 0 0.1200 1.6843 0.0000 0.0000 -10829.0122 1463.3493 0.0000 0.0000 1742.1234 -7621.7352 293.6939 -9363.8586 -7621.7352 293.6939 -45.3744 36.7682 30696.2178 -45.3744 36.7682
ENERGY: 300000 0.2884 1.5286 0.0000 0.0000 -10747.9823 1421.2359 0.0000 0.0000 1830.5845 -7494.3450 308.6070 -9324.9294 -7553.7464 301.0826 -161.9843 -86.6832 31013.4140 -42.8601 5.4187
ENERGY: 600000 0.0958 0.8020 0.0000 0.0000 -10794.8394 1461.4515 0.0000 0.0000 1717.2716 -7615.2186 289.5043 -9332.4902 -7566.3170 299.0545 70.5036 143.4759 30884.1013 62.7930 116.8395
ENERGY: 900000 0.1832 1.5815 0.0000 0.0000 -10737.0576 1407.4710 0.0000 0.0000 1811.9252 -7515.8967 305.4614 -9327.8219 -7563.3099 298.9868 -299.0362 -192.3329 30666.1530 2.0928 67.7207
ENERGY: 1200000 0.2942 0.8179 0.0000 0.0000 -10925.9462 1491.1809 0.0000 0.0000 1784.3935 -7649.2596 300.8200 -9433.6531 -7565.8267 299.8685 15.1797 108.3486 30922.6880 -60.5192 9.8039
ENERGY: 1500000 0.1464 1.3605 0.0000 0.0000 -10879.3427 1419.7098 0.0000 0.0000 1830.3883 -7627.7377 308.5740 -9458.1260 -7577.6643 300.0425 -502.1980 -407.0030 30605.1989 -102.1645 -30.8007
TCL: Running FEP window   6: Lambda1 0.25   Lambda2 0.3    [dLambda 0.04999999999999999]
TCL: Setting parameter firsttimestep to 0
TCL: Setting parameter alchLambda to 0.25
Info: NONBONDED TABLE R-SQUARED SPACING: 0.0625
Info: NONBONDED TABLE SIZE: 705 POINTS
TCL: Setting parameter alchLambda2 to 0.3
Info: NONBONDED TABLE R-SQUARED SPACING: 0.0625
Info: NONBONDED TABLE SIZE: 705 POINTS
TCL: Running for 1500000 steps
ETITLE: TS BOND ANGLE DIHED IMPRP ELECT VDW BOUNDARY MISC KINETIC TOTAL TEMP POTENTIAL TOTALAVG TEMPAVG PRESSURE GPRESSURE VOLUME PRESSAVG GPRESSAVG
ENERGY: 0 0.1464 1.3605 0.0000 0.0000 -10879.3437 1419.8750 0.0000 0.0000 1829.5040 -7628.4578 308.4249 -9457.9619 -7628.4578 308.4249 -494.7672 -403.3843 30605.1989 -494.7672 -403.3843
ENERGY: 300000 0.0009 0.9918 0.0000 0.0000 -10647.6512 1330.6323 0.0000 0.0000 1804.5475 -7511.4786 304.2176 -9316.0262 -7564.6374 303.0739 -933.3640 -806.5762 30995.6643 -501.8972 -429.0303
ENERGY: 600000 0.0369 1.4064 0.0000 0.0000 -10711.7940 1454.7493 0.0000 0.0000 1821.2552 -7434.3462 307.0343 -9255.6014 -7568.9688 302.0080 379.3437 390.0888 30749.8128 -240.2302 -192.7210
ENERGY: 900000 0.0593 4.0989 0.0000 0.0000 -10823.5079 1436.4727 0.0000 0.0000 1803.4141 -7579.4629 304.0266 -9382.8770 -7567.1995 302.8322 -199.2879 -136.8974 30760.0954 -201.1002 -155.4072
ENERGY: 1200000 0.1538 2.1943 0.0000 0.0000 -10874.9202 1467.8580 0.0000 0.0000 1761.5333 -7643.1808 296.9661 -9404.7141 -7584.9148 301.8152 166.9477 210.1434 30427.5868 -108.5242 -60.8722
ENERGY: 1500000 0.4587 0.5289 0.0000 0.0000 -10964.9648 1558.2319 0.0000 0.0000 1785.3968 -7620.3485 300.9891 -9405.7453 -7585.2287 300.8044 603.2397 646.1111 30773.2240 14.4773 60.1586
TCL: Running FEP window   7: Lambda1 0.3    Lambda2 0.35   [dLambda 0.04999999999999999]
TCL: Setting parameter firsttimestep to 0
TCL: Setting parameter alchLambda to 0.3
Info: NONBONDED TABLE R-SQUARED SPACING: 0.0625
Info: NONBONDED TABLE SIZE: 705 POINTS
TCL: Setting parameter alchLambda2 to 0.35
Info: NONBONDED TABLE R-SQUARED SPACING: 0.0625
Info: NONBONDED TABLE SIZE: 705 POINTS
TCL: Running for 1500000 steps
ETITLE: TS BOND ANGLE DIHED IMPRP ELECT VDW BOUNDARY MISC KINETIC TOTAL TEMP POTENTIAL TOTALAVG TEMPAVG PRESSURE GPRESSURE VOLUME PRESSAVG GPRESSAVG
ENERGY: 0 0.4587 0.5289 0.0000 0.0000 -10964.9642 1558.1474 0.0000 0.0000 1784.5007 -7621.3284 300.8381 -9405.8291 -7621.3284 300.8381 539.2025 645.3375 30773.2240 539.2025 645.3375
ENERGY: 300000 0.0268 2.2191 0.0000 0.0000 -10770.9073 1423.0394 0.0000 0.0000 1736.0433 -7609.5786 292.6689 -9345.6219 -7600.8821 295.1957 -372.4264 -260.7535 30786.4225 -370.3583 -264.8397
ENERGY: 600000 0.0084 1.8492 0.0000 0.0000 -10859.0134 1448.7782 0.0000 0.0000 1824.8728 -7583.5047 307.6441 -9408.3775 -7590.2341 297.4495 4.3857 24.4467 30546.1556 -181.2264 -102.5237
ENERGY: 900000 0.4770 2.4986 0.0000 0.0000 -10906.4334 1476.1911 0.0000 0.0000 1804.9241 -7622.3427 304.2811 -9427.2668 -7594.3107 298.9400 396.7656 446.0300 30049.6413 -19.9630 63.6118
ENERGY: 1200000 0.1213 1.8191 0.0000 0.0000 -10733.3069 1388.3033 0.0000 0.0000 1791.5993 -7551.4639 302.0348 -9343.0632 -7599.7483 299.7433 -800.5795 -666.0268 31410.0827 -86.8639 -11.9047
ENERGY: 1500000 0.0072 1.9009 0.0000 0.0000 -10963.8150 1561.8247 0.0000 0.0000 1784.4262 -7615.6561 300.8255 -9400.0823 -7598.4249 300.3865 1046.1033 1087.4109 30157.4383 49.2611 118.8963
TCL: Running FEP window   8: Lambda1 0.35   Lambda2 0.39999999999999997 [dLambda 0.04999999999999999]
TCL: Setting parameter firsttimestep to 0
TCL: Setting parameter alchLambda to 0.35
Info: NONBONDED TABLE R-SQUARED SPACING: 0.0625
Info: NONBONDED TABLE SIZE: 705 POINTS
TCL: Setting parameter alchLambda2 to 0.39999999999999997
Info: NONBONDED TABLE R-SQUARED SPACING: 0.0625
Info: NONBONDED TABLE SIZE: 705 POINTS
TCL: Running for 1500000 steps
ETITLE: TS BOND ANGLE DIHED IMPRP ELECT VDW BOUNDARY MISC KINETIC TOTAL TEMP POTENTIAL TOTALAVG TEMPAVG PRESSURE GPRESSURE VOLUME PRESSAVG GPRESSAVG
ENERGY: 0 0.0072 1.9009 0.0000 0.0000 -10963.8152 1562.0766 0.0000 0.0000 1783.5344 -7616.2961 300.6752 -9399.8305 -7616.2961 300.6752 1019.2217 1092.7832 30157.4383 1019.2217 1092.7832
ENERGY: 300000 0.5326 6.2471 0.0000 0.0000 -10807.7300 1471.0372 0.0000 0.0000 1778.7446 -7551.1685 299.8677 -9329.9131 -7570.8302 297.4206 309.4887 395.6758 30448.8486 423.7611 499.3027
ENERGY: 600000 0.0543 1.0148 0.0000 0.0000 -10891.8632 1495.7944 0.0000 0.0000 1758.7832 -7636.2164 296.5025 -9394.9997 -7594.2278 298.3184 105.2877 197.8523 30771.0032 259.4840 337.8551
ENERGY: 900000 0.0663 2.2390 0.0000 0.0000 -10863.2672 1535.1347 0.0000 0.0000 1770.3087 -7555.5185 298.4455 -9325.8272 -7586.2932 298.3639 397.0566 484.8424 31301.4186 223.4540 301.3345
ENERGY: 1200000 0.0021 3.3737 0.0000 0.0000 -10906.3922 1538.1014 0.0000 0.0000 1817.8288 -7547.0862 306.4566 -9364.9149 -7584.0743 299.2524 960.7468 1036.4725 30268.8117 179.9929 260.0422
ENERGY: 1500000 0.0184 3.1895 0.0000 0.0000 -10948.8379 1513.9516 0.0000 0.0000 1724.1365 -7707.5419 290.6616 -9431.6784 -7597.7771 298.1526 130.5949 195.7212 30870.7199 122.1160 204.4481
TCL: Running FEP window   9: Lambda1 0.39999999999999997 Lambda2 0.44999999999999996 [dLambda 0.04999999999999999]
TCL: Setting parameter firsttimestep to 0
TCL: Setting parameter alchLambda to 0.39999999999999997
Info: NONBONDED TABLE R-SQUARED SPACING: 0.0625
Info: NONBONDED TABLE SIZE: 705 POINTS
TCL: Setting parameter alchLambda2 to 0.44999999999999996
Info: NONBONDED TABLE R-SQUARED SPACING: 0.0625
Info: NONBONDED TABLE SIZE: 705 POINTS
TCL: Running for 1500000 steps
ETITLE: TS BOND ANGLE DIHED IMPRP ELECT VDW BOUNDARY MISC KINETIC TOTAL TEMP POTENTIAL TOTALAVG TEMPAVG PRESSURE GPRESSURE VOLUME PRESSAVG GPRESSAVG
ENERGY: 0 0.0184 3.1895 0.0000 0.0000 -10948.8395 1514.6794 0.0000 0.0000 1723.2780 -7707.6741 290.5169 -9430.9522 -7707.6741 290.5169 126.6578 201.9398 30870.7199 126.6578 201.9398
ENERGY: 300000 0.0720 3.5627 0.0000 0.0000 -10832.6630 1451.9109 0.0000 0.0000 1813.6279 -7563.4895 305.7484 -9377.1174 -7611.0718 298.4977 -203.5913 -135.5633 30993.4913 -21.8322 56.1125
ENERGY: 600000 0.0426 2.7118 0.0000 0.0000 -10867.7009 1460.5355 0.0000 0.0000 1749.7602 -7654.6508 294.9814 -9404.4111 -7618.7424 297.0409 126.5015 134.8543 30585.6408 -102.9860 -38.9464
ENERGY: 900000 0.0140 2.2258 0.0000 0.0000 -10976.6215 1524.1932 0.0000 0.0000 1743.5639 -7706.6246 293.9368 -9450.1885 -7621.4076 297.0742 194.1494 336.5244 30426.2666 -18.3516 45.6452
ENERGY: 1200000 0.2823 2.2821 0.0000 0.0000 -10940.2342 1486.6527 0.0000 0.0000 1773.7836 -7677.2334 299.0313 -9451.0171 -7624.6130 297.8308 101.0422 140.1342 30591.8875 -31.4371 31.3689
ENERGY: 1500000 0.0597 2.1795 0.0000 0.0000 -10876.8430 1461.7498 0.0000 0.0000 1791.3911 -7621.4629 301.9997 -9412.8540 -7616.0447 298.9079 -13.8414 84.1232 30418.6691 8.0843 68.4393
TCL: Running FEP window  10: Lambda1 0.44999999999999996 Lambda2 0.49999999999999994 [dLambda 0.04999999999999999]
TCL: Setting parameter firsttimestep to 0
TCL: Setting parameter alchLambda to 0.44999999999999996
Info: NONBONDED TABLE R-SQUARED SPACING: 0.0625
Info: NONBONDED TABLE SIZE: 705 POINTS
TCL: Setting parameter alchLambda2 to 0.49999999999999994
Info: NONBONDED TABLE R-SQUARED SPACING: 0.0625
Info: NONBONDED TABLE SIZE: 705 POINTS
TCL: Running for 1500000 steps
ETITLE: TS BOND ANGLE DIHED IMPRP ELECT VDW BOUNDARY MISC KINETIC TOTAL TEMP POTENTIAL TOTALAVG TEMPAVG PRESSURE GPRESSURE VOLUME PRESSAVG GPRESSAVG
ENERGY: 0 0.0597 2.1795 0.0000 0.0000 -10876.8441 1461.7658 0.0000 0.0000 1790.5122 -7622.3269 301.8515 -9412.8391 -7622.3269 301.8515 9.9603 88.7978 30418.6691 9.9603 88.7978
ENERGY: 300000 0.0049 0.9878 0.0000 0.0000 -10818.4013 1452.9954 0.0000 0.0000 1773.7296 -7590.6835 299.0222 -9364.4131 -7592.0728 301.3145 -260.7559 -160.4268 31223.1150 220.8583 297.4261
ENERGY: 600000 0.1809 2.3418 0.0000 0.0000 -10943.4231 1527.3810 0.0000 0.0000 1808.0886 -7605.4308 304.8146 -9413.5194 -7606.6454 302.3347 412.8640 444.6692 30708.3350 285.7486 349.8884
ENERGY: 900000 1.7602 0.9826 0.0000 0.0000 -10817.9382 1422.6104 0.0000 0.0000 1810.8605 -7581.7245 305.2819 -9392.5850 -7608.8919 302.4369 -541.9488 -461.1781 31186.4498 228.8974 297.3397
ENERGY: 1200000 0.3794 0.8219 0.0000 0.0000 -10869.5662 1451.7479 0.0000 0.0000 1739.2997 -7677.3172 293.2179 -9416.6169 -7612.4836 301.7100 -364.2559 -252.5052 30975.3433 114.6479 186.3534
ENERGY: 1500000 0.1027 2.3489 0.0000 0.0000 -10868.6696 1480.5956 0.0000 0.0000 1749.5770 -7636.0454 294.9505 -9385.6224 -7608.9237 301.2902 -33.0252 33.1061 30991.8330 91.4915 163.0015
TCL: Running FEP window  11: Lambda1 0.49999999999999994 Lambda2 0.5499999999999999 [dLambda 0.04999999999999999]
TCL: Setting parameter firsttimestep to 0
TCL: Setting parameter alchLambda to 0.49999999999999994
Info: NONBONDED TABLE R-SQUARED SPACING: 0.0625
Info: NONBONDED TABLE SIZE: 705 POINTS
TCL: Setting parameter alchLambda2 to 0.5499999999999999
Info: NONBONDED TABLE R-SQUARED SPACING: 0.0625
Info: NONBONDED TABLE SIZE: 705 POINTS
TCL: Running for 1500000 steps
ETITLE: TS BOND ANGLE DIHED IMPRP ELECT VDW BOUNDARY MISC KINETIC TOTAL TEMP POTENTIAL TOTALAVG TEMPAVG PRESSURE GPRESSURE VOLUME PRESSAVG GPRESSAVG
ENERGY: 0 0.1027 2.3489 0.0000 0.0000 -10868.6670 1480.4317 0.0000 0.0000 1748.7020 -7637.0817 294.8030 -9385.7837 -7637.0817 294.8030 -36.7042 34.4612 30991.8330 -36.7042 34.4612
ENERGY: 300000 0.3354 1.1958 0.0000 0.0000 -10850.2547 1438.2608 0.0000 0.0000 1738.9499 -7671.5128 293.1589 -9410.4627 -7629.0866 296.5563 -377.3940 -332.0237 30958.4880 156.7840 189.9465
ENERGY: 600000 0.2077 3.0912 0.0000 0.0000 -11087.1657 1618.9909 0.0000 0.0000 1751.7637 -7713.1121 295.3191 -9464.8759 -7652.5071 293.7498 957.6997 1025.3772 30443.9719 149.7507 183.4657
ENERGY: 900000 0.0175 2.0453 0.0000 0.0000 -10962.3556 1491.3344 0.0000 0.0000 1757.4400 -7711.5184 296.2761 -9468.9584 -7650.6659 294.6427 213.7224 312.3419 30395.0224 93.3472 142.5882
ENERGY: 1200000 0.2975 1.5352 0.0000 0.0000 -10774.0741 1369.0464 0.0000 0.0000 1783.3410 -7619.8540 300.6425 -9403.1950 -7645.2878 295.4488 -783.2981 -729.6095 30864.8837 11.1593 62.3840
ENERGY: 1500000 0.0873 1.0915 0.0000 0.0000 -10821.3808 1419.5224 0.0000 0.0000 1812.0596 -7588.6200 305.4840 -9400.6796 -7643.1091 296.0042 -460.8719 -389.6157 31282.3065 -18.3103 34.7595
TCL: Running FEP window  12: Lambda1 0.5499999999999999 Lambda2 0.6    [dLambda 0.050000000000000044]
TCL: Setting parameter firsttimestep to 0
TCL: Setting parameter alchLambda to 0.5499999999999999
Info: NONBONDED TABLE R-SQUARED SPACING: 0.0625
Info: NONBONDED TABLE SIZE: 705 POINTS
TCL: Setting parameter alchLambda2 to 0.6
Info: NONBONDED TABLE R-SQUARED SPACING: 0.0625
Info: NONBONDED TABLE SIZE: 705 POINTS
TCL: Running for 1500000 steps
ETITLE: TS BOND ANGLE DIHED IMPRP ELECT VDW BOUNDARY MISC KINETIC TOTAL TEMP POTENTIAL TOTALAVG TEMPAVG PRESSURE GPRESSURE VOLUME PRESSAVG GPRESSAVG
ENERGY: 0 0.0873 1.0915 0.0000 0.0000 -10821.4483 1419.4751 0.0000 0.0000 1811.1827 -7589.6116 305.3362 -9400.7943 -7589.6116 305.3362 -458.3036 -384.3510 31282.3065 -458.3036 -384.3510
ENERGY: 300000 0.0375 2.4371 0.0000 0.0000 -10963.7744 1511.8339 0.0000 0.0000 1761.8769 -7687.5890 297.0241 -9449.4659 -7622.4366 297.6499 349.3910 372.0589 30320.1713 -163.9413 -110.0277
ENERGY: 600000 0.0636 0.8137 0.0000 0.0000 -11077.0724 1634.5610 0.0000 0.0000 1793.9266 -7647.7076 302.4271 -9441.6342 -7617.3328 301.2330 1199.4275 1226.4045 30572.1580 137.2264 184.7209
ENERGY: 900000 0.1158 2.8487 0.0000 0.0000 -10723.4326 1318.8702 0.0000 0.0000 1717.5602 -7684.0377 289.5530 -9401.5979 -7619.9429 299.2455 -1344.2550 -1254.7076 31018.1400 -48.5490 3.0335
ENERGY: 1200000 0.0667 1.7090 0.0000 0.0000 -10733.7724 1405.4731 0.0000 0.0000 1768.0889 -7558.4348 298.0713 -9326.5236 -7612.6125 299.8219 -284.3935 -178.4148 30748.7068 -50.7383 4.2588
ENERGY: 1500000 0.7091 1.3911 0.0000 0.0000 -10859.7213 1434.9032 0.0000 0.0000 1799.0690 -7623.6489 303.2940 -9422.7179 -7601.7710 300.8001 -272.1220 -246.3132 30701.4181 -2.2295 54.6042
TCL: Running FEP window  13: Lambda1 0.6    Lambda2 0.65   [dLambda 0.050000000000000044]
TCL: Setting parameter firsttimestep to 0
TCL: Setting parameter alchLambda to 0.6
Info: NONBONDED TABLE R-SQUARED SPACING: 0.0625
Info: NONBONDED TABLE SIZE: 705 POINTS
TCL: Setting parameter alchLambda2 to 0.65
Info: NONBONDED TABLE R-SQUARED SPACING: 0.0625
Info: NONBONDED TABLE SIZE: 705 POINTS
TCL: Running for 1500000 steps
ETITLE: TS BOND ANGLE DIHED IMPRP ELECT VDW BOUNDARY MISC KINETIC TOTAL TEMP POTENTIAL TOTALAVG TEMPAVG PRESSURE GPRESSURE VOLUME PRESSAVG GPRESSAVG
ENERGY: 0 0.7091 1.3911 0.0000 0.0000 -10859.7818 1435.0072 0.0000 0.0000 1798.1546 -7624.5198 303.1399 -9422.6744 -7624.5198 303.1399 -328.3026 -244.1844 30701.4181 -328.3026 -244.1844
ENERGY: 300000 0.0099 0.3984 0.0000 0.0000 -10861.3752 1467.3942 0.0000 0.0000 1742.6229 -7650.9497 293.7781 -9393.5726 -7627.9966 298.2519 -38.3170 49.2774 30887.2521 -215.3590 -125.9582
ENERGY: 600000 0.4999 2.4056 0.0000 0.0000 -10919.0942 1551.5673 0.0000 0.0000 1763.3865 -7601.2349 297.2785 -9364.6214 -7616.8170 297.9766 505.8725 635.1578 30908.0537 29.1376 111.4246
ENERGY: 900000 0.0700 1.7594 0.0000 0.0000 -10892.0612 1471.2516 0.0000 0.0000 1707.1275 -7711.8527 287.7942 -9418.9802 -7614.7284 298.0832 269.8180 277.7749 30225.5010 73.7153 140.5261
ENERGY: 1200000 0.0292 1.1066 0.0000 0.0000 -10945.3273 1552.4909 0.0000 0.0000 1792.5738 -7599.1268 302.1990 -9391.7006 -7607.3929 298.9237 711.4297 798.6350 30567.4166 82.0953 148.2049
ENERGY: 1500000 0.3909 0.4117 0.0000 0.0000 -10897.7349 1494.8450 0.0000 0.0000 1792.5838 -7609.5035 302.2007 -9402.0873 -7607.5384 299.8641 77.1123 183.5295 30936.7824 66.9245 137.8955
TCL: Running FEP window  14: Lambda1 0.65   Lambda2 0.7000000000000001 [dLambda 0.050000000000000044]
TCL: Setting parameter firsttimestep to 0
TCL: Setting parameter alchLambda to 0.65
Info: NONBONDED TABLE R-SQUARED SPACING: 0.0625
Info: NONBONDED TABLE SIZE: 705 POINTS
TCL: Setting parameter alchLambda2 to 0.7000000000000001
Info: NONBONDED TABLE R-SQUARED SPACING: 0.0625
Info: NONBONDED TABLE SIZE: 705 POINTS
TCL: Running for 1500000 steps
ETITLE: TS BOND ANGLE DIHED IMPRP ELECT VDW BOUNDARY MISC KINETIC TOTAL TEMP POTENTIAL TOTALAVG TEMPAVG PRESSURE GPRESSURE VOLUME PRESSAVG GPRESSAVG
ENERGY: 0 0.3909 0.4117 0.0000 0.0000 -10897.7704 1494.9011 0.0000 0.0000 1791.6816 -7610.3851 302.0486 -9402.0666 -7610.3851 302.0486 107.1185 189.5993 30936.7824 107.1185 189.5993
ENERGY: 300000 0.1900 1.5426 0.0000 0.0000 -10734.1186 1392.0876 0.0000 0.0000 1831.4660 -7508.8324 308.7556 -9340.2984 -7582.8064 302.3161 -396.1117 -322.9756 30821.4295 -66.0022 11.9404
ENERGY: 600000 0.0189 1.9501 0.0000 0.0000 -10766.4832 1389.7231 0.0000 0.0000 1719.6849 -7655.1061 289.9112 -9374.7910 -7590.6904 300.6244 -937.6004 -802.5931 31398.3153 -352.7153 -259.4728
ENERGY: 900000 0.5037 1.3865 0.0000 0.0000 -10804.7066 1465.3430 0.0000 0.0000 1819.4918 -7517.9816 306.7370 -9337.4734 -7597.7807 300.3869 69.7068 135.5549 30937.5340 -123.4432 -42.9429
ENERGY: 1200000 0.4417 0.8062 0.0000 0.0000 -10972.6085 1492.9358 0.0000 0.0000 1761.8399 -7716.5849 297.0178 -9478.4249 -7602.4594 300.4938 83.9656 68.1453 30513.3773 -96.9658 -24.3632
ENERGY: 1500000 0.4381 2.1042 0.0000 0.0000 -10831.4831 1449.7438 0.0000 0.0000 1684.2362 -7694.9609 283.9351 -9379.1971 -7615.4949 298.9064 -183.9842 -89.5460 30789.2446 -138.8732 -63.3758
TCL: Running FEP window  15: Lambda1 0.7000000000000001 Lambda2 0.7500000000000001 [dLambda 0.050000000000000044]
TCL: Setting parameter firsttimestep to 0
TCL: Setting parameter alchLambda to 0.7000000000000001
Info: NONBONDED TABLE R-SQUARED SPACING: 0.0625
Info: NONBONDED TABLE SIZE: 705 POINTS
TCL: Setting parameter alchLambda2 to 0.7500000000000001
Info: NONBONDED TABLE R-SQUARED SPACING: 0.0625
Info: NONBONDED TABLE SIZE: 705 POINTS
TCL: Running for 1500000 steps
ETITLE: TS BOND ANGLE DIHED IMPRP ELECT VDW BOUNDARY MISC KINETIC TOTAL TEMP POTENTIAL TOTALAVG TEMPAVG PRESSURE GPRESSURE VOLUME PRESSAVG GPRESSAVG
ENERGY: 0 0.4381 2.1042 0.0000 0.0000 -10831.7272 1450.6389 0.0000 0.0000 1683.3448 -7695.2012 283.7848 -9378.5460 -7695.2012 283.7848 -167.2626 -79.6924 30789.2446 -167.2626 -79.6924
ENERGY: 300000 0.5975 1.1564 0.0000 0.0000 -10887.8052 1488.1135 0.0000 0.0000 1783.8903 -7614.0475 300.7352 -9397.9378 -7609.6963 297.1905 276.9009 386.2403 30448.2784 -159.3644 -86.2708
ENERGY: 600000 0.0519 1.0330 0.0000 0.0000 -10937.2004 1517.7472 0.0000 0.0000 1783.4875 -7634.8808 300.6673 -9418.3684 -7600.2368 299.7976 449.4213 477.8739 30728.4234 -41.5236 15.9739
ENERGY: 900000 0.4349 1.5579 0.0000 0.0000 -10756.2896 1378.8717 0.0000 0.0000 1790.4146 -7585.0104 301.8351 -9375.4250 -7610.9687 299.3795 -632.1360 -635.6604 30709.1006 -48.0766 1.0270
ENERGY: 1200000 0.0027 1.6706 0.0000 0.0000 -10854.3773 1436.7842 0.0000 0.0000 1755.1525 -7660.7673 295.8904 -9415.9198 -7611.2507 299.1466 -355.0424 -263.9902 30763.5384 -53.0419 -6.0114
ENERGY: 1500000 1.3596 0.7234 0.0000 0.0000 -10682.1953 1270.4015 0.0000 0.0000 1744.3316 -7665.3793 294.0662 -9409.7109 -7612.8574 299.5040 -1508.6058 -1510.3299 30818.5056 -165.6062 -125.6063
TCL: Running FEP window  16: Lambda1 0.7500000000000001 Lambda2 0.8000000000000002 [dLambda 0.050000000000000044]
TCL: Setting parameter firsttimestep to 0
TCL: Setting parameter alchLambda to 0.7500000000000001
Info: NONBONDED TABLE R-SQUARED SPACING: 0.0625
Info: NONBONDED TABLE SIZE: 705 POINTS
TCL: Setting parameter alchLambda2 to 0.8000000000000002
Info: NONBONDED TABLE R-SQUARED SPACING: 0.0625
Info: NONBONDED TABLE SIZE: 705 POINTS
TCL: Running for 1500000 steps
ETITLE: TS BOND ANGLE DIHED IMPRP ELECT VDW BOUNDARY MISC KINETIC TOTAL TEMP POTENTIAL TOTALAVG TEMPAVG PRESSURE GPRESSURE VOLUME PRESSAVG GPRESSAVG
ENERGY: 0 1.3596 0.7234 0.0000 0.0000 -10682.3589 1270.4632 0.0000 0.0000 1743.4092 -7666.4036 293.9107 -9409.8128 -7666.4036 293.9107 -1594.7367 -1505.4787 30818.5056 -1594.7367 -1505.4787
ENERGY: 300000 0.2353 1.6550 0.0000 0.0000 -10850.1501 1482.1109 0.0000 0.0000 1761.1774 -7604.9715 296.9061 -9366.1489 -7640.4342 297.2687 254.2816 326.3615 30711.9745 -445.4879 -370.7860
ENERGY: 600000 0.0893 2.1168 0.0000 0.0000 -10739.4366 1435.6486 0.0000 0.0000 1825.7583 -7475.8235 307.7934 -9301.5818 -7599.9270 300.5158 81.2366 126.0639 30780.6848 -222.7912 -162.9532
ENERGY: 900000 0.0017 1.0246 0.0000 0.0000 -10805.3132 1469.4242 0.0000 0.0000 1731.1749 -7603.6877 291.8482 -9334.8626 -7606.4080 299.8590 -10.4460 -14.8994 31193.9184 -98.9116 -43.9378
ENERGY: 1200000 0.1090 0.8589 0.0000 0.0000 -10849.4078 1492.7282 0.0000 0.0000 1751.2400 -7604.4717 295.2308 -9355.7117 -7607.6588 299.2963 383.0610 442.4841 30702.2096 -62.5646 -8.8612
ENERGY: 1500000 0.1173 2.0123 0.0000 0.0000 -10866.6362 1400.0124 0.0000 0.0000 1766.3903 -7698.1039 297.7849 -9464.4942 -7604.9889 299.4137 -741.8298 -669.3791 30765.6200 -159.9421 -100.8912
TCL: Running FEP window  17: Lambda1 0.8000000000000002 Lambda2 0.8500000000000002 [dLambda 0.050000000000000044]
TCL: Setting parameter firsttimestep to 0
TCL: Setting parameter alchLambda to 0.8000000000000002
Info: NONBONDED TABLE R-SQUARED SPACING: 0.0625
Info: NONBONDED TABLE SIZE: 705 POINTS
TCL: Setting parameter alchLambda2 to 0.8500000000000002
Info: NONBONDED TABLE R-SQUARED SPACING: 0.0625
Info: NONBONDED TABLE SIZE: 705 POINTS
TCL: Running for 1500000 steps
ETITLE: TS BOND ANGLE DIHED IMPRP ELECT VDW BOUNDARY MISC KINETIC TOTAL TEMP POTENTIAL TOTALAVG TEMPAVG PRESSURE GPRESSURE VOLUME PRESSAVG GPRESSAVG
ENERGY: 0 0.1173 2.0123 0.0000 0.0000 -10866.9531 1399.7350 0.0000 0.0000 1765.5235 -7699.5649 297.6388 -9465.0884 -7699.5649 297.6388 -746.9254 -667.1935 30765.6200 -746.9254 -667.1935
ENERGY: 300000 0.0332 1.1970 0.0000 0.0000 -10888.0382 1473.5218 0.0000 0.0000 1776.8707 -7636.4154 299.5518 -9413.2861 -7645.6314 298.2544 -209.1466 -124.7613 31180.7940 -246.0193 -177.9866
ENERGY: 600000 0.0969 0.9241 0.0000 0.0000 -10712.8489 1378.4757 0.0000 0.0000 1827.5948 -7505.7574 308.1030 -9333.3522 -7620.3756 300.9917 -267.0698 -263.7184 30536.9437 60.1797 120.1499
ENERGY: 900000 0.5654 1.5216 0.0000 0.0000 -10802.0315 1454.2765 0.0000 0.0000 1784.1772 -7561.4908 300.7835 -9345.6680 -7609.1323 300.7195 97.6543 157.2699 30583.6260 198.0187 260.2494
ENERGY: 1200000 0.0003 1.7297 0.0000 0.0000 -10833.6808 1509.8513 0.0000 0.0000 1738.1148 -7583.9847 293.0181 -9322.0995 -7613.9538 299.3736 531.2631 566.5921 30811.3956 169.6353 234.0721
ENERGY: 1500000 0.4946 1.3519 0.0000 0.0000 -10864.7036 1491.3822 0.0000 0.0000 1768.3455 -7603.1294 298.1145 -9371.4749 -7613.6630 298.8142 315.2349 373.8132 30830.8128 77.4265 147.8417
TCL: Running FEP window  18: Lambda1 0.8500000000000002 Lambda2 0.9000000000000002 [dLambda 0.050000000000000044]
TCL: Setting parameter firsttimestep to 0
TCL: Setting parameter alchLambda to 0.8500000000000002
Info: NONBONDED TABLE R-SQUARED SPACING: 0.0625
Info: NONBONDED TABLE SIZE: 705 POINTS
TCL: Setting parameter alchLambda2 to 0.9000000000000002
Info: NONBONDED TABLE R-SQUARED SPACING: 0.0625
Info: NONBONDED TABLE SIZE: 705 POINTS
TCL: Running for 1500000 steps
ETITLE: TS BOND ANGLE DIHED IMPRP ELECT VDW BOUNDARY MISC KINETIC TOTAL TEMP POTENTIAL TOTALAVG TEMPAVG PRESSURE GPRESSURE VOLUME PRESSAVG GPRESSAVG
ENERGY: 0 0.4946 1.3519 0.0000 0.0000 -10864.9572 1491.3792 0.0000 0.0000 1767.4553 -7604.2763 297.9645 -9371.7316 -7604.2763 297.9645 290.3074 376.4449 30830.8128 290.3074 376.4449
ENERGY: 300000 0.0161 0.5501 0.0000 0.0000 -10888.7279 1483.1805 0.0000 0.0000 1758.9273 -7646.0539 296.5268 -9404.9812 -7606.2380 298.6503 390.6875 450.7914 30095.2074 61.0688 132.3161
ENERGY: 600000 0.0017 2.1006 0.0000 0.0000 -10821.7079 1439.3581 0.0000 0.0000 1815.4663 -7564.7812 306.0584 -9380.2475 -7594.5185 300.3036 -174.7461 -52.4804 30830.1688 7.4615 90.6310
ENERGY: 900000 0.0430 1.8348 0.0000 0.0000 -10815.5583 1443.6301 0.0000 0.0000 1804.6181 -7565.4323 304.2295 -9370.0504 -7590.3886 300.6563 -86.2210 -78.9196 30784.5341 25.0404 106.0261
ENERGY: 1200000 0.2897 3.1688 0.0000 0.0000 -10791.7570 1455.7169 0.0000 0.0000 1793.8685 -7538.7132 302.4173 -9332.5817 -7576.6377 300.2967 143.6633 252.1346 30684.9001 -29.2656 53.4824
ENERGY: 1500000 0.5442 2.0503 0.0000 0.0000 -10663.9772 1375.0495 0.0000 0.0000 1745.4005 -7540.9327 294.2464 -9286.3331 -7585.8096 299.1227 -650.6587 -534.4838 31070.1313 -25.0241 54.6140
TCL: Running FEP window  19: Lambda1 0.9000000000000002 Lambda2 0.9500000000000003 [dLambda 0.050000000000000044]
TCL: Setting parameter firsttimestep to 0
TCL: Setting parameter alchLambda to 0.9000000000000002
Info: NONBONDED TABLE R-SQUARED SPACING: 0.0625
Info: NONBONDED TABLE SIZE: 705 POINTS
TCL: Setting parameter alchLambda2 to 0.9500000000000003
Info: NONBONDED TABLE R-SQUARED SPACING: 0.0625
Info: NONBONDED TABLE SIZE: 705 POINTS
TCL: Running for 1500000 steps
ETITLE: TS BOND ANGLE DIHED IMPRP ELECT VDW BOUNDARY MISC KINETIC TOTAL TEMP POTENTIAL TOTALAVG TEMPAVG PRESSURE GPRESSURE VOLUME PRESSAVG GPRESSAVG
ENERGY: 0 0.5442 2.0503 0.0000 0.0000 -10664.2485 1375.3662 0.0000 0.0000 1744.5389 -7541.7489 294.1011 -9286.2878 -7541.7489 294.1011 -611.0365 -529.7369 31070.1313 -611.0365 -529.7369
ENERGY: 300000 0.2087 1.6953 0.0000 0.0000 -10971.0925 1519.0781 0.0000 0.0000 1839.3384 -7610.7720 310.0828 -9450.1104 -7600.7503 301.5325 -58.7475 18.2435 31284.5997 -538.1696 -446.2564
ENERGY: 600000 0.8649 1.1351 0.0000 0.0000 -10828.6098 1478.5595 0.0000 0.0000 1733.8807 -7614.1697 292.3043 -9348.0504 -7608.9556 299.5185 250.7958 306.6636 30668.7709 -390.1323 -308.8370
ENERGY: 900000 0.1640 1.2644 0.0000 0.0000 -10816.6225 1481.3046 0.0000 0.0000 1759.4623 -7574.4271 296.6170 -9333.8895 -7606.7923 299.4283 321.8674 293.2944 30775.6156 -239.7491 -171.3812
ENERGY: 1200000 0.1004 2.1812 0.0000 0.0000 -10939.0269 1543.3674 0.0000 0.0000 1736.8097 -7656.5681 292.7981 -9393.3778 -7596.7188 299.2447 721.6450 752.7145 30582.0069 -114.2200 -51.8591
ENERGY: 1500000 1.6647 2.0640 0.0000 0.0000 -10907.0113 1464.3501 0.0000 0.0000 1799.2488 -7639.6838 303.3243 -9438.9326 -7603.8012 298.8650 -343.0446 -248.0165 31143.2144 -123.6761 -61.5567
TCL: Running FEP window  20: Lambda1 0.9500000000000003 Lambda2 1.0    [dLambda 0.04999999999999971]
TCL: Setting parameter firsttimestep to 0
TCL: Setting parameter alchLambda to 0.9500000000000003
Info: NONBONDED TABLE R-SQUARED SPACING: 0.0625
Info: NONBONDED TABLE SIZE: 705 POINTS
TCL: Setting parameter alchLambda2 to 1.0
Info: NONBONDED TABLE R-SQUARED SPACING: 0.0625
Info: NONBONDED TABLE SIZE: 705 POINTS
TCL: Running for 1500000 steps
ETITLE: TS BOND ANGLE DIHED IMPRP ELECT VDW BOUNDARY MISC KINETIC TOTAL TEMP POTENTIAL TOTALAVG TEMPAVG PRESSURE GPRESSURE VOLUME PRESSAVG GPRESSAVG
ENERGY: 0 1.6647 2.0640 0.0000 0.0000 -10907.3848 1464.2213 0.0000 0.0000 1798.3867 -7641.0482 303.1790 -9439.4348 -7641.0482 303.1790 -344.0631 -247.8546 31143.2144 -344.0631 -247.8546
ENERGY: 300000 0.0376 1.7330 0.0000 0.0000 -10828.9352 1495.5669 0.0000 0.0000 1829.2084 -7502.3892 308.3751 -9331.5976 -7606.9920 304.5058 482.4277 567.9702 30736.9940 -353.9936 -274.4097
ENERGY: 600000 0.3088 0.9095 0.0000 0.0000 -10583.0105 1272.1931 0.0000 0.0000 1759.7796 -7549.8195 296.6705 -9309.5991 -7607.6234 301.8736 -1312.8238 -1270.1842 31011.4722 -515.8437 -457.1464
ENERGY: 900000 0.1117 0.2966 0.0000 0.0000 -10794.8977 1434.0376 0.0000 0.0000 1787.2760 -7573.1758 301.3059 -9360.4518 -7591.7592 302.4817 -123.5068 -59.1433 30884.0229 -327.8395 -268.7936
ENERGY: 1200000 0.1820 0.7709 0.0000 0.0000 -10939.8234 1559.7430 0.0000 0.0000 1822.8217 -7556.3057 307.2984 -9379.1275 -7591.6949 302.3330 817.3885 840.4426 30717.5585 -197.9945 -141.0873
ENERGY: 1500000 0.0581 1.5484 0.0000 0.0000 -10828.2210 1432.6517 0.0000 0.0000 1798.3987 -7595.5641 303.1810 -9393.9628 -7592.8070 301.7403 -0.5875 27.8478 30693.1179 -225.7814 -168.7540
TCL: Exiting due to exit command.
