Info: SIMULATION PARAMETERS:
Info: TIMESTEP               2
Info: NUMBER OF STEPS        0
Info: STEPS PER CYCLE        10
Info: PERIODIC CELL BASIS 1  31.8329 0 0
Info: PERIODIC CELL BASIS 2  0 30.6756 0
Info: PERIODIC CELL BASIS 3  0 0 31.5836
Info: PERIODIC CELL CENTER   0 0 0
Info: WRAPPING WATERS AROUND PERIODIC BOUNDARIES ON OUTPUT.
Info: WRAPPING ALL CLUSTERS AROUND PERIODIC BOUNDARIES ON OUTPUT.
Info: FIRST LDB TIMESTEP     50
Info: LAST LDB TIMESTEP     -1
Info: HOM BACKGROUND SCALING 1
Info: PME BACKGROUND SCALING 1
Info: MIN ATOMS PER PATCH    40
Info: EMPTY PATCH LOAD       40 ATOMS
Info: VELOCITY FILE          mobley_6714389_equil.vel
Info: CENTER OF MASS MOVING INITIALLY? NO
Info: DIELECTRIC             1
Info: EXCLUDE                SCALED ONE-FOUR
Info: 1-4 ELECTROSTATICS SCALED BY 0.833333
Info: MODIFIED 1-4 VDW PARAMETERS WILL BE USED
Info: DCD FILENAME           mobley_6714389_prod.dcd
Info: DCD FREQUENCY          100000
Info: DCD FIRST STEP         100000
Info: DCD FILE WILL CONTAIN UNIT CELL DATA
Info: XST FILENAME           mobley_6714389_prod.xst
Info: XST FREQUENCY          100000
Info: NO VELOCITY DCD OUTPUT
Info: NO FORCE DCD OUTPUT
Info: OUTPUT FILENAME        mobley_6714389_prod
Info: BINARY OUTPUT FILES WILL BE USED
Info: RESTART FILENAME       mobley_6714389_prod.restart
Info: RESTART FREQUENCY      100000
Info: BINARY RESTART FILES WILL BE USED
Info: CUTOFF                 9
Info: PAIRLIST DISTANCE      11
Info: PAIRLIST SHRINK RATE   0.01
Info: PAIRLIST GROW RATE     0.01
Info: PAIRLIST TRIGGER       0.3
Info: PAIRLISTS PER CYCLE    2
Info: PAIRLISTS ENABLED
Info: MARGIN                 2
Info: HYDROGEN GROUP CUTOFF  2.5
Info: PATCH DIMENSION        15.5
Info: ENERGY OUTPUT STEPS    100000
Info: ENERGY EVALUATION STEPS    100000
Info: OUTPUT ENERGY PRECISION 4
Info: CROSSTERM ENERGY INCLUDED IN DIHEDRAL
Info: TIMING OUTPUT STEPS    1000000
Info: PRESSURE OUTPUT STEPS  100000
Info: ALCHEMICAL FEP ON
Info: FEP CURRENT LAMBDA VALUE     0
Info: FEP COMPARISON LAMBDA VALUE  0.05
Info: FEP INTRA-ALCHEMICAL NON-BONDED INTERACTIONS WILL BE RETAINED
Info: FEP INTRA-ALCHEMICAL BONDED INTERACTIONS WILL BE RETAINED
Info: FEP VDW SHIFTING COEFFICIENT 5
Info: FEP ELEC. ACTIVE FOR ANNIHILATED PARTICLES BETWEEN LAMBDA = 0 AND LAMBDA = 0.5
Info: FEP ELEC. ACTIVE FOR EXNIHILATED PARTICLES BETWEEN LAMBDA = 0.5 AND LAMBDA = 1
Info: FEP VDW ACTIVE FOR ANNIHILATED PARTICLES BETWEEN LAMBDA = 0 AND LAMBDA = 1
Info: FEP VDW ACTIVE FOR EXNIHILATED PARTICLES BETWEEN LAMBDA = 0 AND LAMBDA = 1
Info: FEP BOND ACTIVE FOR ANNIHILATED PARTICLES BETWEEN LAMBDA = 1 AND LAMBDA = 1
Info: FEP BOND ACTIVE FOR EXNIHILATED PARTICLES BETWEEN LAMBDA = 0 AND LAMBDA = 0
Info: LANGEVIN DYNAMICS ACTIVE
Info: LANGEVIN TEMPERATURE   300
Info: LANGEVIN USING BBK INTEGRATOR
Info: LANGEVIN DAMPING COEFFICIENT IS 1 INVERSE PS
Info: LANGEVIN DYNAMICS APPLIED TO HYDROGENS
Info: LANGEVIN PISTON PRESSURE CONTROL ACTIVE
Info:        TARGET PRESSURE IS 1.01325 BAR
Info:     OSCILLATION PERIOD IS 50 FS
Info:             DECAY TIME IS 25 FS
Info:     PISTON TEMPERATURE IS 300 K
Info:       PRESSURE CONTROL IS GROUP-BASED
Info:    INITIAL STRAIN RATE IS 9.33542e-05 9.33542e-05 9.33542e-05
Info:       CELL FLUCTUATION IS ISOTROPIC
Info: PARTICLE MESH EWALD (PME) ACTIVE
Info: PME TOLERANCE               1e-06
Info: PME EWALD COEFFICIENT       0.348832
Info: PME INTERPOLATION ORDER     4
Info: PME GRID DIMENSIONS         32 32 32
Info: PME MAXIMUM GRID SPACING    1
Info: PME CALCULATION WILL BE PERFORMED ON GPU
Info: FULL ELECTROSTATIC EVALUATION FREQUENCY      2
Info: USING VERLET I (r-RESPA) MTS SCHEME.
Info: C1 SPLITTING OF LONG RANGE ELECTROSTATICS
Info: PLACING ATOMS IN PATCHES BY HYDROGEN GROUPS
Info: RIGID BONDS TO HYDROGEN : ALL
Info:         ERROR TOLERANCE : 1e-08
Info:          MAX ITERATIONS : 100
Info: RIGID WATER USING SETTLE ALGORITHM
Info: RANDOM NUMBER SEED     1743477755
Info: USE HYDROGEN BONDS?    NO
Info: Using AMBER format force field!
Info: AMBER PARM FILE        mobley_6714389.prmtop
Info: COORDINATE PDB         mobley_6714389.pdb
Info: Exclusions will be read from PARM file!
Info: SCNB (VDW SCALING)     2
Info: USING ARITHMETIC MEAN TO COMBINE L-J SIGMA PARAMETERS
Info: BINARY COORDINATES     mobley_6714389_equil.coor
Info: SUMMARY OF PARAMETERS:
Info: 5 BONDS
Info: 4 ANGLES
Info:   4 HARMONIC
Info:   0 COSINE-BASED
Info: 1 DIHEDRAL
Info: 0 IMPROPER
Info: 0 CROSSTERM
Info: 0 VDW
Info: 21 VDW_PAIRS
Info: 0 NBTHOLE_PAIRS
Info: To read alchdata from file: mobley_6714389.pdb
Info: To read alchflag data from column: 5
Info: STRUCTURE SUMMARY:
Info: 2974 ATOMS
Info: 2973 BONDS
Info: 9 ANGLES
Info: 6 DIHEDRALS
Info: 0 IMPROPERS
Info: 0 CROSSTERMS
Info: 2988 EXCLUSIONS
Info: 2972 RIGID BONDS
Info: ALCH: 0 ATOMS TO DISAPPEAR IN FINAL STATE
Info: ALCH: 7 ATOMS TO APPEAR IN FINAL STATE
Info: 5950 DEGREES OF FREEDOM
Info: 991 HYDROGEN GROUPS
Info: 4 ATOMS IN LARGEST HYDROGEN GROUP
Info: 991 MIGRATION GROUPS
Info: 4 ATOMS IN LARGEST MIGRATION GROUP
Info: TOTAL MASS = 17848.9 amu
Info: TOTAL CHARGE = 0.000100093 e
Info: MASS DENSITY = 0.961039 g/cm^3
Info: ATOM DENSITY = 0.0964299 atoms/A^3
Info: ADDED 0 IMPLICIT EXCLUSIONS
Info: NONBONDED TABLE R-SQUARED SPACING: 0.0625
Info: NONBONDED TABLE SIZE: 705 POINTS
Info: REMOVING COM VELOCITY 0.0312469 0.0584115 0.24579
Info: Use 3D box decompostion in PME FFT.
Info: Updated CUDA force table with 4096 elements.
Info: Updated CUDA LJ table with 6 x 6 elements.
Info: Found 10 unique exclusion lists needing 12 bytes
TCL: Running for 1500000 steps
ETITLE: TS BOND ANGLE DIHED IMPRP ELECT VDW BOUNDARY MISC KINETIC TOTAL TEMP POTENTIAL TOTALAVG TEMPAVG PRESSURE GPRESSURE VOLUME PRESSAVG GPRESSAVG
ENERGY: 0 0.2225 1.6780 0.2106 0.0000 -10812.4279 1501.9174 0.0000 0.0000 1747.6434 -7560.7560 295.6148 -9308.3994 -7560.7560 295.6148 301.1356 375.4774 30841.0635 301.1356 375.4774
ENERGY: 300000 0.1832 1.3803 0.4269 0.0000 -10920.6642 1477.4449 0.0000 0.0000 1759.0775 -7682.1515 297.5489 -9441.2289 -7632.5604 297.8138 -17.7250 22.4229 30304.5227 -41.2747 28.7023
ENERGY: 600000 0.0453 0.9810 0.1192 0.0000 -10734.1581 1413.7712 0.0000 0.0000 1717.1183 -7602.1230 290.4515 -9319.2412 -7606.2975 297.7660 -454.1349 -374.5930 30730.7755 -193.8323 -126.0713
ENERGY: 900000 0.7698 1.2633 0.2114 0.0000 -10725.8817 1416.6052 0.0000 0.0000 1821.5475 -7485.4846 308.1158 -9307.0320 -7579.0162 298.7676 -213.1984 -109.3038 30465.1954 -244.6985 -176.7426
ENERGY: 1200000 0.0000 3.1652 0.2683 0.0000 -10793.5516 1431.2521 0.0000 0.0000 1870.7946 -7488.0714 316.4459 -9358.8660 -7566.3297 300.1219 -126.0220 -85.9022 30493.6044 -233.8037 -160.8642
ENERGY: 1500000 0.0074 4.2349 0.6008 0.0000 -10881.7265 1449.2899 0.0000 0.0000 1801.4034 -7626.1901 304.7084 -9427.5934 -7571.7138 300.0785 -252.8080 -219.2305 30320.7677 -119.1500 -55.0624
TCL: Running FEP window   2: Lambda1 0.05   Lambda2 0.1    [dLambda 0.05  ]
TCL: Setting parameter firsttimestep to 0
TCL: Setting parameter alchLambda to 0.05
Info: NONBONDED TABLE R-SQUARED SPACING: 0.0625
Info: NONBONDED TABLE SIZE: 705 POINTS
TCL: Setting parameter alchLambda2 to 0.1
Info: NONBONDED TABLE R-SQUARED SPACING: 0.0625
Info: NONBONDED TABLE SIZE: 705 POINTS
TCL: Running for 1500000 steps
ETITLE: TS BOND ANGLE DIHED IMPRP ELECT VDW BOUNDARY MISC KINETIC TOTAL TEMP POTENTIAL TOTALAVG TEMPAVG PRESSURE GPRESSURE VOLUME PRESSAVG GPRESSAVG
ENERGY: 0 0.0074 4.2349 0.6008 0.0000 -10881.7264 1450.7756 0.0000 0.0000 1800.4917 -7625.6160 304.5542 -9426.1077 -7625.6160 304.5542 -302.2019 -217.0140 30320.7677 -302.2019 -217.0140
ENERGY: 300000 0.0355 2.2270 0.0515 0.0000 -10747.9529 1412.0128 0.0000 0.0000 1742.4529 -7591.1732 294.7369 -9333.6261 -7523.0213 304.5828 -314.3451 -267.6699 30422.5075 -387.9876 -325.5735
ENERGY: 600000 0.2318 2.6757 0.2096 0.0000 -10780.3891 1381.2519 0.0000 0.0000 1775.6669 -7620.3532 300.3550 -9396.0201 -7555.3882 301.5315 -789.3819 -675.1080 30462.5785 -313.2884 -240.0069
ENERGY: 900000 0.0789 0.8470 0.3493 0.0000 -10761.5920 1439.4025 0.0000 0.0000 1749.9653 -7570.9490 296.0076 -9320.9143 -7565.3510 299.7942 -147.3266 -109.4374 30683.3480 -160.3385 -86.0035
ENERGY: 1200000 0.5251 2.2596 0.6726 0.0000 -10750.0046 1452.0008 0.0000 0.0000 1729.2473 -7565.2992 292.5031 -9294.5465 -7564.5419 298.5447 167.7455 335.8794 30165.5222 -159.2765 -75.6421
ENERGY: 1500000 0.2298 1.6708 0.3301 0.0000 -10845.0357 1512.9394 0.0000 0.0000 1793.7299 -7536.1356 303.4104 -9329.8655 -7560.0649 299.8301 453.7951 530.8580 30559.9445 -109.1660 -22.9694
TCL: Running FEP window   3: Lambda1 0.1    Lambda2 0.15000000000000002 [dLambda 0.05000000000000002]
TCL: Setting parameter firsttimestep to 0
TCL: Setting parameter alchLambda to 0.1
Info: NONBONDED TABLE R-SQUARED SPACING: 0.0625
Info: NONBONDED TABLE SIZE: 705 POINTS
TCL: Setting parameter alchLambda2 to 0.15000000000000002
Info: NONBONDED TABLE R-SQUARED SPACING: 0.0625
Info: NONBONDED TABLE SIZE: 705 POINTS
TCL: Running for 1500000 steps
ETITLE: TS BOND ANGLE DIHED IMPRP ELECT VDW BOUNDARY MISC KINETIC TOTAL TEMP POTENTIAL TOTALAVG TEMPAVG PRESSURE GPRESSURE VOLUME PRESSAVG GPRESSAVG
ENERGY: 0 0.2298 1.6708 0.3301 0.0000 -10845.0359 1513.0976 0.0000 0.0000 1792.8526 -7536.8550 303.2620 -9329.7075 -7536.8550 303.2620 464.7010 534.6863 30559.9445 464.7010 534.6863
ENERGY: 300000 0.0557 3.6671 0.2499 0.0000 -10772.6402 1440.3443 0.0000 0.0000 1780.1143 -7548.2087 301.1073 -9328.3231 -7560.8728 300.0182 -124.1833 -65.6717 30608.0906 -38.0221 53.3167
ENERGY: 600000 0.3708 2.7787 0.0233 0.0000 -10854.2270 1465.5244 0.0000 0.0000 1787.5378 -7597.9920 302.3630 -9385.5298 -7549.5856 301.8922 -153.6788 -108.0778 30829.6065 -67.5288 16.7139
ENERGY: 900000 0.0349 0.9316 0.7967 0.0000 -10733.8245 1410.3486 0.0000 0.0000 1826.4301 -7495.2826 308.9417 -9321.7127 -7541.5910 302.8652 -287.9448 -183.1171 30398.1989 -29.7234 59.4428
ENERGY: 1200000 0.8446 1.3753 0.0927 0.0000 -10927.9439 1610.8522 0.0000 0.0000 1801.4981 -7513.2812 304.7244 -9314.7793 -7536.3849 303.0168 1592.5013 1614.2059 29961.1171 90.6506 170.3513
ENERGY: 1500000 0.7802 1.5802 0.0637 0.0000 -10659.2715 1409.5453 0.0000 0.0000 1822.4119 -7424.8903 308.2620 -9247.3022 -7540.8826 302.5802 -178.3613 -161.2541 30869.2659 31.1959 103.5366
TCL: Running FEP window   4: Lambda1 0.15000000000000002 Lambda2 0.2    [dLambda 0.04999999999999999]
TCL: Setting parameter firsttimestep to 0
TCL: Setting parameter alchLambda to 0.15000000000000002
Info: NONBONDED TABLE R-SQUARED SPACING: 0.0625
Info: NONBONDED TABLE SIZE: 705 POINTS
TCL: Setting parameter alchLambda2 to 0.2
Info: NONBONDED TABLE R-SQUARED SPACING: 0.0625
Info: NONBONDED TABLE SIZE: 705 POINTS
TCL: Running for 1500000 steps
ETITLE: TS BOND ANGLE DIHED IMPRP ELECT VDW BOUNDARY MISC KINETIC TOTAL TEMP POTENTIAL TOTALAVG TEMPAVG PRESSURE GPRESSURE VOLUME PRESSAVG GPRESSAVG
ENERGY: 0 0.7802 1.5802 0.0637 0.0000 -10659.2706 1409.3214 0.0000 0.0000 1821.5305 -7425.9945 308.1129 -9247.5251 -7425.9945 308.1129 -253.8694 -161.8095 30869.2659 -253.8694 -161.8095
ENERGY: 300000 0.0002 1.8004 1.6261 0.0000 -10869.3503 1455.2038 0.0000 0.0000 1792.3579 -7618.3619 303.1783 -9410.7198 -7567.2990 305.6235 -65.2854 43.0811 30324.7752 5.6764 91.7114
ENERGY: 600000 0.3736 4.4991 0.6093 0.0000 -10856.0136 1524.4053 0.0000 0.0000 1796.4213 -7529.7050 303.8656 -9326.1262 -7550.2609 306.5184 431.4554 518.8597 30689.5374 95.0957 167.1937
ENERGY: 900000 0.3519 1.4119 0.2607 0.0000 -10913.2392 1550.9405 0.0000 0.0000 1791.9623 -7568.3118 303.1114 -9360.2742 -7547.9512 306.2942 666.6986 782.4949 30213.3541 215.2989 289.3532
ENERGY: 1200000 0.0000 2.3179 0.1165 0.0000 -10680.6829 1401.5950 0.0000 0.0000 1724.1970 -7552.4564 291.6489 -9276.6534 -7555.5208 304.2818 -291.1710 -215.9182 30460.3556 180.7844 249.0394
ENERGY: 1500000 1.2411 2.3805 0.0446 0.0000 -10757.6746 1448.0041 0.0000 0.0000 1743.2457 -7562.7586 294.8710 -9306.0043 -7557.3257 302.7915 -188.6247 -80.2774 30838.6158 108.7348 179.5446
TCL: Running FEP window   5: Lambda1 0.2    Lambda2 0.25   [dLambda 0.04999999999999999]
TCL: Setting parameter firsttimestep to 0
TCL: Setting parameter alchLambda to 0.2
Info: NONBONDED TABLE R-SQUARED SPACING: 0.0625
Info: NONBONDED TABLE SIZE: 705 POINTS
TCL: Setting parameter alchLambda2 to 0.25
Info: NONBONDED TABLE R-SQUARED SPACING: 0.0625
Info: NONBONDED TABLE SIZE: 705 POINTS
TCL: Running for 1500000 steps
ETITLE: TS BOND ANGLE DIHED IMPRP ELECT VDW BOUNDARY MISC KINETIC TOTAL TEMP POTENTIAL TOTALAVG TEMPAVG PRESSURE GPRESSURE VOLUME PRESSAVG GPRESSAVG
ENERGY: 0 1.2411 2.3805 0.0446 0.0000 -10757.6731 1449.1158 0.0000 0.0000 1742.3342 -7562.5568 294.7168 -9304.8911 -7562.5568 294.7168 -148.5386 -74.2833 30838.6158 -148.5386 -74.2833
ENERGY: 300000 0.0000 5.1001 0.8215 0.0000 -10794.2528 1461.2799 0.0000 0.0000 1785.7848 -7541.2664 302.0665 -9327.0512 -7546.7435 299.6360 134.2218 167.1903 30678.7525 69.2228 126.4937
ENERGY: 600000 1.0484 1.3065 1.4551 0.0000 -10692.7900 1364.4055 0.0000 0.0000 1730.1270 -7594.4477 292.6519 -9324.5746 -7565.5458 297.9793 -803.0051 -756.4070 30623.0320 -215.7011 -161.3428
ENERGY: 900000 0.0092 4.1270 0.7018 0.0000 -10852.0410 1552.0609 0.0000 0.0000 1796.5981 -7498.5440 303.8956 -9295.1421 -7550.7738 298.7360 1279.3352 1393.4763 29905.7318 -157.4278 -91.8599
ENERGY: 1200000 0.2029 2.4314 0.3179 0.0000 -10814.6157 1481.6287 0.0000 0.0000 1779.1791 -7550.8556 300.9491 -9330.0346 -7548.4501 299.3573 268.0553 334.2935 30507.5339 -183.7783 -119.4139
ENERGY: 1500000 0.0286 1.8003 0.1196 0.0000 -10729.4365 1423.9121 0.0000 0.0000 1793.4977 -7510.0783 303.3711 -9303.5760 -7549.2918 299.9263 -67.0422 -39.6651 30360.6082 -187.8483 -130.0166
TCL: Running FEP window   6: Lambda1 0.25   Lambda2 0.3    [dLambda 0.04999999999999999]
TCL: Setting parameter firsttimestep to 0
TCL: Setting parameter alchLambda to 0.25
Info: NONBONDED TABLE R-SQUARED SPACING: 0.0625
Info: NONBONDED TABLE SIZE: 705 POINTS
TCL: Setting parameter alchLambda2 to 0.3
Info: NONBONDED TABLE R-SQUARED SPACING: 0.0625
Info: NONBONDED TABLE SIZE: 705 POINTS
TCL: Running for 1500000 steps
ETITLE: TS BOND ANGLE DIHED IMPRP ELECT VDW BOUNDARY MISC KINETIC TOTAL TEMP POTENTIAL TOTALAVG TEMPAVG PRESSURE GPRESSURE VOLUME PRESSAVG GPRESSAVG
ENERGY: 0 0.0286 1.8003 0.1196 0.0000 -10729.4343 1425.4099 0.0000 0.0000 1792.6097 -7509.4661 303.2209 -9302.0759 -7509.4661 303.2209 -100.3481 -31.1082 30360.6082 -100.3481 -31.1082
ENERGY: 300000 1.0264 1.1068 0.0295 0.0000 -10776.3943 1476.5545 0.0000 0.0000 1754.5418 -7543.1354 296.7817 -9297.6772 -7546.3421 297.0240 3.4965 61.6766 31193.2956 68.2249 131.2379
ENERGY: 600000 0.0934 3.2330 0.2529 0.0000 -10804.1361 1489.1641 0.0000 0.0000 1754.8340 -7556.5588 296.8311 -9311.3928 -7533.5558 299.1936 453.6294 570.4489 30261.7953 115.4605 175.5476
ENERGY: 900000 0.0733 1.5566 0.5491 0.0000 -10746.3228 1400.3403 0.0000 0.0000 1767.0709 -7576.7325 298.9010 -9343.8034 -7530.4079 300.0786 -422.9736 -353.3558 30657.5266 -9.4153 50.6772
ENERGY: 1200000 0.0024 1.6103 0.0198 0.0000 -10734.0782 1373.0827 0.0000 0.0000 1768.9471 -7590.4158 299.2184 -9359.3629 -7547.0699 299.3190 -607.4652 -563.4362 30691.2457 -69.3593 -2.4396
ENERGY: 1500000 0.0318 3.6220 0.3759 0.0000 -10746.0085 1478.8469 0.0000 0.0000 1823.9554 -7439.1765 308.5231 -9263.1319 -7547.6876 300.4472 436.9252 498.0348 30480.1370 -41.6323 23.5960
TCL: Running FEP window   7: Lambda1 0.3    Lambda2 0.35   [dLambda 0.04999999999999999]
TCL: Setting parameter firsttimestep to 0
TCL: Setting parameter alchLambda to 0.3
Info: NONBONDED TABLE R-SQUARED SPACING: 0.0625
Info: NONBONDED TABLE SIZE: 705 POINTS
TCL: Setting parameter alchLambda2 to 0.35
Info: NONBONDED TABLE R-SQUARED SPACING: 0.0625
Info: NONBONDED TABLE SIZE: 705 POINTS
TCL: Running for 1500000 steps
ETITLE: TS BOND ANGLE DIHED IMPRP ELECT VDW BOUNDARY MISC KINETIC TOTAL TEMP POTENTIAL TOTALAVG TEMPAVG PRESSURE GPRESSURE VOLUME PRESSAVG GPRESSAVG
ENERGY: 0 0.0318 3.6220 0.3759 0.0000 -10746.0074 1479.1666 0.0000 0.0000 1823.0517 -7439.7594 308.3702 -9262.8111 -7439.7594 308.3702 423.7284 499.8555 30480.1370 423.7284 499.8555
ENERGY: 300000 0.0184 0.9115 0.0445 0.0000 -10834.1579 1477.6156 0.0000 0.0000 1762.7712 -7592.7967 298.1737 -9355.5679 -7537.0780 300.7798 142.2784 236.3825 30602.7255 -261.7127 -182.0745
ENERGY: 600000 0.5845 1.1998 0.0419 0.0000 -10815.9689 1455.5398 0.0000 0.0000 1726.6637 -7631.9393 292.0661 -9358.6030 -7539.7389 299.8838 -203.1401 -185.5000 30899.4903 -274.5781 -195.3694
ENERGY: 900000 0.5399 3.8781 0.3083 0.0000 -10938.8345 1599.0905 0.0000 0.0000 1789.6126 -7545.4051 302.7140 -9335.0176 -7540.1772 301.6741 1026.2546 1069.1547 30620.4646 -125.5447 -61.5936
ENERGY: 1200000 0.7862 0.9872 0.2093 0.0000 -10811.2283 1411.0159 0.0000 0.0000 1800.5364 -7597.6933 304.5617 -9398.2297 -7552.8468 301.6534 -196.9788 -186.7023 30134.1185 -19.6524 47.4752
ENERGY: 1500000 0.3712 1.9684 0.1552 0.0000 -10748.7282 1443.5969 0.0000 0.0000 1760.3746 -7542.2618 297.7683 -9302.6364 -7550.3331 301.0866 -66.1902 -15.5225 30834.0749 -79.3772 -19.2949
TCL: Running FEP window   8: Lambda1 0.35   Lambda2 0.39999999999999997 [dLambda 0.04999999999999999]
TCL: Setting parameter firsttimestep to 0
TCL: Setting parameter alchLambda to 0.35
Info: NONBONDED TABLE R-SQUARED SPACING: 0.0625
Info: NONBONDED TABLE SIZE: 705 POINTS
TCL: Setting parameter alchLambda2 to 0.39999999999999997
Info: NONBONDED TABLE R-SQUARED SPACING: 0.0625
Info: NONBONDED TABLE SIZE: 705 POINTS
TCL: Running for 1500000 steps
ETITLE: TS BOND ANGLE DIHED IMPRP ELECT VDW BOUNDARY MISC KINETIC TOTAL TEMP POTENTIAL TOTALAVG TEMPAVG PRESSURE GPRESSURE VOLUME PRESSAVG GPRESSAVG
ENERGY: 0 0.3712 1.9684 0.1552 0.0000 -10748.7266 1443.4509 0.0000 0.0000 1759.4631 -7543.3177 297.6142 -9302.7808 -7543.3177 297.6142 -91.7332 -13.5738 30834.0749 -91.7332 -13.5738
ENERGY: 300000 0.7703 2.5526 0.0922 0.0000 -10883.4994 1503.7478 0.0000 0.0000 1775.3518 -7600.9846 300.3017 -9376.3365 -7567.5250 301.3051 277.6979 356.6624 30464.4397 103.2250 136.2151
ENERGY: 600000 0.2348 1.8345 1.1258 0.0000 -10998.5111 1542.7150 0.0000 0.0000 1753.5720 -7699.0290 296.6177 -9452.6010 -7593.7194 300.0825 144.0343 180.9308 31051.9249 254.8998 303.1723
ENERGY: 900000 0.1470 5.4623 0.0971 0.0000 -10651.8577 1367.6715 0.0000 0.0000 1808.0635 -7470.4164 305.8349 -9278.4799 -7573.1147 300.1038 -683.6989 -691.7504 31276.7155 17.0559 64.2148
ENERGY: 1200000 0.0368 6.9742 1.2930 0.0000 -10770.6315 1450.4166 0.0000 0.0000 1818.8764 -7493.0345 307.6639 -9311.9109 -7563.1172 300.7549 -65.1516 19.8815 30674.6905 -41.9169 12.5297
ENERGY: 1500000 0.0230 2.2011 0.6624 0.0000 -10741.9257 1403.5601 0.0000 0.0000 1804.7713 -7530.7077 305.2781 -9335.4790 -7575.5004 300.8597 -396.9556 -391.0100 30883.5041 -102.8873 -50.8401
TCL: Running FEP window   9: Lambda1 0.39999999999999997 Lambda2 0.44999999999999996 [dLambda 0.04999999999999999]
TCL: Setting parameter firsttimestep to 0
TCL: Setting parameter alchLambda to 0.39999999999999997
Info: NONBONDED TABLE R-SQUARED SPACING: 0.0625
Info: NONBONDED TABLE SIZE: 705 POINTS
TCL: Setting parameter alchLambda2 to 0.44999999999999996
Info: NONBONDED TABLE R-SQUARED SPACING: 0.0625
Info: NONBONDED TABLE SIZE: 705 POINTS
TCL: Running for 1500000 steps
ETITLE: TS BOND ANGLE DIHED IMPRP ELECT VDW BOUNDARY MISC KINETIC TOTAL TEMP POTENTIAL TOTALAVG TEMPAVG PRESSURE GPRESSURE VOLUME PRESSAVG GPRESSAVG
ENERGY: 0 0.0230 2.2011 0.6624 0.0000 -10741.9271 1403.5769 0.0000 0.0000 1803.8921 -7531.5716 305.1294 -9335.4637 -7531.5716 305.1294 -475.0350 -387.7839 30883.5041 -475.0350 -387.7839
ENERGY: 300000 0.1022 2.1897 0.1205 0.0000 -10776.3368 1489.3265 0.0000 0.0000 1749.0157 -7535.5822 295.8470 -9284.5979 -7570.5397 300.9937 519.7775 559.4617 30395.3617 -116.9700 -34.8206
ENERGY: 600000 0.0001 3.9942 0.1457 0.0000 -10927.9954 1518.4544 0.0000 0.0000 1724.6680 -7680.7330 291.7285 -9405.4010 -7599.9206 297.8686 400.9639 451.0845 30249.4707 -140.0607 -72.6743
ENERGY: 900000 0.0150 2.0994 0.1471 0.0000 -10757.7735 1397.4388 0.0000 0.0000 1785.5528 -7572.5204 302.0272 -9358.0732 -7587.3787 299.3984 -515.2000 -413.1231 30452.3390 -38.8442 28.9126
ENERGY: 1200000 2.8884 1.7938 0.0484 0.0000 -10841.4540 1472.9090 0.0000 0.0000 1799.3869 -7564.4276 304.3673 -9363.8145 -7589.4825 299.3234 3.8252 85.0530 30497.0580 -104.6599 -35.5345
ENERGY: 1500000 1.2158 0.5871 0.1828 0.0000 -10827.8645 1471.7613 0.0000 0.0000 1753.4224 -7600.6951 296.5924 -9354.1175 -7588.7619 298.7829 -83.1950 -27.7491 30780.9528 -59.0758 8.4802
TCL: Running FEP window  10: Lambda1 0.44999999999999996 Lambda2 0.49999999999999994 [dLambda 0.04999999999999999]
TCL: Setting parameter firsttimestep to 0
TCL: Setting parameter alchLambda to 0.44999999999999996
Info: NONBONDED TABLE R-SQUARED SPACING: 0.0625
Info: NONBONDED TABLE SIZE: 705 POINTS
TCL: Setting parameter alchLambda2 to 0.49999999999999994
Info: NONBONDED TABLE R-SQUARED SPACING: 0.0625
Info: NONBONDED TABLE SIZE: 705 POINTS
TCL: Running for 1500000 steps
ETITLE: TS BOND ANGLE DIHED IMPRP ELECT VDW BOUNDARY MISC KINETIC TOTAL TEMP POTENTIAL TOTALAVG TEMPAVG PRESSURE GPRESSURE VOLUME PRESSAVG GPRESSAVG
ENERGY: 0 1.2158 0.5871 0.1828 0.0000 -10827.8639 1471.6844 0.0000 0.0000 1752.5661 -7601.6278 296.4475 -9354.1939 -7601.6278 296.4475 -112.4694 -25.6060 30780.9528 -112.4694 -25.6060
ENERGY: 300000 0.8824 0.6680 0.5491 0.0000 -10783.7454 1432.0282 0.0000 0.0000 1796.5233 -7553.0945 303.8829 -9349.6177 -7572.2433 301.1784 -113.0960 -82.5207 30425.9096 -261.1949 -204.0028
ENERGY: 600000 0.2964 2.1747 0.6261 0.0000 -10800.2206 1461.7818 0.0000 0.0000 1777.0138 -7558.3278 300.5829 -9335.3416 -7574.0506 300.7889 175.0457 239.0957 30445.2156 -53.6043 12.4047
ENERGY: 900000 0.4193 1.7058 0.6143 0.0000 -10796.9956 1437.7460 0.0000 0.0000 1795.5106 -7560.9996 303.7116 -9356.5102 -7558.5209 301.4393 -13.9344 21.2528 30222.8465 -40.7443 20.0232
ENERGY: 1200000 0.5884 1.3591 1.9215 0.0000 -10832.3720 1485.0121 0.0000 0.0000 1769.6046 -7573.8864 299.3296 -9343.4910 -7561.1380 301.2352 225.5086 336.2747 30534.7430 64.5593 124.0566
ENERGY: 1500000 0.1630 2.1054 1.2543 0.0000 -10781.9661 1444.7047 0.0000 0.0000 1780.6195 -7553.1192 301.1928 -9333.7387 -7563.3898 301.8771 -72.3906 -48.5079 30576.5045 45.5798 98.8358
TCL: Running FEP window  11: Lambda1 0.49999999999999994 Lambda2 0.5499999999999999 [dLambda 0.04999999999999999]
TCL: Setting parameter firsttimestep to 0
TCL: Setting parameter alchLambda to 0.49999999999999994
Info: NONBONDED TABLE R-SQUARED SPACING: 0.0625
Info: NONBONDED TABLE SIZE: 705 POINTS
TCL: Setting parameter alchLambda2 to 0.5499999999999999
Info: NONBONDED TABLE R-SQUARED SPACING: 0.0625
Info: NONBONDED TABLE SIZE: 705 POINTS
TCL: Running for 1500000 steps
ETITLE: TS BOND ANGLE DIHED IMPRP ELECT VDW BOUNDARY MISC KINETIC TOTAL TEMP POTENTIAL TOTALAVG TEMPAVG PRESSURE GPRESSURE VOLUME PRESSAVG GPRESSAVG
ENERGY: 0 0.1630 2.1054 1.2543 0.0000 -10781.9663 1444.7900 0.0000 0.0000 1779.7322 -7553.9214 301.0427 -9333.6536 -7553.9214 301.0427 -126.7035 -46.1484 30576.5045 -126.7035 -46.1484
ENERGY: 300000 0.2394 1.3519 0.8406 0.0000 -10802.1050 1457.9905 0.0000 0.0000 1830.4333 -7511.2494 309.6188 -9341.6826 -7551.9241 300.6623 316.3510 345.4345 30321.4029 93.2328 173.4728
ENERGY: 600000 0.0742 0.8419 0.0403 0.0000 -10839.5616 1459.5908 0.0000 0.0000 1789.2107 -7589.8037 302.6460 -9379.0144 -7537.6097 303.3792 -83.8958 8.8124 30708.9441 88.2698 161.5043
ENERGY: 900000 0.0962 1.1374 0.1376 0.0000 -10808.5397 1484.9340 0.0000 0.0000 1795.1724 -7527.0620 303.6544 -9322.2344 -7561.8326 301.9960 304.1933 303.2149 30642.3805 131.4536 191.9403
ENERGY: 1200000 0.4175 1.8075 0.0686 0.0000 -10756.4856 1446.0058 0.0000 0.0000 1830.3725 -7477.8137 309.6085 -9308.1862 -7569.6566 301.6761 41.7288 79.2832 30486.2748 100.0053 162.0408
ENERGY: 1500000 0.1023 2.8906 0.0940 0.0000 -10706.7990 1410.5138 0.0000 0.0000 1786.4043 -7506.7941 302.1713 -9293.1984 -7568.9044 300.6177 -480.8121 -380.4927 31072.7250 -14.4269 50.2335
TCL: Running FEP window  12: Lambda1 0.5499999999999999 Lambda2 0.6    [dLambda 0.050000000000000044]
TCL: Setting parameter firsttimestep to 0
TCL: Setting parameter alchLambda to 0.5499999999999999
Info: NONBONDED TABLE R-SQUARED SPACING: 0.0625
Info: NONBONDED TABLE SIZE: 705 POINTS
TCL: Setting parameter alchLambda2 to 0.6
Info: NONBONDED TABLE R-SQUARED SPACING: 0.0625
Info: NONBONDED TABLE SIZE: 705 POINTS
TCL: Running for 1500000 steps
ETITLE: TS BOND ANGLE DIHED IMPRP ELECT VDW BOUNDARY MISC KINETIC TOTAL TEMP POTENTIAL TOTALAVG TEMPAVG PRESSURE GPRESSURE VOLUME PRESSAVG GPRESSAVG
ENERGY: 0 0.1023 2.8906 0.0940 0.0000 -10706.9308 1410.7041 0.0000 0.0000 1785.5442 -7507.5956 302.0258 -9293.1398 -7507.5956 302.0258 -432.7381 -374.2280 31072.7250 -432.7381 -374.2280
ENERGY: 300000 0.0907 4.5780 0.0594 0.0000 -10771.9257 1454.9021 0.0000 0.0000 1708.4962 -7603.7993 288.9931 -9312.2955 -7558.1648 296.8070 57.1848 167.7177 30516.4111 -0.6361 95.0574
ENERGY: 600000 0.3882 2.3082 0.4159 0.0000 -10784.0501 1422.7690 0.0000 0.0000 1786.8326 -7571.3363 302.2437 -9358.1688 -7568.7992 299.1678 -156.3433 -58.2591 30358.0779 -228.0819 -140.6150
ENERGY: 900000 0.1437 0.9564 0.0764 0.0000 -10902.0497 1507.5065 0.0000 0.0000 1725.3848 -7667.9818 291.8498 -9393.3666 -7587.0589 297.6797 261.6302 348.2809 30303.8550 -229.2202 -154.6536
ENERGY: 1200000 0.0093 3.8313 0.0494 0.0000 -10679.1461 1369.8255 0.0000 0.0000 1740.3132 -7565.1174 294.3749 -9305.4306 -7583.4753 298.2163 -691.0093 -603.8085 30695.8964 -207.7463 -136.8066
ENERGY: 1500000 0.1113 2.8095 1.0871 0.0000 -10753.5550 1428.6325 0.0000 0.0000 1780.3143 -7540.6002 301.1411 -9320.9145 -7571.9228 298.5707 -236.8504 -261.7410 31002.7110 -172.1967 -111.2253
TCL: Running FEP window  13: Lambda1 0.6    Lambda2 0.65   [dLambda 0.050000000000000044]
TCL: Setting parameter firsttimestep to 0
TCL: Setting parameter alchLambda to 0.6
Info: NONBONDED TABLE R-SQUARED SPACING: 0.0625
Info: NONBONDED TABLE SIZE: 705 POINTS
TCL: Setting parameter alchLambda2 to 0.65
Info: NONBONDED TABLE R-SQUARED SPACING: 0.0625
Info: NONBONDED TABLE SIZE: 705 POINTS
TCL: Running for 1500000 steps
ETITLE: TS BOND ANGLE DIHED IMPRP ELECT VDW BOUNDARY MISC KINETIC TOTAL TEMP POTENTIAL TOTALAVG TEMPAVG PRESSURE GPRESSURE VOLUME PRESSAVG GPRESSAVG
ENERGY: 0 0.1113 2.8095 1.0871 0.0000 -10753.6861 1428.7425 0.0000 0.0000 1779.3849 -7541.5507 300.9839 -9320.9356 -7541.5507 300.9839 -331.5397 -258.0703 31002.7110 -331.5397 -258.0703
ENERGY: 300000 0.5547 0.3967 0.5082 0.0000 -10838.8593 1440.9830 0.0000 0.0000 1802.3258 -7594.0908 304.8644 -9396.4166 -7588.4897 298.6632 -231.2319 -205.7391 30757.4554 -431.2340 -390.1453
ENERGY: 600000 0.0169 1.5861 0.3866 0.0000 -10750.3944 1398.5713 0.0000 0.0000 1755.7381 -7594.0954 296.9841 -9349.8334 -7594.3839 297.4266 -188.8342 -189.0343 30157.4380 -289.7940 -261.1726
ENERGY: 900000 0.2038 2.3229 0.1391 0.0000 -10780.6774 1420.6656 0.0000 0.0000 1730.8868 -7626.4591 292.7805 -9357.3460 -7591.6033 298.0718 -154.6355 -119.4417 30297.6504 -299.0787 -256.9088
ENERGY: 1200000 0.5962 2.7403 0.0988 0.0000 -10758.7049 1462.5381 0.0000 0.0000 1764.1821 -7528.5495 298.4124 -9292.7316 -7572.0349 298.2604 211.4585 327.7506 30448.5280 -267.8491 -221.1207
ENERGY: 1500000 0.2523 1.6978 0.2022 0.0000 -10946.0135 1521.5604 0.0000 0.0000 1782.9457 -7639.3551 301.5863 -9422.3008 -7581.5358 298.0937 730.2318 807.0652 29843.0942 -210.1172 -161.5423
TCL: Running FEP window  14: Lambda1 0.65   Lambda2 0.7000000000000001 [dLambda 0.050000000000000044]
TCL: Setting parameter firsttimestep to 0
TCL: Setting parameter alchLambda to 0.65
Info: NONBONDED TABLE R-SQUARED SPACING: 0.0625
Info: NONBONDED TABLE SIZE: 705 POINTS
TCL: Setting parameter alchLambda2 to 0.7000000000000001
Info: NONBONDED TABLE R-SQUARED SPACING: 0.0625
Info: NONBONDED TABLE SIZE: 705 POINTS
TCL: Running for 1500000 steps
ETITLE: TS BOND ANGLE DIHED IMPRP ELECT VDW BOUNDARY MISC KINETIC TOTAL TEMP POTENTIAL TOTALAVG TEMPAVG PRESSURE GPRESSURE VOLUME PRESSAVG GPRESSAVG
ENERGY: 0 0.2523 1.6978 0.2022 0.0000 -10946.4560 1521.4292 0.0000 0.0000 1782.0309 -7640.8436 301.4315 -9422.8745 -7640.8436 301.4315 707.2547 806.3960 29843.0942 707.2547 806.3960
ENERGY: 300000 0.4982 3.1620 0.4012 0.0000 -10805.8406 1427.5378 0.0000 0.0000 1774.5500 -7599.6914 300.1661 -9374.2414 -7560.9537 298.6093 -395.7085 -314.2492 30592.6105 86.5969 161.3284
ENERGY: 600000 0.0000 3.2980 0.2174 0.0000 -10836.2124 1460.0855 0.0000 0.0000 1768.6530 -7603.9585 299.1686 -9372.6115 -7572.9027 299.0219 162.1867 217.7957 30318.7959 148.7562 212.7806
ENERGY: 900000 0.0419 1.4561 0.0266 0.0000 -10742.3442 1341.5748 0.0000 0.0000 1747.7338 -7651.5110 295.6301 -9399.2448 -7583.9687 299.5279 -1082.3224 -1040.3744 30753.1979 41.1065 106.6637
ENERGY: 1200000 0.0089 0.6957 0.8180 0.0000 -10561.9616 1390.3076 0.0000 0.0000 1790.1164 -7380.0150 302.7992 -9170.1314 -7558.9457 300.2531 -414.7478 -354.9999 31634.1768 -18.9369 43.8812
ENERGY: 1500000 0.1386 1.7200 0.8968 0.0000 -11053.8136 1660.0361 0.0000 0.0000 1855.7148 -7535.3072 313.8952 -9391.0220 -7564.4657 300.7314 1807.5064 1786.0563 29881.3786 108.3027 160.6724
TCL: Running FEP window  15: Lambda1 0.7000000000000001 Lambda2 0.7500000000000001 [dLambda 0.050000000000000044]
TCL: Setting parameter firsttimestep to 0
TCL: Setting parameter alchLambda to 0.7000000000000001
Info: NONBONDED TABLE R-SQUARED SPACING: 0.0625
Info: NONBONDED TABLE SIZE: 705 POINTS
TCL: Setting parameter alchLambda2 to 0.7500000000000001
Info: NONBONDED TABLE R-SQUARED SPACING: 0.0625
Info: NONBONDED TABLE SIZE: 705 POINTS
TCL: Running for 1500000 steps
ETITLE: TS BOND ANGLE DIHED IMPRP ELECT VDW BOUNDARY MISC KINETIC TOTAL TEMP POTENTIAL TOTALAVG TEMPAVG PRESSURE GPRESSURE VOLUME PRESSAVG GPRESSAVG
ENERGY: 0 0.1386 1.7200 0.8968 0.0000 -11055.2256 1660.5266 0.0000 0.0000 1854.8093 -7537.1342 313.7420 -9391.9435 -7537.1342 313.7420 1704.1277 1790.8308 29881.3786 1704.1277 1790.8308
ENERGY: 300000 0.2894 4.2885 0.6630 0.0000 -10751.1321 1444.4756 0.0000 0.0000 1763.5560 -7537.8598 298.3065 -9301.4157 -7577.1619 299.2489 128.3133 246.2160 30246.0421 484.4139 563.1733
ENERGY: 600000 0.7229 4.7036 0.0552 0.0000 -10792.3591 1423.7255 0.0000 0.0000 1820.1434 -7543.0085 307.8783 -9363.1519 -7568.9645 300.1370 -178.8206 -157.1019 30581.8494 262.5138 327.9818
ENERGY: 900000 0.0021 1.0352 1.9305 0.0000 -10797.4137 1468.9355 0.0000 0.0000 1800.1943 -7525.3160 304.5039 -9325.5103 -7561.3628 301.2353 79.7396 140.5003 30754.7766 76.9131 144.3059
ENERGY: 1200000 1.4932 3.0625 0.1184 0.0000 -10828.1292 1423.6203 0.0000 0.0000 1737.7624 -7662.0724 293.9435 -9399.8348 -7572.6651 299.4303 -336.7719 -249.9773 30481.5346 -17.7199 53.7073
ENERGY: 1500000 0.0620 1.4529 1.9160 0.0000 -10709.9787 1415.9453 0.0000 0.0000 1719.6480 -7570.9546 290.8794 -9290.6025 -7570.4330 299.1039 -383.3642 -310.7910 30894.5084 -50.1034 24.8282
TCL: Running FEP window  16: Lambda1 0.7500000000000001 Lambda2 0.8000000000000002 [dLambda 0.050000000000000044]
TCL: Setting parameter firsttimestep to 0
TCL: Setting parameter alchLambda to 0.7500000000000001
Info: NONBONDED TABLE R-SQUARED SPACING: 0.0625
Info: NONBONDED TABLE SIZE: 705 POINTS
TCL: Setting parameter alchLambda2 to 0.8000000000000002
Info: NONBONDED TABLE R-SQUARED SPACING: 0.0625
Info: NONBONDED TABLE SIZE: 705 POINTS
TCL: Running for 1500000 steps
ETITLE: TS BOND ANGLE DIHED IMPRP ELECT VDW BOUNDARY MISC KINETIC TOTAL TEMP POTENTIAL TOTALAVG TEMPAVG PRESSURE GPRESSURE VOLUME PRESSAVG GPRESSAVG
ENERGY: 0 0.0620 1.4529 1.9160 0.0000 -10711.6524 1416.6913 0.0000 0.0000 1718.7406 -7572.7895 290.7259 -9291.5301 -7572.7895 290.7259 -403.7785 -306.2568 30894.5084 -403.7785 -306.2568
ENERGY: 300000 0.7419 3.2300 0.1573 0.0000 -10830.3765 1450.0470 0.0000 0.0000 1811.1524 -7565.0478 306.3574 -9376.2002 -7562.9630 302.9102 -16.1349 -31.1041 30311.7647 93.0068 146.1388
ENERGY: 600000 0.0000 3.4188 0.4141 0.0000 -10686.4333 1377.8382 0.0000 0.0000 1755.2598 -7549.5024 296.9032 -9304.7622 -7572.4931 301.2468 -427.3439 -365.2524 30643.7096 -58.4591 2.1591
ENERGY: 900000 0.0358 3.8521 0.1792 0.0000 -10759.4864 1468.0068 0.0000 0.0000 1833.2111 -7454.2013 310.0887 -9287.4124 -7552.9846 301.6883 168.3932 200.7572 30835.4692 -158.5109 -96.0060
ENERGY: 1200000 1.9761 3.8700 0.0845 0.0000 -10929.9257 1540.7227 0.0000 0.0000 1730.1882 -7653.0841 292.6623 -9383.2723 -7560.6152 300.9793 721.0650 720.2365 30199.5011 -137.8773 -90.5198
ENERGY: 1500000 0.3349 2.5052 0.1733 0.0000 -10866.5349 1526.0921 0.0000 0.0000 1749.0219 -7588.4076 295.8480 -9337.4295 -7563.3687 300.4567 775.4871 833.4781 30165.4376 -74.1595 -21.4966
TCL: Running FEP window  17: Lambda1 0.8000000000000002 Lambda2 0.8500000000000002 [dLambda 0.050000000000000044]
TCL: Setting parameter firsttimestep to 0
TCL: Setting parameter alchLambda to 0.8000000000000002
Info: NONBONDED TABLE R-SQUARED SPACING: 0.0625
Info: NONBONDED TABLE SIZE: 705 POINTS
TCL: Setting parameter alchLambda2 to 0.8500000000000002
Info: NONBONDED TABLE R-SQUARED SPACING: 0.0625
Info: NONBONDED TABLE SIZE: 705 POINTS
TCL: Running for 1500000 steps
ETITLE: TS BOND ANGLE DIHED IMPRP ELECT VDW BOUNDARY MISC KINETIC TOTAL TEMP POTENTIAL TOTALAVG TEMPAVG PRESSURE GPRESSURE VOLUME PRESSAVG GPRESSAVG
ENERGY: 0 0.3349 2.5052 0.1733 0.0000 -10867.3692 1526.0387 0.0000 0.0000 1748.1108 -7590.2063 295.6939 -9338.3171 -7590.2063 295.6939 759.4733 835.8355 30165.4376 759.4733 835.8355
ENERGY: 300000 0.1076 2.4716 0.0550 0.0000 -10891.1908 1498.1761 0.0000 0.0000 1767.0822 -7623.2983 298.9029 -9390.3805 -7574.4912 297.8815 4.5437 84.1428 30905.1417 219.0066 287.4585
ENERGY: 600000 1.7946 2.5096 0.0308 0.0000 -10615.6416 1365.6440 0.0000 0.0000 1765.0841 -7480.5786 298.5649 -9245.6627 -7545.5556 299.6000 -540.0495 -381.4741 30686.7456 40.2099 138.9608
ENERGY: 900000 0.0014 1.9718 0.1423 0.0000 -10742.8321 1443.3997 0.0000 0.0000 1782.1511 -7515.1658 301.4518 -9297.3169 -7543.4914 299.6243 49.7515 80.1243 30638.2631 120.4730 207.0593
ENERGY: 1200000 0.0080 1.5534 0.4073 0.0000 -10752.8303 1405.5160 0.0000 0.0000 1805.4087 -7539.9369 305.3859 -9345.3456 -7549.2750 300.6867 -564.6195 -507.5978 31019.4973 23.6511 104.1177
ENERGY: 1500000 1.1139 3.2814 0.9183 0.0000 -10787.3493 1460.2569 0.0000 0.0000 1813.3635 -7508.4154 306.7314 -9321.7789 -7544.6748 301.6273 44.6242 137.5707 30725.3144 -27.7847 48.3293
TCL: Running FEP window  18: Lambda1 0.8500000000000002 Lambda2 0.9000000000000002 [dLambda 0.050000000000000044]
TCL: Setting parameter firsttimestep to 0
TCL: Setting parameter alchLambda to 0.8500000000000002
Info: NONBONDED TABLE R-SQUARED SPACING: 0.0625
Info: NONBONDED TABLE SIZE: 705 POINTS
TCL: Setting parameter alchLambda2 to 0.9000000000000002
Info: NONBONDED TABLE R-SQUARED SPACING: 0.0625
Info: NONBONDED TABLE SIZE: 705 POINTS
TCL: Running for 1500000 steps
ETITLE: TS BOND ANGLE DIHED IMPRP ELECT VDW BOUNDARY MISC KINETIC TOTAL TEMP POTENTIAL TOTALAVG TEMPAVG PRESSURE GPRESSURE VOLUME PRESSAVG GPRESSAVG
ENERGY: 0 1.1139 3.2814 0.9183 0.0000 -10788.7944 1461.5716 0.0000 0.0000 1812.4621 -7509.4471 306.5790 -9321.9093 -7509.4471 306.5790 63.5291 150.7684 30725.3144 63.5291 150.7684
ENERGY: 300000 0.0403 1.5762 0.5430 0.0000 -10801.9936 1379.9104 0.0000 0.0000 1792.3991 -7627.5246 303.1853 -9419.9237 -7562.0190 303.4095 -928.6681 -913.1660 30954.7812 -356.6934 -287.8943
ENERGY: 600000 0.5797 1.9840 0.6513 0.0000 -10868.1260 1412.1066 0.0000 0.0000 1767.5137 -7685.2907 298.9759 -9452.8044 -7602.1451 300.6127 -608.2685 -501.4971 30411.5917 -313.8632 -237.9610
ENERGY: 900000 0.0634 3.5730 0.5812 0.0000 -10661.1813 1400.0806 0.0000 0.0000 1783.3818 -7473.5013 301.6600 -9256.8830 -7592.7575 300.4497 -506.1463 -448.2177 31204.9454 -279.8449 -210.3017
ENERGY: 1200000 0.1253 3.9084 0.3170 0.0000 -10826.8734 1482.6918 0.0000 0.0000 1729.3457 -7610.4851 292.5198 -9339.8308 -7597.6947 299.3420 381.4382 438.5433 30354.1954 -207.6718 -140.8855
ENERGY: 1500000 0.1388 2.7858 0.1724 0.0000 -10790.4249 1499.2849 0.0000 0.0000 1781.2796 -7506.7633 301.3044 -9288.0430 -7588.3905 300.2865 473.9166 489.7395 30804.1079 -80.2299 -14.4737
TCL: Running FEP window  19: Lambda1 0.9000000000000002 Lambda2 0.9500000000000003 [dLambda 0.050000000000000044]
TCL: Setting parameter firsttimestep to 0
TCL: Setting parameter alchLambda to 0.9000000000000002
Info: NONBONDED TABLE R-SQUARED SPACING: 0.0625
Info: NONBONDED TABLE SIZE: 705 POINTS
TCL: Setting parameter alchLambda2 to 0.9500000000000003
Info: NONBONDED TABLE R-SQUARED SPACING: 0.0625
Info: NONBONDED TABLE SIZE: 705 POINTS
TCL: Running for 1500000 steps
ETITLE: TS BOND ANGLE DIHED IMPRP ELECT VDW BOUNDARY MISC KINETIC TOTAL TEMP POTENTIAL TOTALAVG TEMPAVG PRESSURE GPRESSURE VOLUME PRESSAVG GPRESSAVG
ENERGY: 0 0.1388 2.7858 0.1724 0.0000 -10791.9908 1499.9838 0.0000 0.0000 1780.3682 -7508.5418 301.1503 -9288.9100 -7508.5418 301.1503 429.0742 496.9901 30804.1079 429.0742 496.9901
ENERGY: 300000 0.0291 2.5976 0.9225 0.0000 -10821.2302 1489.6517 0.0000 0.0000 1800.1490 -7527.8804 304.4962 -9328.0294 -7522.8400 300.6865 314.7664 410.4798 30513.6114 -91.5931 -39.4278
ENERGY: 600000 0.1773 1.6605 1.0415 0.0000 -10841.2522 1461.1641 0.0000 0.0000 1764.6671 -7612.5417 298.4944 -9377.2088 -7553.3805 298.6086 249.7479 250.8834 30060.3951 -0.2569 27.5551
ENERGY: 900000 0.0639 0.9733 0.0269 0.0000 -10727.1724 1393.6493 0.0000 0.0000 1777.1915 -7555.2676 300.6129 -9332.4591 -7552.3057 299.5343 -305.0430 -254.9371 30388.9231 131.8354 160.5945
ENERGY: 1200000 0.2329 2.3079 2.0262 0.0000 -10710.0175 1386.8494 0.0000 0.0000 1722.9102 -7595.6909 291.4312 -9318.6011 -7560.6488 299.0342 -803.5503 -765.9924 31305.1361 35.3017 70.0849
ENERGY: 1500000 0.6353 2.3881 0.7162 0.0000 -10761.8486 1459.6254 0.0000 0.0000 1796.9817 -7501.5020 303.9604 -9298.4837 -7562.3270 298.4614 -154.1825 -129.2231 31150.2304 -16.8767 22.6944
TCL: Running FEP window  20: Lambda1 0.9500000000000003 Lambda2 1.0    [dLambda 0.04999999999999971]
TCL: Setting parameter firsttimestep to 0
TCL: Setting parameter alchLambda to 0.9500000000000003
Info: NONBONDED TABLE R-SQUARED SPACING: 0.0625
Info: NONBONDED TABLE SIZE: 705 POINTS
TCL: Setting parameter alchLambda2 to 1.0
Info: NONBONDED TABLE R-SQUARED SPACING: 0.0625
Info: NONBONDED TABLE SIZE: 705 POINTS
TCL: Running for 1500000 steps
ETITLE: TS BOND ANGLE DIHED IMPRP ELECT VDW BOUNDARY MISC KINETIC TOTAL TEMP POTENTIAL TOTALAVG TEMPAVG PRESSURE GPRESSURE VOLUME PRESSAVG GPRESSAVG
ENERGY: 0 0.6353 2.3881 0.7162 0.0000 -10763.7319 1461.8356 0.0000 0.0000 1796.1202 -7502.0365 303.8147 -9298.1567 -7502.0365 303.8147 -178.9317 -104.5287 31150.2304 -178.9317 -104.5287
ENERGY: 300000 0.5982 2.2012 1.7842 0.0000 -11041.8474 1643.9622 0.0000 0.0000 1769.3381 -7623.9635 299.2845 -9393.3016 -7560.7024 300.8337 1466.3927 1499.0112 30230.2812 354.7347 392.1754
ENERGY: 600000 0.0536 2.2440 0.3975 0.0000 -10733.6678 1363.2035 0.0000 0.0000 1787.7179 -7580.0512 302.3935 -9367.7691 -7552.6979 302.1932 -856.6609 -755.6589 30816.7043 40.5393 99.6707
ENERGY: 900000 0.2366 3.7415 0.1531 0.0000 -10679.0893 1410.7341 0.0000 0.0000 1755.5773 -7508.6466 296.9569 -9264.2239 -7564.4968 300.8628 -424.8120 -372.6282 31275.3104 -48.3196 9.3567
ENERGY: 1200000 0.0152 8.1994 0.0912 0.0000 -10794.0968 1479.6312 0.0000 0.0000 1762.3708 -7543.7890 298.1060 -9306.1598 -7562.6029 300.0807 445.4895 485.7372 30326.8927 -5.1464 50.7958
ENERGY: 1500000 0.5498 3.0607 0.2432 0.0000 -10837.6197 1500.3577 0.0000 0.0000 1819.6638 -7513.7444 307.7971 -9333.4083 -7564.1645 300.2464 500.4976 629.7765 30340.5461 -33.0235 22.2738
TCL: Exiting due to exit command.
