Info: SIMULATION PARAMETERS:
Info: TIMESTEP               2
Info: NUMBER OF STEPS        0
Info: STEPS PER CYCLE        10
Info: PERIODIC CELL BASIS 1  37.38 0 0
Info: PERIODIC CELL BASIS 2  0 34.26 0
Info: PERIODIC CELL BASIS 3  0 0 34.471
Info: PERIODIC CELL CENTER   0 0 0
Info: WRAPPING WATERS AROUND PERIODIC BOUNDARIES ON OUTPUT.
Info: WRAPPING ALL CLUSTERS AROUND PERIODIC BOUNDARIES ON OUTPUT.
Info: FIRST LDB TIMESTEP     50
Info: LAST LDB TIMESTEP     -1
Info: HOM BACKGROUND SCALING 1
Info: PME BACKGROUND SCALING 1
Info: MIN ATOMS PER PATCH    40
Info: EMPTY PATCH LOAD       40 ATOMS
Info: INITIAL TEMPERATURE    300
Info: CENTER OF MASS MOVING INITIALLY? NO
Info: DIELECTRIC             1
Info: EXCLUDE                SCALED ONE-FOUR
Info: 1-4 ELECTROSTATICS SCALED BY 0.833333
Info: MODIFIED 1-4 VDW PARAMETERS WILL BE USED
Info: DCD FILENAME           mobley_242480_equil.dcd
Info: DCD FREQUENCY          100000
Info: DCD FIRST STEP         100000
Info: DCD FILE WILL CONTAIN UNIT CELL DATA
Info: XST FILENAME           mobley_242480_equil.xst
Info: XST FREQUENCY          100000
Info: NO VELOCITY DCD OUTPUT
Info: NO FORCE DCD OUTPUT
Info: OUTPUT FILENAME        mobley_242480_equil
Info: BINARY OUTPUT FILES WILL BE USED
Info: RESTART FILENAME       mobley_242480_equil.restart
Info: RESTART FREQUENCY      100000
Info: BINARY RESTART FILES WILL BE USED
Info: CUTOFF                 9
Info: PAIRLIST DISTANCE      11
Info: PAIRLIST SHRINK RATE   0.01
Info: PAIRLIST GROW RATE     0.01
Info: PAIRLIST TRIGGER       0.3
Info: PAIRLISTS PER CYCLE    2
Info: PAIRLISTS ENABLED
Info: MARGIN                 8
Info: HYDROGEN GROUP CUTOFF  2.5
Info: PATCH DIMENSION        21.5
Info: ENERGY OUTPUT STEPS    100000
Info: ENERGY EVALUATION STEPS    100000
Info: OUTPUT ENERGY PRECISION 4
Info: CROSSTERM ENERGY INCLUDED IN DIHEDRAL
Info: TIMING OUTPUT STEPS    1000000
Info: PRESSURE OUTPUT STEPS  100000
Info: LANGEVIN DYNAMICS ACTIVE
Info: LANGEVIN TEMPERATURE   30
Info: LANGEVIN USING BBK INTEGRATOR
Info: LANGEVIN DAMPING COEFFICIENT IS 1 INVERSE PS
Info: LANGEVIN DYNAMICS APPLIED TO HYDROGENS
Info: LANGEVIN PISTON PRESSURE CONTROL ACTIVE
Info:        TARGET PRESSURE IS 1.01325 BAR
Info:     OSCILLATION PERIOD IS 50 FS
Info:             DECAY TIME IS 25 FS
Info:     PISTON TEMPERATURE IS 300 K
Info:       PRESSURE CONTROL IS GROUP-BASED
Info:    INITIAL STRAIN RATE IS 0 0 0
Info:       CELL FLUCTUATION IS ISOTROPIC
Info: PARTICLE MESH EWALD (PME) ACTIVE
Info: PME TOLERANCE               1e-06
Info: PME EWALD COEFFICIENT       0.348832
Info: PME INTERPOLATION ORDER     4
Info: PME GRID DIMENSIONS         40 36 36
Info: PME MAXIMUM GRID SPACING    1
Info: FULL ELECTROSTATIC EVALUATION FREQUENCY      2
Info: USING VERLET I (r-RESPA) MTS SCHEME.
Info: C1 SPLITTING OF LONG RANGE ELECTROSTATICS
Info: PLACING ATOMS IN PATCHES BY HYDROGEN GROUPS
Info: RIGID BONDS TO HYDROGEN : ALL
Info:         ERROR TOLERANCE : 1e-08
Info:          MAX ITERATIONS : 100
Info: RIGID WATER USING SETTLE ALGORITHM
Info: RANDOM NUMBER SEED     1743223214
Info: USE HYDROGEN BONDS?    NO
Info: Using AMBER format force field!
Info: AMBER PARM FILE        mobley_242480.prmtop
Info: COORDINATE PDB         mobley_242480.pdb
Info: Exclusions will be read from PARM file!
Info: SCNB (VDW SCALING)     2
Info: USING ARITHMETIC MEAN TO COMBINE L-J SIGMA PARAMETERS
Info: BINARY COORDINATES     mobley_242480_min.coor
Info: SUMMARY OF PARAMETERS:
Info: 8 BONDS
Info: 8 ANGLES
Info: 5 DIHEDRAL
Info: 0 IMPROPER
Info: 0 CROSSTERM
Info: 0 VDW
Info: 28 VDW_PAIRS
Info: 0 NBTHOLE_PAIRS
Info: STRUCTURE SUMMARY:
Info: 2962 ATOMS
Info: 2964 BONDS
Info: 48 ANGLES
Info: 88 DIHEDRALS
Info: 0 IMPROPERS
Info: 0 CROSSTERMS
Info: 3075 EXCLUSIONS
Info: 2944 RIGID BONDS
Info: 5942 DEGREES OF FREEDOM
Info: 996 HYDROGEN GROUPS
Info: 3 ATOMS IN LARGEST HYDROGEN GROUP
Info: 996 MIGRATION GROUPS
Info: 3 ATOMS IN LARGEST MIGRATION GROUP
Info: TOTAL MASS = 17857.9 amu
Info: TOTAL CHARGE = 0.000299968 e
Info: MASS DENSITY = 0.671752 g/cm^3
Info: ATOM DENSITY = 0.0670972 atoms/A^3
Info: ADDED 0 IMPLICIT EXCLUSIONS
Info: NONBONDED TABLE R-SQUARED SPACING: 0.0625
Info: NONBONDED TABLE SIZE: 705 POINTS
Info: REMOVING COM VELOCITY 0.038486 -0.0778819 0.149537
TCL: Running for 100000 steps
ETITLE: TS BOND ANGLE DIHED IMPRP ELECT VDW BOUNDARY MISC KINETIC TOTAL TEMP POTENTIAL TOTAL3 TEMPAVG PRESSURE GPRESSURE VOLUME PRESSAVG GPRESSAVG
ENERGY: 0 1.9610 2.9523 1.4262 0.0000 -13615.6398 2371.7198 0.0000 0.0000 1784.3232 -9453.2572 302.2256 -11237.5804 -9452.9053 302.2256 183.7028 220.5218 44144.9001 183.7028 220.5218
ENERGY: 100000 2.9976 3.0286 3.5493 0.0000 -14154.3301 2419.7804 0.0000 0.0000 173.7417 -11551.2324 29.4281 -11724.9742 -11550.7435 30.9319 -508.5310 -443.3822 29438.8623 3.5346 3.5052
TCL: Running 100000 steps at 60 kelvin.
TCL: Setting parameter langevinTemp to 60
TCL: Running for 100000 steps
ETITLE: TS BOND ANGLE DIHED IMPRP ELECT VDW BOUNDARY MISC KINETIC TOTAL TEMP POTENTIAL TOTAL3 TEMPAVG PRESSURE GPRESSURE VOLUME PRESSAVG GPRESSAVG
ENERGY: 100000 2.9976 3.0286 3.5493 0.0000 -14154.3301 2419.7804 0.0000 0.0000 173.6532 -11551.3210 29.4131 -11724.9742 -11550.9863 29.4131 -506.1575 -443.4113 29438.8623 -506.1575 -443.4113
ENERGY: 200000 3.5071 3.0233 4.3635 0.0000 -14186.1775 2517.2529 0.0000 0.0000 360.3299 -11297.7008 61.0321 -11658.0308 -11296.3999 59.9417 805.2957 857.6672 28961.8951 3.4197 3.3083
TCL: Running 100000 steps at 90 kelvin.
TCL: Setting parameter langevinTemp to 90
TCL: Running for 100000 steps
ETITLE: TS BOND ANGLE DIHED IMPRP ELECT VDW BOUNDARY MISC KINETIC TOTAL TEMP POTENTIAL TOTAL3 TEMPAVG PRESSURE GPRESSURE VOLUME PRESSAVG GPRESSAVG
ENERGY: 200000 3.5071 3.0233 4.3635 0.0000 -14186.1775 2517.2529 0.0000 0.0000 360.1461 -11297.8847 61.0009 -11658.0308 -11297.1303 61.0009 795.1472 858.0843 28961.8951 795.1472 858.0843
ENERGY: 300000 4.3870 6.2791 2.3807 0.0000 -13946.0219 2321.8396 0.0000 0.0000 529.1347 -11082.0008 89.6239 -11611.1355 -11080.4422 89.9347 -876.3711 -776.1484 29227.6560 3.6865 3.7074
TCL: Running 100000 steps at 120 kelvin.
TCL: Setting parameter langevinTemp to 120
TCL: Running for 100000 steps
ETITLE: TS BOND ANGLE DIHED IMPRP ELECT VDW BOUNDARY MISC KINETIC TOTAL TEMP POTENTIAL TOTAL3 TEMPAVG PRESSURE GPRESSURE VOLUME PRESSAVG GPRESSAVG
ENERGY: 300000 4.3870 6.2791 2.3807 0.0000 -13946.0219 2321.8396 0.0000 0.0000 528.8714 -11082.2641 89.5793 -11611.1355 -11081.2938 89.5793 -840.4923 -776.0469 29227.6560 -840.4923 -776.0469
ENERGY: 400000 3.6350 4.4626 5.3934 0.0000 -13907.6762 2404.3899 0.0000 0.0000 720.0427 -10769.7527 121.9596 -11489.7954 -10767.8774 119.8969 632.9825 671.1651 28945.0480 4.5833 4.4819
TCL: Running 100000 steps at 150 kelvin.
TCL: Setting parameter langevinTemp to 150
TCL: Running for 100000 steps
ETITLE: TS BOND ANGLE DIHED IMPRP ELECT VDW BOUNDARY MISC KINETIC TOTAL TEMP POTENTIAL TOTAL3 TEMPAVG PRESSURE GPRESSURE VOLUME PRESSAVG GPRESSAVG
ENERGY: 400000 3.6350 4.4626 5.3934 0.0000 -13907.6762 2404.3899 0.0000 0.0000 719.6950 -10770.1004 121.9007 -11489.7954 -10768.9314 121.9007 620.0370 671.5137 28945.0480 620.0370 671.5137
ENERGY: 500000 4.1093 7.4417 5.0850 0.0000 -13611.5196 2283.7980 0.0000 0.0000 889.9391 -10421.1466 150.7364 -11311.0857 -10419.2545 150.0721 70.3158 115.9375 29403.0525 5.2355 5.3568
TCL: Running 100000 steps at 180 kelvin.
TCL: Setting parameter langevinTemp to 180
TCL: Running for 100000 steps
ETITLE: TS BOND ANGLE DIHED IMPRP ELECT VDW BOUNDARY MISC KINETIC TOTAL TEMP POTENTIAL TOTAL3 TEMPAVG PRESSURE GPRESSURE VOLUME PRESSAVG GPRESSAVG
ENERGY: 500000 4.1093 7.4417 5.0850 0.0000 -13611.5196 2283.7980 0.0000 0.0000 889.5059 -10421.5798 150.6630 -11311.0857 -10419.4506 150.6630 69.5201 115.0251 29403.0525 69.5201 115.0251
ENERGY: 600000 3.2944 8.3682 7.7790 0.0000 -13115.1489 2081.3978 0.0000 0.0000 1086.0077 -9928.3018 183.9461 -11014.3094 -9926.1234 180.0912 -407.1819 -325.2004 28989.9256 4.5353 4.5825
TCL: Running 100000 steps at 210 kelvin.
TCL: Setting parameter langevinTemp to 210
TCL: Running for 100000 steps
ETITLE: TS BOND ANGLE DIHED IMPRP ELECT VDW BOUNDARY MISC KINETIC TOTAL TEMP POTENTIAL TOTAL3 TEMPAVG PRESSURE GPRESSURE VOLUME PRESSAVG GPRESSAVG
ENERGY: 600000 3.2944 8.3682 7.7790 0.0000 -13115.1489 2081.3978 0.0000 0.0000 1085.4978 -9928.8116 183.8598 -11014.3094 -9926.6239 183.8598 -385.9952 -324.8374 28989.9256 -385.9952 -324.8374
ENERGY: 700000 7.4434 4.8456 7.3991 0.0000 -12375.5685 1810.4341 0.0000 0.0000 1249.1207 -9296.3257 211.5739 -10545.4464 -9293.1746 209.8964 -908.2431 -887.7243 29077.3299 2.3941 2.5930
TCL: Running 100000 steps at 240 kelvin.
TCL: Setting parameter langevinTemp to 240
TCL: Running for 100000 steps
ETITLE: TS BOND ANGLE DIHED IMPRP ELECT VDW BOUNDARY MISC KINETIC TOTAL TEMP POTENTIAL TOTAL3 TEMPAVG PRESSURE GPRESSURE VOLUME PRESSAVG GPRESSAVG
ENERGY: 700000 7.4434 4.8456 7.3991 0.0000 -12375.5685 1810.4341 0.0000 0.0000 1248.4951 -9296.9513 211.4680 -10545.4464 -9294.8195 211.4680 -970.0760 -888.1046 29077.3299 -970.0760 -888.1046
ENERGY: 800000 10.1057 9.1129 8.5987 0.0000 -11730.3170 1661.4385 0.0000 0.0000 1431.5378 -8609.5235 242.4714 -10041.0612 -8607.7692 239.5034 -760.8581 -630.1452 29812.7423 4.3927 4.4280
TCL: Running 100000 steps at 270 kelvin.
TCL: Setting parameter langevinTemp to 270
TCL: Running for 100000 steps
ETITLE: TS BOND ANGLE DIHED IMPRP ELECT VDW BOUNDARY MISC KINETIC TOTAL TEMP POTENTIAL TOTAL3 TEMPAVG PRESSURE GPRESSURE VOLUME PRESSAVG GPRESSAVG
ENERGY: 800000 10.1057 9.1129 8.5987 0.0000 -11730.3170 1661.4385 0.0000 0.0000 1430.8550 -8610.2063 242.3558 -10041.0612 -8607.6093 242.3558 -717.5355 -632.6467 29812.7423 -717.5355 -632.6467
ENERGY: 900000 8.3920 11.9729 14.3955 0.0000 -11114.7199 1454.5397 0.0000 0.0000 1548.8131 -8076.6068 262.3353 -9625.4199 -8071.6837 269.9978 -869.8956 -765.9924 29856.5981 2.3445 2.4086
TCL: Running 1000000 steps at 300 kelvin.
TCL: Setting parameter langevinTemp to 300
TCL: Running for 1000000 steps
ETITLE: TS BOND ANGLE DIHED IMPRP ELECT VDW BOUNDARY MISC KINETIC TOTAL TEMP POTENTIAL TOTAL3 TEMPAVG PRESSURE GPRESSURE VOLUME PRESSAVG GPRESSAVG
ENERGY: 900000 8.3920 11.9729 14.3955 0.0000 -11114.7199 1454.5397 0.0000 0.0000 1548.0220 -8077.3979 262.2013 -9625.4199 -8074.7798 262.2013 -846.6543 -765.6619 29856.5981 -846.6543 -765.6619
ENERGY: 1100000 6.9698 12.1513 9.1987 0.0000 -10832.5554 1524.3874 0.0000 0.0000 1750.6442 -7529.2041 296.5211 -9279.8483 -7526.3278 300.2696 522.3246 551.3426 30611.4024 3.7330 3.5783
ENERGY: 1300000 9.7235 7.0062 7.3877 0.0000 -10526.9865 1311.0915 0.0000 0.0000 1756.3247 -7435.4528 297.4833 -9191.7775 -7430.7612 300.3236 -883.6528 -834.6757 30890.6157 3.7212 3.3908
ENERGY: 1500000 7.4249 7.7159 6.6443 0.0000 -10678.7133 1361.9117 0.0000 0.0000 1807.6907 -7487.3259 306.1836 -9295.0166 -7484.9008 300.4494 -645.4541 -640.9105 30568.5812 2.5441 2.7371
ENERGY: 1700000 9.1842 12.5967 8.5921 0.0000 -10774.4399 1436.2420 0.0000 0.0000 1750.4654 -7557.3593 296.4908 -9307.8248 -7551.9671 299.8323 -505.8322 -442.3697 30683.3554 3.6974 3.5868
ENERGY: 1900000 5.4635 10.5672 9.2538 0.0000 -10933.4467 1566.0144 0.0000 0.0000 1776.0091 -7566.1388 300.8174 -9342.1479 -7564.7196 300.0393 727.8789 785.4806 30797.0501 3.5686 3.6469
TCL: Exiting due to exit command.
