Info: SIMULATION PARAMETERS:
Info: TIMESTEP               2
Info: NUMBER OF STEPS        0
Info: STEPS PER CYCLE        10
Info: PERIODIC CELL BASIS 1  30.9996 0 0
Info: PERIODIC CELL BASIS 2  0 30.3564 0
Info: PERIODIC CELL BASIS 3  0 0 32.0744
Info: PERIODIC CELL CENTER   0 0 0
Info: WRAPPING WATERS AROUND PERIODIC BOUNDARIES ON OUTPUT.
Info: WRAPPING ALL CLUSTERS AROUND PERIODIC BOUNDARIES ON OUTPUT.
Info: FIRST LDB TIMESTEP     50
Info: LAST LDB TIMESTEP     -1
Info: HOM BACKGROUND SCALING 1
Info: PME BACKGROUND SCALING 1
Info: MIN ATOMS PER PATCH    40
Info: EMPTY PATCH LOAD       40 ATOMS
Info: VELOCITY FILE          mobley_3425174_equil.vel
Info: CENTER OF MASS MOVING INITIALLY? NO
Info: DIELECTRIC             1
Info: EXCLUDE                SCALED ONE-FOUR
Info: 1-4 ELECTROSTATICS SCALED BY 0.833333
Info: MODIFIED 1-4 VDW PARAMETERS WILL BE USED
Info: DCD FILENAME           mobley_3425174_prod.dcd
Info: DCD FREQUENCY          100000
Info: DCD FIRST STEP         100000
Info: DCD FILE WILL CONTAIN UNIT CELL DATA
Info: XST FILENAME           mobley_3425174_prod.xst
Info: XST FREQUENCY          100000
Info: NO VELOCITY DCD OUTPUT
Info: NO FORCE DCD OUTPUT
Info: OUTPUT FILENAME        mobley_3425174_prod
Info: BINARY OUTPUT FILES WILL BE USED
Info: RESTART FILENAME       mobley_3425174_prod.restart
Info: RESTART FREQUENCY      100000
Info: BINARY RESTART FILES WILL BE USED
Info: CUTOFF                 9
Info: PAIRLIST DISTANCE      11
Info: PAIRLIST SHRINK RATE   0.01
Info: PAIRLIST GROW RATE     0.01
Info: PAIRLIST TRIGGER       0.3
Info: PAIRLISTS PER CYCLE    2
Info: PAIRLISTS ENABLED
Info: MARGIN                 2
Info: HYDROGEN GROUP CUTOFF  2.5
Info: PATCH DIMENSION        15.5
Info: ENERGY OUTPUT STEPS    100000
Info: ENERGY EVALUATION STEPS    100000
Info: OUTPUT ENERGY PRECISION 4
Info: CROSSTERM ENERGY INCLUDED IN DIHEDRAL
Info: TIMING OUTPUT STEPS    1000000
Info: PRESSURE OUTPUT STEPS  100000
Info: ALCHEMICAL FEP ON
Info: FEP CURRENT LAMBDA VALUE     1
Info: FEP COMPARISON LAMBDA VALUE  0.95
Info: FEP INTRA-ALCHEMICAL NON-BONDED INTERACTIONS WILL BE RETAINED
Info: FEP INTRA-ALCHEMICAL BONDED INTERACTIONS WILL BE RETAINED
Info: FEP VDW SHIFTING COEFFICIENT 5
Info: FEP ELEC. ACTIVE FOR ANNIHILATED PARTICLES BETWEEN LAMBDA = 0 AND LAMBDA = 0.5
Info: FEP ELEC. ACTIVE FOR EXNIHILATED PARTICLES BETWEEN LAMBDA = 0.5 AND LAMBDA = 1
Info: FEP VDW ACTIVE FOR ANNIHILATED PARTICLES BETWEEN LAMBDA = 0 AND LAMBDA = 1
Info: FEP VDW ACTIVE FOR EXNIHILATED PARTICLES BETWEEN LAMBDA = 0 AND LAMBDA = 1
Info: FEP BOND ACTIVE FOR ANNIHILATED PARTICLES BETWEEN LAMBDA = 1 AND LAMBDA = 1
Info: FEP BOND ACTIVE FOR EXNIHILATED PARTICLES BETWEEN LAMBDA = 0 AND LAMBDA = 0
Info: LANGEVIN DYNAMICS ACTIVE
Info: LANGEVIN TEMPERATURE   300
Info: LANGEVIN USING BBK INTEGRATOR
Info: LANGEVIN DAMPING COEFFICIENT IS 1 INVERSE PS
Info: LANGEVIN DYNAMICS APPLIED TO HYDROGENS
Info: LANGEVIN PISTON PRESSURE CONTROL ACTIVE
Info:        TARGET PRESSURE IS 1.01325 BAR
Info:     OSCILLATION PERIOD IS 50 FS
Info:             DECAY TIME IS 25 FS
Info:     PISTON TEMPERATURE IS 300 K
Info:       PRESSURE CONTROL IS GROUP-BASED
Info:    INITIAL STRAIN RATE IS 0.000705704 0.000705704 0.000705704
Info:       CELL FLUCTUATION IS ISOTROPIC
Info: PARTICLE MESH EWALD (PME) ACTIVE
Info: PME TOLERANCE               1e-06
Info: PME EWALD COEFFICIENT       0.348832
Info: PME INTERPOLATION ORDER     4
Info: PME GRID DIMENSIONS         32 32 36
Info: PME MAXIMUM GRID SPACING    1
Info: PME CALCULATION WILL BE PERFORMED ON GPU
Info: FULL ELECTROSTATIC EVALUATION FREQUENCY      2
Info: USING VERLET I (r-RESPA) MTS SCHEME.
Info: C1 SPLITTING OF LONG RANGE ELECTROSTATICS
Info: PLACING ATOMS IN PATCHES BY HYDROGEN GROUPS
Info: RIGID BONDS TO HYDROGEN : ALL
Info:         ERROR TOLERANCE : 1e-08
Info:          MAX ITERATIONS : 100
Info: RIGID WATER USING SETTLE ALGORITHM
Info: RANDOM NUMBER SEED     1743471126
Info: USE HYDROGEN BONDS?    NO
Info: Using AMBER format force field!
Info: AMBER PARM FILE        mobley_3425174.prmtop
Info: COORDINATE PDB         mobley_3425174.pdb
Info: Exclusions will be read from PARM file!
Info: SCNB (VDW SCALING)     2
Info: USING ARITHMETIC MEAN TO COMBINE L-J SIGMA PARAMETERS
Info: BINARY COORDINATES     mobley_3425174_equil.coor
Info: SUMMARY OF PARAMETERS:
Info: 5 BONDS
Info: 4 ANGLES
Info:   4 HARMONIC
Info:   0 COSINE-BASED
Info: 0 DIHEDRAL
Info: 0 IMPROPER
Info: 0 CROSSTERM
Info: 0 VDW
Info: 21 VDW_PAIRS
Info: 0 NBTHOLE_PAIRS
Info: To read alchdata from file: mobley_3425174.pdb
Info: To read alchflag data from column: 5
Info: STRUCTURE SUMMARY:
Info: 2903 ATOMS
Info: 2902 BONDS
Info: 6 ANGLES
Info: 0 DIHEDRALS
Info: 0 IMPROPERS
Info: 0 CROSSTERMS
Info: 2908 EXCLUSIONS
Info: 2900 RIGID BONDS
Info: ALCH: 0 ATOMS TO DISAPPEAR IN FINAL STATE
Info: ALCH: 5 ATOMS TO APPEAR IN FINAL STATE
Info: 5809 DEGREES OF FREEDOM
Info: 969 HYDROGEN GROUPS
Info: 3 ATOMS IN LARGEST HYDROGEN GROUP
Info: 969 MIGRATION GROUPS
Info: 3 ATOMS IN LARGEST MIGRATION GROUP
Info: TOTAL MASS = 17471.9 amu
Info: TOTAL CHARGE = -9.99868e-05 e
Info: MASS DENSITY = 0.961246 g/cm^3
Info: ATOM DENSITY = 0.0961792 atoms/A^3
Info: ADDED 0 IMPLICIT EXCLUSIONS
Info: NONBONDED TABLE R-SQUARED SPACING: 0.0625
Info: NONBONDED TABLE SIZE: 705 POINTS
Info: REMOVING COM VELOCITY 0.0620943 0.097373 -0.000958369
Info: Use 3D box decompostion in PME FFT.
Info: Updated CUDA force table with 4096 elements.
Info: Updated CUDA LJ table with 6 x 6 elements.
Info: Found 8 unique exclusion lists needing 8 bytes
TCL: Running for 1500000 steps
ETITLE: TS BOND ANGLE DIHED IMPRP ELECT VDW BOUNDARY MISC KINETIC TOTAL TEMP POTENTIAL TOTALAVG TEMPAVG PRESSURE GPRESSURE VOLUME PRESSAVG GPRESSAVG
ENERGY: 0 0.2082 0.3986 0.0000 0.0000 -10535.4070 1378.3584 0.0000 0.0000 1736.0137 -7420.4281 300.7753 -9156.4418 -7420.4281 300.7753 -457.5253 -363.6936 30183.2263 -457.5253 -363.6936
ENERGY: 300000 0.1017 1.2186 0.0000 0.0000 -10547.2760 1400.2488 0.0000 0.0000 1734.1375 -7411.5695 300.4502 -9145.7069 -7414.0494 298.6499 -406.9618 -267.9845 30144.6407 -316.0076 -205.5018
ENERGY: 600000 1.1753 2.3010 0.0000 0.0000 -10501.9895 1443.5817 0.0000 0.0000 1742.4495 -7312.4819 301.8903 -9054.9314 -7386.6458 298.4466 318.6782 342.3212 30269.4075 -102.4390 -15.2286
ENERGY: 900000 0.6026 0.4686 0.0000 0.0000 -10623.2029 1479.8314 0.0000 0.0000 1707.6342 -7434.6660 295.8584 -9142.3002 -7389.5035 299.5646 432.9257 579.4332 29842.1518 -83.0686 10.9312
ENERGY: 1200000 2.0273 0.8109 0.0000 0.0000 -10550.6761 1370.3851 0.0000 0.0000 1769.9586 -7407.4943 306.6564 -9177.4529 -7390.2720 300.0845 -550.3375 -502.3017 30077.0324 -144.9678 -61.4719
ENERGY: 1500000 0.3792 1.2969 0.0000 0.0000 -10590.9382 1399.7400 0.0000 0.0000 1737.6868 -7451.8353 301.0652 -9189.5221 -7392.2381 299.6206 -333.5017 -291.3625 29956.4094 -180.6297 -101.9981
TCL: Running FEP window   2: Lambda1 0.95   Lambda2 0.8999999999999999 [dLambda -0.050000000000000044]
TCL: Setting parameter firsttimestep to 0
TCL: Setting parameter alchLambda to 0.95
Info: NONBONDED TABLE R-SQUARED SPACING: 0.0625
Info: NONBONDED TABLE SIZE: 705 POINTS
TCL: Setting parameter alchLambda2 to 0.8999999999999999
Info: NONBONDED TABLE R-SQUARED SPACING: 0.0625
Info: NONBONDED TABLE SIZE: 705 POINTS
TCL: Running for 1500000 steps
ETITLE: TS BOND ANGLE DIHED IMPRP ELECT VDW BOUNDARY MISC KINETIC TOTAL TEMP POTENTIAL TOTALAVG TEMPAVG PRESSURE GPRESSURE VOLUME PRESSAVG GPRESSAVG
ENERGY: 0 0.3792 1.2969 0.0000 0.0000 -10590.6702 1399.9608 0.0000 0.0000 1736.8320 -7452.2013 300.9171 -9189.0333 -7452.2013 300.9171 -380.5095 -294.6379 29956.4094 -380.5095 -294.6379
ENERGY: 300000 0.5633 3.5366 0.0000 0.0000 -10528.5257 1451.6841 0.0000 0.0000 1712.2606 -7360.4811 296.6599 -9072.7417 -7390.8733 298.5681 389.0258 469.0692 30088.5712 -231.1005 -177.2068
ENERGY: 600000 0.3461 1.0587 0.0000 0.0000 -10559.6382 1406.0138 0.0000 0.0000 1700.3420 -7451.8775 294.5949 -9152.2196 -7400.2433 297.2192 -310.0610 -212.5834 29907.2329 -208.4183 -157.2838
ENERGY: 900000 0.4425 0.6934 0.0000 0.0000 -10471.9696 1332.9079 0.0000 0.0000 1762.8916 -7375.0342 305.4320 -9137.9258 -7397.5514 299.0471 -738.4004 -699.8177 29950.9119 -243.1337 -186.4681
ENERGY: 1200000 1.0361 1.7835 0.0000 0.0000 -10547.6383 1438.4327 0.0000 0.0000 1723.5442 -7382.8418 298.6149 -9106.3861 -7404.9891 298.9735 166.7013 238.9676 29917.0494 -255.5817 -193.9009
ENERGY: 1500000 0.3092 1.4751 0.0000 0.0000 -10640.8049 1490.1195 0.0000 0.0000 1754.3651 -7394.5359 303.9548 -9148.9011 -7402.8068 298.9513 304.6295 353.6748 30137.4794 -143.9519 -81.6571
TCL: Running FEP window   3: Lambda1 0.8999999999999999 Lambda2 0.8499999999999999 [dLambda -0.050000000000000044]
TCL: Setting parameter firsttimestep to 0
TCL: Setting parameter alchLambda to 0.8999999999999999
Info: NONBONDED TABLE R-SQUARED SPACING: 0.0625
Info: NONBONDED TABLE SIZE: 705 POINTS
TCL: Setting parameter alchLambda2 to 0.8499999999999999
Info: NONBONDED TABLE R-SQUARED SPACING: 0.0625
Info: NONBONDED TABLE SIZE: 705 POINTS
TCL: Running for 1500000 steps
ETITLE: TS BOND ANGLE DIHED IMPRP ELECT VDW BOUNDARY MISC KINETIC TOTAL TEMP POTENTIAL TOTALAVG TEMPAVG PRESSURE GPRESSURE VOLUME PRESSAVG GPRESSAVG
ENERGY: 0 0.3092 1.4751 0.0000 0.0000 -10640.3480 1490.3685 0.0000 0.0000 1753.5176 -7394.6776 303.8079 -9148.1952 -7394.6776 303.8079 267.0166 353.7065 30137.4794 267.0166 353.7065
ENERGY: 300000 1.6878 0.8654 0.0000 0.0000 -10546.2622 1420.8542 0.0000 0.0000 1708.5808 -7414.2739 296.0224 -9122.8547 -7364.4941 302.9109 -111.5887 -82.9586 30051.2578 50.4715 109.5346
ENERGY: 600000 0.7781 1.9633 0.0000 0.0000 -10464.3460 1349.9358 0.0000 0.0000 1731.7034 -7379.9655 300.0285 -9111.6689 -7383.9639 301.7248 -295.0544 -208.9392 29744.5297 -147.5220 -87.4815
ENERGY: 900000 0.2108 2.0903 0.0000 0.0000 -10640.8018 1462.6738 0.0000 0.0000 1753.7167 -7422.1102 303.8425 -9175.8270 -7389.0066 302.2473 414.8256 455.1080 29606.4644 -5.2760 47.7662
ENERGY: 1200000 2.8658 1.5099 0.0000 0.0000 -10516.8017 1366.7826 0.0000 0.0000 1722.0129 -7423.6305 298.3496 -9145.6434 -7388.2180 301.4755 -506.0812 -441.7238 29767.1086 -63.1266 -11.7392
ENERGY: 1500000 0.2139 1.4833 0.0000 0.0000 -10562.0726 1413.5769 0.0000 0.0000 1693.4504 -7453.3481 293.4009 -9146.7985 -7392.5044 301.3698 154.4999 227.3438 29444.2918 17.2960 67.6243
TCL: Running FEP window   4: Lambda1 0.8499999999999999 Lambda2 0.7999999999999998 [dLambda -0.050000000000000044]
TCL: Setting parameter firsttimestep to 0
TCL: Setting parameter alchLambda to 0.8499999999999999
Info: NONBONDED TABLE R-SQUARED SPACING: 0.0625
Info: NONBONDED TABLE SIZE: 705 POINTS
TCL: Setting parameter alchLambda2 to 0.7999999999999998
Info: NONBONDED TABLE R-SQUARED SPACING: 0.0625
Info: NONBONDED TABLE SIZE: 705 POINTS
TCL: Running for 1500000 steps
ETITLE: TS BOND ANGLE DIHED IMPRP ELECT VDW BOUNDARY MISC KINETIC TOTAL TEMP POTENTIAL TOTALAVG TEMPAVG PRESSURE GPRESSURE VOLUME PRESSAVG GPRESSAVG
ENERGY: 0 0.2139 1.4833 0.0000 0.0000 -10561.7792 1413.6704 0.0000 0.0000 1692.5855 -7453.8261 293.2511 -9146.4116 -7453.8261 293.2511 136.9456 219.8402 29444.2918 136.9456 219.8402
ENERGY: 300000 2.0364 2.1456 0.0000 0.0000 -10557.6913 1391.2981 0.0000 0.0000 1714.5577 -7447.6536 297.0579 -9162.2113 -7423.0392 299.2479 -182.5618 -132.3930 29548.4228 -211.8114 -143.3215
ENERGY: 600000 0.3203 2.5695 0.0000 0.0000 -10559.9453 1390.3868 0.0000 0.0000 1736.1987 -7430.4700 300.8073 -9166.6687 -7404.1776 300.2934 -525.8574 -488.8334 30217.2248 28.3044 79.0045
ENERGY: 900000 1.3819 0.6038 0.0000 0.0000 -10447.9036 1383.0518 0.0000 0.0000 1735.9506 -7326.9155 300.7644 -9062.8661 -7385.1451 300.9030 -253.7034 -173.6731 30226.6167 2.0090 61.9558
ENERGY: 1200000 0.1892 1.0199 0.0000 0.0000 -10479.9882 1379.2888 0.0000 0.0000 1760.3568 -7339.1335 304.9929 -9099.4904 -7388.8233 300.7639 -90.1546 -40.7232 29669.0347 -72.4915 -12.7074
ENERGY: 1500000 1.5602 1.0727 0.0000 0.0000 -10574.2413 1422.8083 0.0000 0.0000 1713.3955 -7435.4045 296.8565 -9148.8000 -7396.1824 300.2661 -170.7426 -79.0543 30094.8329 -119.7884 -51.2219
TCL: Running FEP window   5: Lambda1 0.7999999999999998 Lambda2 0.7499999999999998 [dLambda -0.050000000000000044]
TCL: Setting parameter firsttimestep to 0
TCL: Setting parameter alchLambda to 0.7999999999999998
Info: NONBONDED TABLE R-SQUARED SPACING: 0.0625
Info: NONBONDED TABLE SIZE: 705 POINTS
TCL: Setting parameter alchLambda2 to 0.7499999999999998
Info: NONBONDED TABLE R-SQUARED SPACING: 0.0625
Info: NONBONDED TABLE SIZE: 705 POINTS
TCL: Running for 1500000 steps
ETITLE: TS BOND ANGLE DIHED IMPRP ELECT VDW BOUNDARY MISC KINETIC TOTAL TEMP POTENTIAL TOTALAVG TEMPAVG PRESSURE GPRESSURE VOLUME PRESSAVG GPRESSAVG
ENERGY: 0 1.5602 1.0727 0.0000 0.0000 -10573.7741 1423.0242 0.0000 0.0000 1712.5228 -7435.5942 296.7053 -9148.1169 -7435.5942 296.7053 -147.0569 -79.0733 30094.8329 -147.0569 -79.0733
ENERGY: 300000 0.1125 2.0451 0.0000 0.0000 -10528.9308 1372.7494 0.0000 0.0000 1737.2733 -7416.7505 300.9935 -9154.0238 -7407.9675 298.2187 -590.4938 -522.1203 30106.2619 -282.9063 -214.5077
ENERGY: 600000 0.3562 3.5719 0.0000 0.0000 -10471.9159 1409.2464 0.0000 0.0000 1742.6565 -7316.0849 301.9262 -9058.7414 -7395.8567 299.4637 -24.3298 71.1038 30225.2689 -195.8460 -128.5930
ENERGY: 900000 0.7186 1.6057 0.0000 0.0000 -10627.9524 1475.8769 0.0000 0.0000 1754.1754 -7395.5758 303.9219 -9149.7512 -7392.3435 300.6909 125.1960 282.0221 30100.0644 -125.5422 -47.6510
ENERGY: 1200000 0.2675 5.3095 0.0000 0.0000 -10526.8477 1402.2416 0.0000 0.0000 1763.5774 -7355.4518 305.5509 -9119.0292 -7387.8603 300.5719 89.1429 169.3908 29803.1578 -41.7484 31.4971
ENERGY: 1500000 0.0421 1.1786 0.0000 0.0000 -10611.2860 1428.9501 0.0000 0.0000 1768.8403 -7412.2750 306.4627 -9181.1153 -7391.5706 301.1593 51.2844 107.2874 29823.1058 18.9427 90.1224
TCL: Running FEP window   6: Lambda1 0.7499999999999998 Lambda2 0.6999999999999997 [dLambda -0.050000000000000044]
TCL: Setting parameter firsttimestep to 0
TCL: Setting parameter alchLambda to 0.7499999999999998
Info: NONBONDED TABLE R-SQUARED SPACING: 0.0625
Info: NONBONDED TABLE SIZE: 705 POINTS
TCL: Setting parameter alchLambda2 to 0.6999999999999997
Info: NONBONDED TABLE R-SQUARED SPACING: 0.0625
Info: NONBONDED TABLE SIZE: 705 POINTS
TCL: Running for 1500000 steps
ETITLE: TS BOND ANGLE DIHED IMPRP ELECT VDW BOUNDARY MISC KINETIC TOTAL TEMP POTENTIAL TOTALAVG TEMPAVG PRESSURE GPRESSURE VOLUME PRESSAVG GPRESSAVG
ENERGY: 0 0.0421 1.1786 0.0000 0.0000 -10610.8719 1429.1612 0.0000 0.0000 1768.0103 -7412.4796 306.3189 -9180.4900 -7412.4796 306.3189 20.0856 107.3821 29823.1058 20.0856 107.3821
ENERGY: 300000 3.9092 1.8210 0.0000 0.0000 -10674.0497 1423.3788 0.0000 0.0000 1742.6310 -7502.3096 301.9218 -9244.9406 -7427.4851 299.5875 -67.6796 -72.9356 29642.9817 236.3876 279.8205
ENERGY: 600000 0.9110 1.2911 0.0000 0.0000 -10557.2467 1372.4896 0.0000 0.0000 1707.0719 -7475.4831 295.7609 -9182.5550 -7418.5136 299.0359 -387.9087 -306.2908 29625.6729 45.2580 91.8236
ENERGY: 900000 0.5097 1.3899 0.0000 0.0000 -10631.6427 1459.4438 0.0000 0.0000 1697.9910 -7472.3083 294.1876 -9170.2993 -7443.1848 297.8912 37.1264 136.7934 30110.6119 -14.5052 30.2016
ENERGY: 1200000 0.7228 2.0120 0.0000 0.0000 -10540.5764 1436.1603 0.0000 0.0000 1715.1798 -7386.5015 297.1657 -9101.6813 -7444.4591 296.3784 -105.4032 26.7003 30231.6969 -127.0010 -78.7188
ENERGY: 1500000 1.1046 6.0405 0.0000 0.0000 -10565.1031 1406.5461 0.0000 0.0000 1760.3298 -7391.0820 304.9882 -9151.4118 -7436.4516 297.4925 -87.8217 -32.0983 29793.4402 -155.2345 -102.2817
TCL: Running FEP window   7: Lambda1 0.6999999999999997 Lambda2 0.6499999999999997 [dLambda -0.050000000000000044]
TCL: Setting parameter firsttimestep to 0
TCL: Setting parameter alchLambda to 0.6999999999999997
Info: NONBONDED TABLE R-SQUARED SPACING: 0.0625
Info: NONBONDED TABLE SIZE: 705 POINTS
TCL: Setting parameter alchLambda2 to 0.6499999999999997
Info: NONBONDED TABLE R-SQUARED SPACING: 0.0625
Info: NONBONDED TABLE SIZE: 705 POINTS
TCL: Running for 1500000 steps
ETITLE: TS BOND ANGLE DIHED IMPRP ELECT VDW BOUNDARY MISC KINETIC TOTAL TEMP POTENTIAL TOTALAVG TEMPAVG PRESSURE GPRESSURE VOLUME PRESSAVG GPRESSAVG
ENERGY: 0 1.1046 6.0405 0.0000 0.0000 -10564.7461 1406.4348 0.0000 0.0000 1759.4379 -7391.7282 304.8337 -9151.1661 -7391.7282 304.8337 -119.7820 -35.1220 29793.4402 -119.7820 -35.1220
ENERGY: 300000 0.0871 3.0523 0.0000 0.0000 -10562.1025 1397.3030 0.0000 0.0000 1739.5451 -7422.1150 301.3871 -9161.6600 -7402.6174 299.6366 -420.7846 -339.3050 30183.5603 -403.0602 -331.1921
ENERGY: 600000 0.2621 1.1812 0.0000 0.0000 -10602.1741 1457.6694 0.0000 0.0000 1737.3469 -7405.7144 301.0063 -9143.0613 -7401.7817 299.8063 279.1371 259.6907 29778.1695 -125.6541 -81.8315
ENERGY: 900000 1.3804 1.3379 0.0000 0.0000 -10539.4034 1464.6098 0.0000 0.0000 1660.7995 -7411.2758 287.7440 -9072.0753 -7403.9801 298.2690 296.3793 256.8839 30443.0030 -5.6913 34.3020
ENERGY: 1200000 0.4260 0.4492 0.0000 0.0000 -10604.2834 1450.0891 0.0000 0.0000 1687.5361 -7465.7831 292.3762 -9153.3192 -7408.3894 298.4807 14.6050 167.0188 29851.7508 -85.5158 -40.8294
ENERGY: 1500000 2.0392 1.4317 0.0000 0.0000 -10539.3626 1421.6293 0.0000 0.0000 1729.3235 -7384.9389 299.6162 -9114.2624 -7405.8895 298.0941 60.6820 124.3140 30151.7606 -121.1015 -70.6180
TCL: Running FEP window   8: Lambda1 0.6499999999999997 Lambda2 0.5999999999999996 [dLambda -0.050000000000000044]
TCL: Setting parameter firsttimestep to 0
TCL: Setting parameter alchLambda to 0.6499999999999997
Info: NONBONDED TABLE R-SQUARED SPACING: 0.0625
Info: NONBONDED TABLE SIZE: 705 POINTS
TCL: Setting parameter alchLambda2 to 0.5999999999999996
Info: NONBONDED TABLE R-SQUARED SPACING: 0.0625
Info: NONBONDED TABLE SIZE: 705 POINTS
TCL: Running for 1500000 steps
ETITLE: TS BOND ANGLE DIHED IMPRP ELECT VDW BOUNDARY MISC KINETIC TOTAL TEMP POTENTIAL TOTALAVG TEMPAVG PRESSURE GPRESSURE VOLUME PRESSAVG GPRESSAVG
ENERGY: 0 2.0392 1.4317 0.0000 0.0000 -10539.0193 1421.8640 0.0000 0.0000 1728.4663 -7385.2181 299.4677 -9113.6844 -7385.2181 299.4677 31.6306 122.7149 30151.7606 31.6306 122.7149
ENERGY: 300000 0.3124 2.3201 0.0000 0.0000 -10599.7967 1468.6334 0.0000 0.0000 1683.4372 -7445.0936 291.6661 -9128.5309 -7419.8333 296.9331 310.7240 315.1623 30122.1280 -162.1362 -112.9828
ENERGY: 600000 0.2328 1.7007 0.0000 0.0000 -10487.1910 1360.8655 0.0000 0.0000 1786.5000 -7337.8921 309.5224 -9124.3920 -7400.2976 298.8372 -621.2354 -506.9065 30403.4795 -31.1491 43.1035
ENERGY: 900000 0.6468 1.3634 0.0000 0.0000 -10434.8139 1412.6522 0.0000 0.0000 1707.7431 -7312.4083 295.8772 -9020.1514 -7379.0823 300.2127 199.8931 213.0665 30076.7015 -54.8876 16.3658
ENERGY: 1200000 0.3018 0.9499 0.0000 0.0000 -10435.1209 1395.5583 0.0000 0.0000 1694.1426 -7344.1683 293.5209 -9038.3109 -7387.6181 299.5520 -249.7183 -158.8367 30365.1742 -110.2082 -35.3031
ENERGY: 1500000 2.7928 1.2495 0.0000 0.0000 -10588.2222 1435.0657 0.0000 0.0000 1732.0299 -7417.0844 300.0851 -9149.1142 -7393.4661 299.2079 204.8903 252.4004 29717.8266 -142.0867 -72.3805
TCL: Running FEP window   9: Lambda1 0.5999999999999996 Lambda2 0.5499999999999996 [dLambda -0.050000000000000044]
TCL: Setting parameter firsttimestep to 0
TCL: Setting parameter alchLambda to 0.5999999999999996
Info: NONBONDED TABLE R-SQUARED SPACING: 0.0625
Info: NONBONDED TABLE SIZE: 705 POINTS
TCL: Setting parameter alchLambda2 to 0.5499999999999996
Info: NONBONDED TABLE R-SQUARED SPACING: 0.0625
Info: NONBONDED TABLE SIZE: 705 POINTS
TCL: Running for 1500000 steps
ETITLE: TS BOND ANGLE DIHED IMPRP ELECT VDW BOUNDARY MISC KINETIC TOTAL TEMP POTENTIAL TOTALAVG TEMPAVG PRESSURE GPRESSURE VOLUME PRESSAVG GPRESSAVG
ENERGY: 0 2.7928 1.2495 0.0000 0.0000 -10588.1452 1434.8253 0.0000 0.0000 1731.1724 -7418.1052 299.9365 -9149.2776 -7418.1052 299.9365 152.9367 247.2089 29717.8266 152.9367 247.2089
ENERGY: 300000 0.4408 2.0366 0.0000 0.0000 -10579.0224 1447.8828 0.0000 0.0000 1718.0682 -7410.5940 297.6661 -9128.6623 -7433.7208 299.0992 389.9186 431.3308 29512.1954 79.1992 161.9252
ENERGY: 600000 0.3154 1.3677 0.0000 0.0000 -10438.8564 1360.8121 0.0000 0.0000 1683.7606 -7392.6006 291.7221 -9076.3612 -7423.9631 299.6947 -465.2882 -402.2270 30137.3892 69.5062 158.7154
ENERGY: 900000 0.0854 1.7052 0.0000 0.0000 -10524.1031 1416.0889 0.0000 0.0000 1745.0661 -7361.1574 302.3437 -9106.2236 -7417.3423 299.3115 -135.7263 -7.2038 29858.9818 14.1618 98.0755
ENERGY: 1200000 0.5368 1.4838 0.0000 0.0000 -10377.6412 1259.2431 0.0000 0.0000 1723.6497 -7392.7278 298.6331 -9116.3775 -7414.8482 298.8405 -1085.0565 -1044.2377 29694.3772 -88.3084 -22.9866
ENERGY: 1500000 0.7492 1.4109 0.0000 0.0000 -10519.9179 1419.6360 0.0000 0.0000 1746.3691 -7351.7528 302.5694 -9098.1218 -7410.5021 299.2390 -30.9191 10.9607 30128.0478 -55.2085 7.2600
TCL: Running FEP window  10: Lambda1 0.5499999999999996 Lambda2 0.4999999999999996 [dLambda -0.04999999999999999]
TCL: Setting parameter firsttimestep to 0
TCL: Setting parameter alchLambda to 0.5499999999999996
Info: NONBONDED TABLE R-SQUARED SPACING: 0.0625
Info: NONBONDED TABLE SIZE: 705 POINTS
TCL: Setting parameter alchLambda2 to 0.4999999999999996
Info: NONBONDED TABLE R-SQUARED SPACING: 0.0625
Info: NONBONDED TABLE SIZE: 705 POINTS
TCL: Running for 1500000 steps
ETITLE: TS BOND ANGLE DIHED IMPRP ELECT VDW BOUNDARY MISC KINETIC TOTAL TEMP POTENTIAL TOTALAVG TEMPAVG PRESSURE GPRESSURE VOLUME PRESSAVG GPRESSAVG
ENERGY: 0 0.7492 1.4109 0.0000 0.0000 -10519.7804 1419.3417 0.0000 0.0000 1745.5226 -7352.7561 302.4228 -9098.2786 -7352.7561 302.4228 -91.8208 1.3784 30128.0478 -91.8208 1.3784
ENERGY: 300000 0.4170 0.8619 0.0000 0.0000 -10513.4963 1340.3339 0.0000 0.0000 1723.9082 -7447.9753 298.6779 -9171.8835 -7414.5977 300.5903 -844.5249 -695.9533 29872.1345 -290.4716 -206.3714
ENERGY: 600000 0.0076 0.9903 0.0000 0.0000 -10419.7776 1353.5828 0.0000 0.0000 1760.5171 -7304.6798 305.0207 -9065.1969 -7399.1107 300.9614 -436.4324 -360.2132 29979.6078 -240.8464 -169.1252
ENERGY: 900000 1.1830 1.4728 0.0000 0.0000 -10555.1625 1469.7820 0.0000 0.0000 1749.3275 -7333.3971 303.0820 -9082.7246 -7390.0030 300.8731 591.0097 654.9755 29440.8547 -127.5708 -57.1989
ENERGY: 1200000 0.0655 0.7180 0.0000 0.0000 -10577.7869 1464.9437 0.0000 0.0000 1777.9280 -7334.1316 308.0372 -9112.0596 -7392.2249 300.2946 412.5514 477.2503 29911.5119 -41.8204 30.6559
ENERGY: 1500000 0.8403 5.9706 0.0000 0.0000 -10425.9458 1386.5546 0.0000 0.0000 1734.8875 -7297.6928 300.5802 -9032.5803 -7392.5641 300.4655 -103.5690 -29.3990 30210.5668 -21.2563 44.8375
TCL: Running FEP window  11: Lambda1 0.4999999999999996 Lambda2 0.4499999999999996 [dLambda -0.04999999999999999]
TCL: Setting parameter firsttimestep to 0
TCL: Setting parameter alchLambda to 0.4999999999999996
Info: NONBONDED TABLE R-SQUARED SPACING: 0.0625
Info: NONBONDED TABLE SIZE: 705 POINTS
TCL: Setting parameter alchLambda2 to 0.4499999999999996
Info: NONBONDED TABLE R-SQUARED SPACING: 0.0625
Info: NONBONDED TABLE SIZE: 705 POINTS
TCL: Running for 1500000 steps
ETITLE: TS BOND ANGLE DIHED IMPRP ELECT VDW BOUNDARY MISC KINETIC TOTAL TEMP POTENTIAL TOTALAVG TEMPAVG PRESSURE GPRESSURE VOLUME PRESSAVG GPRESSAVG
ENERGY: 0 0.8403 5.9706 0.0000 0.0000 -10426.0591 1386.5044 0.0000 0.0000 1734.0523 -7298.6915 300.4355 -9032.7438 -7298.6915 300.4355 -107.9871 -33.4492 30210.5668 -107.9871 -33.4492
ENERGY: 300000 0.4488 0.9781 0.0000 0.0000 -10539.9696 1445.7655 0.0000 0.0000 1666.9272 -7425.8501 288.8056 -9092.7774 -7350.4732 302.9399 266.6499 319.0498 30035.1023 -10.2386 45.4562
ENERGY: 600000 1.4240 2.2718 0.0000 0.0000 -10470.3707 1341.2812 0.0000 0.0000 1772.3620 -7353.0318 307.0729 -9125.3937 -7360.2306 303.0754 -560.6274 -513.5234 30195.2114 -52.6331 -11.0598
ENERGY: 900000 0.3469 2.0935 0.0000 0.0000 -10484.3399 1361.4237 0.0000 0.0000 1704.7219 -7415.7538 295.3538 -9120.4757 -7371.0411 300.9833 -349.1066 -302.8510 29840.4820 -114.6212 -75.9513
ENERGY: 1200000 1.0274 3.8054 0.0000 0.0000 -10568.4502 1427.4624 0.0000 0.0000 1710.0789 -7426.0761 296.2819 -9136.1551 -7387.8364 300.3575 161.6333 179.1525 30024.1383 -71.3416 -29.7579
ENERGY: 1500000 0.6830 0.9970 0.0000 0.0000 -10547.8818 1402.9476 0.0000 0.0000 1750.5280 -7392.7261 303.2900 -9143.2541 -7389.1567 300.3643 46.4947 115.3909 29609.1629 -130.9043 -84.6335
TCL: Running FEP window  12: Lambda1 0.4499999999999996 Lambda2 0.39999999999999963 [dLambda -0.04999999999999999]
TCL: Setting parameter firsttimestep to 0
TCL: Setting parameter alchLambda to 0.4499999999999996
Info: NONBONDED TABLE R-SQUARED SPACING: 0.0625
Info: NONBONDED TABLE SIZE: 705 POINTS
TCL: Setting parameter alchLambda2 to 0.39999999999999963
Info: NONBONDED TABLE R-SQUARED SPACING: 0.0625
Info: NONBONDED TABLE SIZE: 705 POINTS
TCL: Running for 1500000 steps
ETITLE: TS BOND ANGLE DIHED IMPRP ELECT VDW BOUNDARY MISC KINETIC TOTAL TEMP POTENTIAL TOTALAVG TEMPAVG PRESSURE GPRESSURE VOLUME PRESSAVG GPRESSAVG
ENERGY: 0 0.6830 0.9970 0.0000 0.0000 -10547.8805 1403.2387 0.0000 0.0000 1749.7020 -7393.2599 303.1469 -9142.9618 -7393.2599 303.1469 53.1954 117.5688 29609.1629 53.1954 117.5688
ENERGY: 300000 2.3752 1.9879 0.0000 0.0000 -10547.4338 1426.3611 0.0000 0.0000 1711.9845 -7404.7251 296.6121 -9116.7096 -7392.2281 299.6084 60.9320 107.2191 29912.6029 168.6414 226.7227
ENERGY: 600000 0.0830 0.5692 0.0000 0.0000 -10571.0512 1379.9810 0.0000 0.0000 1759.0809 -7431.3373 304.7718 -9190.4181 -7401.5060 302.1796 -460.8413 -342.9781 29564.8204 -37.0896 29.8881
ENERGY: 900000 0.0731 1.5669 0.0000 0.0000 -10588.3633 1430.3648 0.0000 0.0000 1683.9392 -7472.4194 291.7531 -9156.3585 -7401.2008 301.0017 191.3995 237.8311 29378.7278 -62.5130 0.8524
ENERGY: 1200000 0.3855 1.9946 0.0000 0.0000 -10581.3443 1447.5238 0.0000 0.0000 1727.1938 -7404.2465 299.2472 -9131.4403 -7398.8587 300.8384 126.9909 151.4925 29910.6304 -14.5833 37.7531
ENERGY: 1500000 0.0223 0.6187 0.0000 0.0000 -10566.9387 1438.0427 0.0000 0.0000 1738.3637 -7389.8913 301.1825 -9128.2550 -7398.3092 300.9028 -155.7828 -112.0996 30391.8613 -13.6493 35.0303
TCL: Running FEP window  13: Lambda1 0.39999999999999963 Lambda2 0.34999999999999964 [dLambda -0.04999999999999999]
TCL: Setting parameter firsttimestep to 0
TCL: Setting parameter alchLambda to 0.39999999999999963
Info: NONBONDED TABLE R-SQUARED SPACING: 0.0625
Info: NONBONDED TABLE SIZE: 705 POINTS
TCL: Setting parameter alchLambda2 to 0.34999999999999964
Info: NONBONDED TABLE R-SQUARED SPACING: 0.0625
Info: NONBONDED TABLE SIZE: 705 POINTS
TCL: Running for 1500000 steps
ETITLE: TS BOND ANGLE DIHED IMPRP ELECT VDW BOUNDARY MISC KINETIC TOTAL TEMP POTENTIAL TOTALAVG TEMPAVG PRESSURE GPRESSURE VOLUME PRESSAVG GPRESSAVG
ENERGY: 0 0.0223 0.6187 0.0000 0.0000 -10566.9381 1438.0270 0.0000 0.0000 1737.4920 -7390.7782 301.0314 -9128.2702 -7390.7782 301.0314 -182.1154 -114.3450 30391.8613 -182.1154 -114.3450
ENERGY: 300000 0.2731 0.7741 0.0000 0.0000 -10507.4209 1408.4876 0.0000 0.0000 1750.0842 -7347.8018 303.2131 -9097.8860 -7377.3217 299.8331 -90.4639 -35.0900 29829.5628 72.3673 124.3107
ENERGY: 600000 0.5166 0.5767 0.0000 0.0000 -10695.3220 1516.3147 0.0000 0.0000 1771.0586 -7406.8554 306.8470 -9177.9140 -7396.7873 301.3084 432.1559 505.6375 29965.0986 167.0375 221.0376
ENERGY: 900000 1.2600 2.0232 0.0000 0.0000 -10445.3577 1322.3075 0.0000 0.0000 1796.5607 -7323.2063 311.2654 -9119.7669 -7391.1769 302.3003 -636.6273 -593.6493 29633.2296 24.6165 76.5968
ENERGY: 1200000 0.7888 1.6739 0.0000 0.0000 -10473.9346 1322.6746 0.0000 0.0000 1724.2347 -7424.5626 298.7345 -9148.7973 -7390.4102 302.5370 -869.6563 -831.1781 30092.6400 8.7518 62.7652
ENERGY: 1500000 0.0529 1.4024 0.0000 0.0000 -10697.8511 1454.6654 0.0000 0.0000 1786.6269 -7455.1035 309.5444 -9241.7305 -7400.7122 302.4292 284.7404 357.2995 29156.4618 7.0518 63.1603
TCL: Running FEP window  14: Lambda1 0.34999999999999964 Lambda2 0.29999999999999966 [dLambda -0.04999999999999999]
TCL: Setting parameter firsttimestep to 0
TCL: Setting parameter alchLambda to 0.34999999999999964
Info: NONBONDED TABLE R-SQUARED SPACING: 0.0625
Info: NONBONDED TABLE SIZE: 705 POINTS
TCL: Setting parameter alchLambda2 to 0.29999999999999966
Info: NONBONDED TABLE R-SQUARED SPACING: 0.0625
Info: NONBONDED TABLE SIZE: 705 POINTS
TCL: Running for 1500000 steps
ETITLE: TS BOND ANGLE DIHED IMPRP ELECT VDW BOUNDARY MISC KINETIC TOTAL TEMP POTENTIAL TOTALAVG TEMPAVG PRESSURE GPRESSURE VOLUME PRESSAVG GPRESSAVG
ENERGY: 0 0.0529 1.4024 0.0000 0.0000 -10697.8515 1453.8583 0.0000 0.0000 1785.8060 -7456.7319 309.4021 -9242.5380 -7456.7319 309.4021 260.4972 350.4108 29156.4618 260.4972 350.4108
ENERGY: 300000 0.0803 1.1497 0.0000 0.0000 -10536.5505 1416.7848 0.0000 0.0000 1772.3691 -7346.1666 307.0741 -9118.5357 -7406.5162 303.8234 405.4519 394.1239 29449.6001 81.3841 149.9171
ENERGY: 600000 0.1403 1.1861 0.0000 0.0000 -10486.4325 1411.2165 0.0000 0.0000 1718.7957 -7355.0939 297.7922 -9073.8896 -7406.6342 300.3761 198.3647 222.1152 29927.3559 -108.0037 -47.8507
ENERGY: 900000 0.2220 1.4381 0.0000 0.0000 -10411.1222 1355.3568 0.0000 0.0000 1768.5734 -7285.5320 306.4165 -9054.1053 -7400.7723 300.7762 -537.5128 -513.9318 30323.9888 -187.0378 -128.4307
ENERGY: 1200000 1.5231 2.8581 0.0000 0.0000 -10586.1868 1408.7520 0.0000 0.0000 1693.8308 -7479.2227 293.4668 -9173.0536 -7404.4086 300.6384 -271.0074 -143.2048 29486.0469 -159.7784 -96.6102
ENERGY: 1500000 0.3784 1.2742 0.0000 0.0000 -10521.9203 1411.5828 0.0000 0.0000 1676.6241 -7432.0608 290.4857 -9108.6849 -7410.8312 299.3818 -84.9487 2.1716 30035.2022 -157.8993 -92.1707
TCL: Running FEP window  15: Lambda1 0.29999999999999966 Lambda2 0.24999999999999967 [dLambda -0.04999999999999999]
TCL: Setting parameter firsttimestep to 0
TCL: Setting parameter alchLambda to 0.29999999999999966
Info: NONBONDED TABLE R-SQUARED SPACING: 0.0625
Info: NONBONDED TABLE SIZE: 705 POINTS
TCL: Setting parameter alchLambda2 to 0.24999999999999967
Info: NONBONDED TABLE R-SQUARED SPACING: 0.0625
Info: NONBONDED TABLE SIZE: 705 POINTS
TCL: Running for 1500000 steps
ETITLE: TS BOND ANGLE DIHED IMPRP ELECT VDW BOUNDARY MISC KINETIC TOTAL TEMP POTENTIAL TOTALAVG TEMPAVG PRESSURE GPRESSURE VOLUME PRESSAVG GPRESSAVG
ENERGY: 0 0.3784 1.2742 0.0000 0.0000 -10521.9212 1411.8165 0.0000 0.0000 1675.7660 -7432.6860 290.3370 -9108.4521 -7432.6860 290.3370 -77.6907 2.5754 30035.2022 -77.6907 2.5754
ENERGY: 300000 0.1654 2.6279 0.0000 0.0000 -10610.5923 1439.0355 0.0000 0.0000 1746.6685 -7422.0949 302.6213 -9168.7635 -7385.5228 300.2496 191.3750 184.1740 29742.8585 -97.0131 -30.0213
ENERGY: 600000 0.5132 1.7562 0.0000 0.0000 -10482.7134 1388.0567 0.0000 0.0000 1725.6507 -7366.7366 298.9798 -9092.3873 -7385.5194 300.3955 -329.5148 -315.1615 30362.4899 65.2497 117.5837
ENERGY: 900000 2.0378 1.3042 0.0000 0.0000 -10562.4524 1428.1398 0.0000 0.0000 1728.4920 -7402.4786 299.4721 -9130.9706 -7394.6968 299.0744 83.6669 118.9316 29921.1094 133.4610 178.1547
ENERGY: 1200000 0.4090 0.8753 0.0000 0.0000 -10579.9615 1426.3219 0.0000 0.0000 1734.9295 -7417.4258 300.5875 -9152.3554 -7404.7472 300.0004 217.1916 242.3757 29533.9387 198.3390 240.8340
ENERGY: 1500000 0.3836 0.7627 0.0000 0.0000 -10520.4873 1388.3238 0.0000 0.0000 1745.3918 -7385.6254 302.4001 -9131.0172 -7399.6472 300.1530 -421.2444 -358.5536 29932.0861 61.4001 107.2788
TCL: Running FEP window  16: Lambda1 0.24999999999999967 Lambda2 0.19999999999999968 [dLambda -0.04999999999999999]
TCL: Setting parameter firsttimestep to 0
TCL: Setting parameter alchLambda to 0.24999999999999967
Info: NONBONDED TABLE R-SQUARED SPACING: 0.0625
Info: NONBONDED TABLE SIZE: 705 POINTS
TCL: Setting parameter alchLambda2 to 0.19999999999999968
Info: NONBONDED TABLE R-SQUARED SPACING: 0.0625
Info: NONBONDED TABLE SIZE: 705 POINTS
TCL: Running for 1500000 steps
ETITLE: TS BOND ANGLE DIHED IMPRP ELECT VDW BOUNDARY MISC KINETIC TOTAL TEMP POTENTIAL TOTALAVG TEMPAVG PRESSURE GPRESSURE VOLUME PRESSAVG GPRESSAVG
ENERGY: 0 0.3836 0.7627 0.0000 0.0000 -10520.4879 1388.2834 0.0000 0.0000 1744.5753 -7386.4828 302.2586 -9131.0581 -7386.4828 302.2586 -436.2859 -359.4698 29932.0861 -436.2859 -359.4698
ENERGY: 300000 0.3855 1.5637 0.0000 0.0000 -10582.2248 1475.6224 0.0000 0.0000 1706.0144 -7398.6388 295.5777 -9104.6532 -7384.2937 300.9391 387.8418 495.6742 29877.5971 -78.1852 -3.3279
ENERGY: 600000 0.8476 1.9829 0.0000 0.0000 -10525.4749 1432.2721 0.0000 0.0000 1719.8162 -7370.5562 297.9690 -9090.3723 -7396.8619 299.2341 171.1640 269.0410 29610.4694 -62.9914 8.7324
ENERGY: 900000 0.0511 0.6823 0.0000 0.0000 -10609.7413 1470.7743 0.0000 0.0000 1790.4665 -7347.7671 310.2096 -9138.2336 -7396.5519 300.1455 243.2821 323.4452 30200.5529 141.8642 215.7296
ENERGY: 1200000 1.3172 1.2883 0.0000 0.0000 -10550.9896 1473.9578 0.0000 0.0000 1728.3286 -7346.0975 299.4438 -9074.4262 -7394.3326 301.0002 646.1410 680.0029 29772.7353 86.0008 151.7953
ENERGY: 1500000 0.2944 1.3361 0.0000 0.0000 -10509.6012 1419.7925 0.0000 0.0000 1679.1652 -7409.0130 290.9259 -9088.1783 -7395.0138 300.1145 -18.3866 70.9177 29759.3274 28.6271 99.9367
TCL: Running FEP window  17: Lambda1 0.19999999999999968 Lambda2 0.1499999999999997 [dLambda -0.04999999999999999]
TCL: Setting parameter firsttimestep to 0
TCL: Setting parameter alchLambda to 0.19999999999999968
Info: NONBONDED TABLE R-SQUARED SPACING: 0.0625
Info: NONBONDED TABLE SIZE: 705 POINTS
TCL: Setting parameter alchLambda2 to 0.1499999999999997
Info: NONBONDED TABLE R-SQUARED SPACING: 0.0625
Info: NONBONDED TABLE SIZE: 705 POINTS
TCL: Running for 1500000 steps
ETITLE: TS BOND ANGLE DIHED IMPRP ELECT VDW BOUNDARY MISC KINETIC TOTAL TEMP POTENTIAL TOTALAVG TEMPAVG PRESSURE GPRESSURE VOLUME PRESSAVG GPRESSAVG
ENERGY: 0 0.2944 1.3361 0.0000 0.0000 -10509.6017 1419.9138 0.0000 0.0000 1678.2963 -7409.7611 290.7754 -9088.0574 -7409.7611 290.7754 -20.2310 69.9027 29759.3274 -20.2310 69.9027
ENERGY: 300000 0.0735 3.6439 0.0000 0.0000 -10641.0233 1459.5756 0.0000 0.0000 1696.7245 -7481.0058 293.9682 -9177.7303 -7416.6659 294.5158 -30.1949 14.4796 30093.3070 -83.1384 -12.9387
ENERGY: 600000 1.0546 1.8516 0.0000 0.0000 -10590.1588 1485.1416 0.0000 0.0000 1705.8340 -7396.2770 295.5465 -9102.1110 -7398.8848 295.6116 722.2199 775.9191 29502.9058 13.6015 69.5709
ENERGY: 900000 0.1636 1.3733 0.0000 0.0000 -10530.0032 1397.5394 0.0000 0.0000 1708.7677 -7422.1592 296.0547 -9130.9269 -7384.5247 297.5098 -418.5163 -339.6860 30041.5965 -52.1398 16.0588
ENERGY: 1200000 0.0387 1.1932 0.0000 0.0000 -10512.0037 1405.0568 0.0000 0.0000 1784.9487 -7320.7664 309.2536 -9105.7151 -7379.3769 298.8533 -26.8283 104.7323 29642.0829 -35.0223 41.5492
ENERGY: 1500000 0.1556 1.3498 0.0000 0.0000 -10587.2449 1383.7232 0.0000 0.0000 1736.5197 -7465.4967 300.8630 -9202.0164 -7382.1654 299.2333 -600.6690 -556.5273 29803.0262 -48.5456 23.3048
TCL: Running FEP window  18: Lambda1 0.1499999999999997 Lambda2 0.09999999999999969 [dLambda -0.05 ]
TCL: Setting parameter firsttimestep to 0
TCL: Setting parameter alchLambda to 0.1499999999999997
Info: NONBONDED TABLE R-SQUARED SPACING: 0.0625
Info: NONBONDED TABLE SIZE: 705 POINTS
TCL: Setting parameter alchLambda2 to 0.09999999999999969
Info: NONBONDED TABLE R-SQUARED SPACING: 0.0625
Info: NONBONDED TABLE SIZE: 705 POINTS
TCL: Running for 1500000 steps
ETITLE: TS BOND ANGLE DIHED IMPRP ELECT VDW BOUNDARY MISC KINETIC TOTAL TEMP POTENTIAL TOTALAVG TEMPAVG PRESSURE GPRESSURE VOLUME PRESSAVG GPRESSAVG
ENERGY: 0 0.1556 1.3498 0.0000 0.0000 -10587.2444 1383.7877 0.0000 0.0000 1735.6402 -7466.3112 300.7106 -9201.9513 -7466.3112 300.7106 -621.1365 -559.4832 29803.0262 -621.1365 -559.4832
ENERGY: 300000 0.1716 1.4117 0.0000 0.0000 -10381.4361 1341.2321 0.0000 0.0000 1722.0247 -7316.5959 298.3516 -9038.6206 -7356.7429 302.4916 -608.3330 -515.4669 30288.7637 -373.8488 -315.7084
ENERGY: 600000 0.5284 0.3784 0.0000 0.0000 -10550.6192 1395.6017 0.0000 0.0000 1751.5581 -7402.5526 303.4684 -9154.1107 -7382.9962 300.8949 7.7619 25.2515 29661.0742 -313.3555 -272.4867
ENERGY: 900000 1.0322 2.4567 0.0000 0.0000 -10628.5734 1454.1506 0.0000 0.0000 1766.5574 -7404.3764 306.0672 -9170.9339 -7377.1025 302.0327 40.0141 97.3653 29769.3712 -245.8465 -197.8986
ENERGY: 1200000 0.4462 1.2939 0.0000 0.0000 -10553.2646 1458.5077 0.0000 0.0000 1734.3771 -7358.6397 300.4917 -9093.0168 -7378.0475 300.8804 314.2656 393.6871 29836.5148 -165.8552 -105.8809
ENERGY: 1500000 0.1050 1.7145 0.0000 0.0000 -10486.3309 1383.3727 0.0000 0.0000 1733.6236 -7367.5152 300.3612 -9101.1388 -7380.5498 300.7195 -236.9511 -224.3937 30092.1119 -173.2694 -115.6587
TCL: Running FEP window  19: Lambda1 0.09999999999999969 Lambda2 0.049999999999999684 [dLambda -0.05 ]
TCL: Setting parameter firsttimestep to 0
TCL: Setting parameter alchLambda to 0.09999999999999969
Info: NONBONDED TABLE R-SQUARED SPACING: 0.0625
Info: NONBONDED TABLE SIZE: 705 POINTS
TCL: Setting parameter alchLambda2 to 0.049999999999999684
Info: NONBONDED TABLE R-SQUARED SPACING: 0.0625
Info: NONBONDED TABLE SIZE: 705 POINTS
TCL: Running for 1500000 steps
ETITLE: TS BOND ANGLE DIHED IMPRP ELECT VDW BOUNDARY MISC KINETIC TOTAL TEMP POTENTIAL TOTALAVG TEMPAVG PRESSURE GPRESSURE VOLUME PRESSAVG GPRESSAVG
ENERGY: 0 0.1050 1.7145 0.0000 0.0000 -10486.3311 1382.9378 0.0000 0.0000 1732.7774 -7368.7964 300.2146 -9101.5738 -7368.7964 300.2146 -300.4744 -226.0048 30092.1119 -300.4744 -226.0048
ENERGY: 300000 1.2239 2.0078 0.0000 0.0000 -10538.0083 1406.1404 0.0000 0.0000 1698.7696 -7429.8666 294.3225 -9128.6362 -7416.6546 298.5057 46.3154 4.1898 29763.2661 -157.5181 -95.9419
ENERGY: 600000 0.1102 1.7166 0.0000 0.0000 -10582.9251 1451.1671 0.0000 0.0000 1718.6192 -7411.3119 297.7616 -9129.9311 -7394.8054 298.8254 315.4934 469.9200 29503.6321 -59.5708 8.2361
ENERGY: 900000 0.1345 1.3003 0.0000 0.0000 -10466.6369 1417.1121 0.0000 0.0000 1720.9993 -7327.0908 298.1740 -9048.0901 -7403.1333 296.9593 -74.9571 77.3880 30275.7640 -21.3956 42.2460
ENERGY: 1200000 0.4266 1.3262 0.0000 0.0000 -10471.3270 1417.7665 0.0000 0.0000 1731.3049 -7320.5028 299.9595 -9051.8077 -7399.2740 297.2351 3.5371 173.7617 29989.5449 4.7318 76.2164
ENERGY: 1500000 0.5448 1.0767 0.0000 0.0000 -10414.0867 1341.2649 0.0000 0.0000 1766.5360 -7304.6644 306.0635 -9071.2003 -7391.7942 297.3505 -480.0309 -442.7038 29941.5719 -91.7761 -28.5975
TCL: Running FEP window  20: Lambda1 0.049999999999999684 Lambda2 0.0    [dLambda -0.049999999999999684]
TCL: Setting parameter firsttimestep to 0
TCL: Setting parameter alchLambda to 0.049999999999999684
Info: NONBONDED TABLE R-SQUARED SPACING: 0.0625
Info: NONBONDED TABLE SIZE: 705 POINTS
TCL: Setting parameter alchLambda2 to 0.0
Info: NONBONDED TABLE R-SQUARED SPACING: 0.0625
Info: NONBONDED TABLE SIZE: 705 POINTS
TCL: Running for 1500000 steps
ETITLE: TS BOND ANGLE DIHED IMPRP ELECT VDW BOUNDARY MISC KINETIC TOTAL TEMP POTENTIAL TOTALAVG TEMPAVG PRESSURE GPRESSURE VOLUME PRESSAVG GPRESSAVG
ENERGY: 0 0.5448 1.0767 0.0000 0.0000 -10414.0853 1341.2197 0.0000 0.0000 1765.6831 -7305.5611 305.9157 -9071.2442 -7305.5611 305.9157 -537.8687 -445.0253 29941.5719 -537.8687 -445.0253
ENERGY: 300000 0.0244 3.4190 0.0000 0.0000 -10441.8748 1370.5937 0.0000 0.0000 1712.9134 -7354.9244 296.7730 -9067.8378 -7338.6994 299.3453 -177.2811 -115.2796 29898.3974 -179.9577 -122.3846
ENERGY: 600000 0.4045 0.7056 0.0000 0.0000 -10407.1186 1366.1159 0.0000 0.0000 1748.5423 -7291.3502 302.9460 -9039.8925 -7331.6306 299.2267 -355.0141 -353.8207 30355.4508 -279.1951 -234.1931
ENERGY: 900000 0.3423 2.2900 0.0000 0.0000 -10564.8962 1458.9957 0.0000 0.0000 1747.4354 -7355.8328 302.7542 -9103.2682 -7358.6022 299.1293 376.0488 429.7155 29625.2649 -213.5924 -171.1293
ENERGY: 1200000 0.4143 1.0045 0.0000 0.0000 -10605.7597 1516.0109 0.0000 0.0000 1754.0103 -7334.3198 303.8933 -9088.3300 -7361.4300 300.1365 758.4781 840.4350 29924.9486 -52.6405 -7.7950
ENERGY: 1500000 0.3363 3.4688 0.0000 0.0000 -10509.9743 1406.5780 0.0000 0.0000 1757.4370 -7342.1541 304.4870 -9099.5911 -7360.3337 299.9907 80.6175 182.8529 29700.0809 -55.6640 -8.3317
TCL: Exiting due to exit command.
