Info: SIMULATION PARAMETERS:
Info: TIMESTEP               2
Info: NUMBER OF STEPS        0
Info: STEPS PER CYCLE        10
Info: PERIODIC CELL BASIS 1  34.986 0 0
Info: PERIODIC CELL BASIS 2  0 35.779 0
Info: PERIODIC CELL BASIS 3  0 0 35.856
Info: PERIODIC CELL CENTER   0 0 0
Info: WRAPPING WATERS AROUND PERIODIC BOUNDARIES ON OUTPUT.
Info: WRAPPING ALL CLUSTERS AROUND PERIODIC BOUNDARIES ON OUTPUT.
Info: FIRST LDB TIMESTEP     50
Info: LAST LDB TIMESTEP     -1
Info: HOM BACKGROUND SCALING 1
Info: PME BACKGROUND SCALING 1
Info: MIN ATOMS PER PATCH    40
Info: EMPTY PATCH LOAD       40 ATOMS
Info: INITIAL TEMPERATURE    300
Info: CENTER OF MASS MOVING INITIALLY? NO
Info: DIELECTRIC             1
Info: EXCLUDE                SCALED ONE-FOUR
Info: 1-4 ELECTROSTATICS SCALED BY 0.833333
Info: MODIFIED 1-4 VDW PARAMETERS WILL BE USED
Info: DCD FILENAME           mobley_2294995_equil.dcd
Info: DCD FREQUENCY          100000
Info: DCD FIRST STEP         100000
Info: DCD FILE WILL CONTAIN UNIT CELL DATA
Info: XST FILENAME           mobley_2294995_equil.xst
Info: XST FREQUENCY          100000
Info: NO VELOCITY DCD OUTPUT
Info: NO FORCE DCD OUTPUT
Info: OUTPUT FILENAME        mobley_2294995_equil
Info: BINARY OUTPUT FILES WILL BE USED
Info: RESTART FILENAME       mobley_2294995_equil.restart
Info: RESTART FREQUENCY      100000
Info: BINARY RESTART FILES WILL BE USED
Info: CUTOFF                 9
Info: PAIRLIST DISTANCE      11
Info: PAIRLIST SHRINK RATE   0.01
Info: PAIRLIST GROW RATE     0.01
Info: PAIRLIST TRIGGER       0.3
Info: PAIRLISTS PER CYCLE    2
Info: PAIRLISTS ENABLED
Info: MARGIN                 8
Info: HYDROGEN GROUP CUTOFF  2.5
Info: PATCH DIMENSION        21.5
Info: ENERGY OUTPUT STEPS    100000
Info: ENERGY EVALUATION STEPS    100000
Info: OUTPUT ENERGY PRECISION 4
Info: CROSSTERM ENERGY INCLUDED IN DIHEDRAL
Info: TIMING OUTPUT STEPS    1000000
Info: PRESSURE OUTPUT STEPS  100000
Info: LANGEVIN DYNAMICS ACTIVE
Info: LANGEVIN TEMPERATURE   30
Info: LANGEVIN USING BBK INTEGRATOR
Info: LANGEVIN DAMPING COEFFICIENT IS 1 INVERSE PS
Info: LANGEVIN DYNAMICS APPLIED TO HYDROGENS
Info: LANGEVIN PISTON PRESSURE CONTROL ACTIVE
Info:        TARGET PRESSURE IS 1.01325 BAR
Info:     OSCILLATION PERIOD IS 50 FS
Info:             DECAY TIME IS 25 FS
Info:     PISTON TEMPERATURE IS 300 K
Info:       PRESSURE CONTROL IS GROUP-BASED
Info:    INITIAL STRAIN RATE IS 0 0 0
Info:       CELL FLUCTUATION IS ISOTROPIC
Info: PARTICLE MESH EWALD (PME) ACTIVE
Info: PME TOLERANCE               1e-06
Info: PME EWALD COEFFICIENT       0.348832
Info: PME INTERPOLATION ORDER     4
Info: PME GRID DIMENSIONS         36 36 36
Info: PME MAXIMUM GRID SPACING    1
Info: FULL ELECTROSTATIC EVALUATION FREQUENCY      2
Info: USING VERLET I (r-RESPA) MTS SCHEME.
Info: C1 SPLITTING OF LONG RANGE ELECTROSTATICS
Info: PLACING ATOMS IN PATCHES BY HYDROGEN GROUPS
Info: RIGID BONDS TO HYDROGEN : ALL
Info:         ERROR TOLERANCE : 1e-08
Info:          MAX ITERATIONS : 100
Info: RIGID WATER USING SETTLE ALGORITHM
Info: RANDOM NUMBER SEED     1743238003
Info: USE HYDROGEN BONDS?    NO
Info: Using AMBER format force field!
Info: AMBER PARM FILE        mobley_2294995.prmtop
Info: COORDINATE PDB         mobley_2294995.pdb
Info: Exclusions will be read from PARM file!
Info: SCNB (VDW SCALING)     2
Info: USING ARITHMETIC MEAN TO COMBINE L-J SIGMA PARAMETERS
Info: BINARY COORDINATES     mobley_2294995_min.coor
Info: SUMMARY OF PARAMETERS:
Info: 9 BONDS
Info: 10 ANGLES
Info:   10 HARMONIC
Info:   0 COSINE-BASED
Info: 9 DIHEDRAL
Info: 0 IMPROPER
Info: 0 CROSSTERM
Info: 0 VDW
Info: 45 VDW_PAIRS
Info: 0 NBTHOLE_PAIRS
Info: STRUCTURE SUMMARY:
Info: 2999 ATOMS
Info: 2998 BONDS
Info: 16 ANGLES
Info: 20 DIHEDRALS
Info: 0 IMPROPERS
Info: 0 CROSSTERMS
Info: 3028 EXCLUSIONS
Info: 2994 RIGID BONDS
Info: 6003 DEGREES OF FREEDOM
Info: 1001 HYDROGEN GROUPS
Info: 4 ATOMS IN LARGEST HYDROGEN GROUP
Info: 1001 MIGRATION GROUPS
Info: 4 ATOMS IN LARGEST MIGRATION GROUP
Info: TOTAL MASS = 18018 amu
Info: TOTAL CHARGE = 0.000200029 e
Info: MASS DENSITY = 0.666625 g/cm^3
Info: ATOM DENSITY = 0.0668178 atoms/A^3
Info: ADDED 0 IMPLICIT EXCLUSIONS
Info: NONBONDED TABLE R-SQUARED SPACING: 0.0625
Info: NONBONDED TABLE SIZE: 705 POINTS
Info: REMOVING COM VELOCITY -0.0306504 0.0111584 0.119624
TCL: Running for 100000 steps
ETITLE: TS BOND ANGLE DIHED IMPRP ELECT VDW BOUNDARY MISC KINETIC TOTAL TEMP POTENTIAL TOTAL3 TEMPAVG PRESSURE GPRESSURE VOLUME PRESSAVG GPRESSAVG
ENERGY: 0 0.0353 0.2617 2.3891 0.0000 -13952.3583 2446.9588 0.0000 0.0000 1803.8089 -9698.9045 302.4214 -11502.7134 -9698.5709 302.4214 368.7406 400.3547 44883.2534 368.7406 400.3547
ENERGY: 100000 0.3263 0.6299 2.5040 0.0000 -14532.8810 2553.5634 0.0000 0.0000 179.2816 -11796.5758 30.0578 -11975.8574 -11795.9311 30.9118 112.3442 168.3962 29236.2258 4.1264 4.1712
TCL: Running 100000 steps at 60 kelvin.
TCL: Setting parameter langevinTemp to 60
TCL: Running for 100000 steps
ETITLE: TS BOND ANGLE DIHED IMPRP ELECT VDW BOUNDARY MISC KINETIC TOTAL TEMP POTENTIAL TOTAL3 TEMPAVG PRESSURE GPRESSURE VOLUME PRESSAVG GPRESSAVG
ENERGY: 100000 0.3263 0.6299 2.5040 0.0000 -14532.8810 2553.5634 0.0000 0.0000 179.1978 -11796.6596 30.0438 -11975.8574 -11796.2748 30.0438 109.7349 168.5041 29236.2258 109.7349 168.5041
ENERGY: 200000 0.1822 1.0472 2.4711 0.0000 -14327.4703 2423.1389 0.0000 0.0000 350.0005 -11550.6303 58.6801 -11900.6309 -11549.6234 59.8681 -497.0560 -461.1054 28996.1209 2.6215 2.6316
TCL: Running 100000 steps at 90 kelvin.
TCL: Setting parameter langevinTemp to 90
TCL: Running for 100000 steps
ETITLE: TS BOND ANGLE DIHED IMPRP ELECT VDW BOUNDARY MISC KINETIC TOTAL TEMP POTENTIAL TOTAL3 TEMPAVG PRESSURE GPRESSURE VOLUME PRESSAVG GPRESSAVG
ENERGY: 200000 0.1822 1.0472 2.4711 0.0000 -14327.4703 2423.1389 0.0000 0.0000 349.8211 -11550.8097 58.6500 -11900.6309 -11549.8938 58.6500 -508.8562 -461.3225 28996.1209 -508.8562 -461.3225
ENERGY: 300000 0.4385 1.8698 2.6141 0.0000 -14221.6411 2432.5942 0.0000 0.0000 532.0488 -11252.0757 89.2018 -11784.1245 -11250.5675 89.8188 121.4322 204.3652 29021.1271 4.2610 4.2019
TCL: Running 100000 steps at 120 kelvin.
TCL: Setting parameter langevinTemp to 120
TCL: Running for 100000 steps
ETITLE: TS BOND ANGLE DIHED IMPRP ELECT VDW BOUNDARY MISC KINETIC TOTAL TEMP POTENTIAL TOTAL3 TEMPAVG PRESSURE GPRESSURE VOLUME PRESSAVG GPRESSAVG
ENERGY: 300000 0.4385 1.8698 2.6141 0.0000 -14221.6411 2432.5942 0.0000 0.0000 531.7798 -11252.3448 89.1567 -11784.1245 -11251.2151 89.1567 150.6296 204.6389 29021.1271 150.6296 204.6389
ENERGY: 400000 0.1111 1.6490 2.8310 0.0000 -14029.2803 2338.2599 0.0000 0.0000 718.7307 -10967.6987 120.5003 -11686.4294 -10964.3830 120.0212 -489.4963 -442.0759 29520.4981 2.9484 2.9728
TCL: Running 100000 steps at 150 kelvin.
TCL: Setting parameter langevinTemp to 150
TCL: Running for 100000 steps
ETITLE: TS BOND ANGLE DIHED IMPRP ELECT VDW BOUNDARY MISC KINETIC TOTAL TEMP POTENTIAL TOTAL3 TEMPAVG PRESSURE GPRESSURE VOLUME PRESSAVG GPRESSAVG
ENERGY: 400000 0.1111 1.6490 2.8310 0.0000 -14029.2803 2338.2599 0.0000 0.0000 718.3862 -10968.0432 120.4426 -11686.4294 -10966.2960 120.4426 -498.4714 -440.9016 29520.4981 -498.4714 -440.9016
ENERGY: 500000 0.2736 2.4970 2.4516 0.0000 -13669.6490 2205.9654 0.0000 0.0000 884.6236 -10573.8378 148.3135 -11458.4614 -10571.3191 149.6849 -704.8324 -668.7930 29472.5112 4.0670 3.9274
TCL: Running 100000 steps at 180 kelvin.
TCL: Setting parameter langevinTemp to 180
TCL: Running for 100000 steps
ETITLE: TS BOND ANGLE DIHED IMPRP ELECT VDW BOUNDARY MISC KINETIC TOTAL TEMP POTENTIAL TOTAL3 TEMPAVG PRESSURE GPRESSURE VOLUME PRESSAVG GPRESSAVG
ENERGY: 500000 0.2736 2.4970 2.4516 0.0000 -13669.6490 2205.9654 0.0000 0.0000 884.1845 -10574.2770 148.2398 -11458.4614 -10572.4464 148.2398 -735.4831 -668.5660 29472.5112 -735.4831 -668.5660
ENERGY: 600000 0.2816 6.1166 2.3280 0.0000 -13426.4296 2230.1560 0.0000 0.0000 1080.2517 -10107.2957 181.1119 -11187.5474 -10103.9337 179.8866 621.9396 726.7354 29186.1200 3.5281 3.2629
TCL: Running 100000 steps at 210 kelvin.
TCL: Setting parameter langevinTemp to 210
TCL: Running for 100000 steps
ETITLE: TS BOND ANGLE DIHED IMPRP ELECT VDW BOUNDARY MISC KINETIC TOTAL TEMP POTENTIAL TOTAL3 TEMPAVG PRESSURE GPRESSURE VOLUME PRESSAVG GPRESSAVG
ENERGY: 600000 0.2816 6.1166 2.3280 0.0000 -13426.4296 2230.1560 0.0000 0.0000 1079.7472 -10107.8002 181.0273 -11187.5474 -10106.0215 181.0273 667.0897 728.2206 29186.1200 667.0897 728.2206
ENERGY: 700000 2.0263 5.2675 1.9376 0.0000 -12657.8153 1935.2985 0.0000 0.0000 1259.6839 -9453.6014 211.1950 -10713.2853 -9450.6744 210.0135 -49.3183 9.5297 29136.4615 3.5707 3.4546
TCL: Running 100000 steps at 240 kelvin.
TCL: Setting parameter langevinTemp to 240
TCL: Running for 100000 steps
ETITLE: TS BOND ANGLE DIHED IMPRP ELECT VDW BOUNDARY MISC KINETIC TOTAL TEMP POTENTIAL TOTAL3 TEMPAVG PRESSURE GPRESSURE VOLUME PRESSAVG GPRESSAVG
ENERGY: 700000 2.0263 5.2675 1.9376 0.0000 -12657.8153 1935.2985 0.0000 0.0000 1259.0786 -9454.2068 211.0935 -10713.2853 -9451.9407 211.0935 -76.0555 8.7114 29136.4615 -76.0555 8.7114
ENERGY: 800000 1.7203 2.6627 4.2270 0.0000 -12009.9860 1757.3956 0.0000 0.0000 1471.9101 -8772.0704 246.7762 -10243.9805 -8767.4357 239.9665 45.9214 135.1317 29621.3412 3.4321 3.4733
TCL: Running 100000 steps at 270 kelvin.
TCL: Setting parameter langevinTemp to 270
TCL: Running for 100000 steps
ETITLE: TS BOND ANGLE DIHED IMPRP ELECT VDW BOUNDARY MISC KINETIC TOTAL TEMP POTENTIAL TOTAL3 TEMPAVG PRESSURE GPRESSURE VOLUME PRESSAVG GPRESSAVG
ENERGY: 800000 1.7203 2.6627 4.2270 0.0000 -12009.9860 1757.3956 0.0000 0.0000 1471.1962 -8772.7843 246.6565 -10243.9805 -8770.4567 246.6565 44.9237 138.6466 29621.3412 44.9237 138.6466
ENERGY: 900000 0.7198 4.5792 2.8854 0.0000 -11534.6123 1642.7319 0.0000 0.0000 1600.6317 -8283.0643 268.3573 -9883.6960 -8279.8072 270.1943 376.2132 492.2647 29790.9897 3.7175 3.5066
TCL: Running 1000000 steps at 300 kelvin.
TCL: Setting parameter langevinTemp to 300
TCL: Running for 1000000 steps
ETITLE: TS BOND ANGLE DIHED IMPRP ELECT VDW BOUNDARY MISC KINETIC TOTAL TEMP POTENTIAL TOTAL3 TEMPAVG PRESSURE GPRESSURE VOLUME PRESSAVG GPRESSAVG
ENERGY: 900000 0.7198 4.5792 2.8854 0.0000 -11534.6123 1642.7319 0.0000 0.0000 1599.8219 -8283.8741 268.2216 -9883.6960 -8281.7202 268.2216 422.5899 492.3969 29790.9897 422.5899 492.3969
ENERGY: 1100000 0.2684 5.1293 3.8171 0.0000 -10865.8847 1440.2952 0.0000 0.0000 1817.8724 -7598.5023 304.7793 -9416.3747 -7591.2903 300.4034 -194.7570 -152.7708 31031.6468 4.2587 4.1660
ENERGY: 1300000 2.2256 4.3513 3.1424 0.0000 -10955.1915 1467.8199 0.0000 0.0000 1789.5736 -7688.0786 300.0348 -9477.6522 -7686.2376 299.6787 -154.4301 -61.5027 30925.5868 3.1316 3.3952
ENERGY: 1500000 1.2699 2.9597 4.0429 0.0000 -10844.7328 1462.3767 0.0000 0.0000 1790.7694 -7583.3142 300.2353 -9374.0837 -7578.1489 300.1836 -58.3506 23.6179 31152.3389 4.8056 4.6644
ENERGY: 1700000 1.3300 3.6594 2.7337 0.0000 -10889.5103 1458.7041 0.0000 0.0000 1761.3497 -7661.7333 295.3029 -9423.0831 -7657.2937 300.5360 1.9621 92.5827 30912.7426 4.0964 4.0307
ENERGY: 1900000 1.2150 3.5809 2.2054 0.0000 -10895.2488 1524.6982 0.0000 0.0000 1753.7777 -7609.7715 294.0333 -9363.5492 -7606.7244 300.7829 516.3034 625.4698 30982.8078 2.6743 2.5384
TCL: Exiting due to exit command.
