Info: SIMULATION PARAMETERS:
Info: TIMESTEP               2
Info: NUMBER OF STEPS        0
Info: STEPS PER CYCLE        10
Info: PERIODIC CELL BASIS 1  34.986 0 0
Info: PERIODIC CELL BASIS 2  0 33.399 0
Info: PERIODIC CELL BASIS 3  0 0 36.697
Info: PERIODIC CELL CENTER   0 0 0
Info: WRAPPING WATERS AROUND PERIODIC BOUNDARIES ON OUTPUT.
Info: WRAPPING ALL CLUSTERS AROUND PERIODIC BOUNDARIES ON OUTPUT.
Info: FIRST LDB TIMESTEP     50
Info: LAST LDB TIMESTEP     -1
Info: HOM BACKGROUND SCALING 1
Info: PME BACKGROUND SCALING 1
Info: MIN ATOMS PER PATCH    40
Info: EMPTY PATCH LOAD       40 ATOMS
Info: INITIAL TEMPERATURE    300
Info: CENTER OF MASS MOVING INITIALLY? NO
Info: DIELECTRIC             1
Info: EXCLUDE                SCALED ONE-FOUR
Info: 1-4 ELECTROSTATICS SCALED BY 0.833333
Info: MODIFIED 1-4 VDW PARAMETERS WILL BE USED
Info: DCD FILENAME           mobley_3183805_equil.dcd
Info: DCD FREQUENCY          100000
Info: DCD FIRST STEP         100000
Info: DCD FILE WILL CONTAIN UNIT CELL DATA
Info: XST FILENAME           mobley_3183805_equil.xst
Info: XST FREQUENCY          100000
Info: NO VELOCITY DCD OUTPUT
Info: NO FORCE DCD OUTPUT
Info: OUTPUT FILENAME        mobley_3183805_equil
Info: BINARY OUTPUT FILES WILL BE USED
Info: RESTART FILENAME       mobley_3183805_equil.restart
Info: RESTART FREQUENCY      100000
Info: BINARY RESTART FILES WILL BE USED
Info: CUTOFF                 9
Info: PAIRLIST DISTANCE      11
Info: PAIRLIST SHRINK RATE   0.01
Info: PAIRLIST GROW RATE     0.01
Info: PAIRLIST TRIGGER       0.3
Info: PAIRLISTS PER CYCLE    2
Info: PAIRLISTS ENABLED
Info: MARGIN                 8
Info: HYDROGEN GROUP CUTOFF  2.5
Info: PATCH DIMENSION        21.5
Info: ENERGY OUTPUT STEPS    100000
Info: ENERGY EVALUATION STEPS    100000
Info: OUTPUT ENERGY PRECISION 4
Info: CROSSTERM ENERGY INCLUDED IN DIHEDRAL
Info: TIMING OUTPUT STEPS    1000000
Info: PRESSURE OUTPUT STEPS  100000
Info: LANGEVIN DYNAMICS ACTIVE
Info: LANGEVIN TEMPERATURE   30
Info: LANGEVIN USING BBK INTEGRATOR
Info: LANGEVIN DAMPING COEFFICIENT IS 1 INVERSE PS
Info: LANGEVIN DYNAMICS APPLIED TO HYDROGENS
Info: LANGEVIN PISTON PRESSURE CONTROL ACTIVE
Info:        TARGET PRESSURE IS 1.01325 BAR
Info:     OSCILLATION PERIOD IS 50 FS
Info:             DECAY TIME IS 25 FS
Info:     PISTON TEMPERATURE IS 300 K
Info:       PRESSURE CONTROL IS GROUP-BASED
Info:    INITIAL STRAIN RATE IS 0 0 0
Info:       CELL FLUCTUATION IS ISOTROPIC
Info: PARTICLE MESH EWALD (PME) ACTIVE
Info: PME TOLERANCE               1e-06
Info: PME EWALD COEFFICIENT       0.348832
Info: PME INTERPOLATION ORDER     4
Info: PME GRID DIMENSIONS         36 36 40
Info: PME MAXIMUM GRID SPACING    1
Info: FULL ELECTROSTATIC EVALUATION FREQUENCY      2
Info: USING VERLET I (r-RESPA) MTS SCHEME.
Info: C1 SPLITTING OF LONG RANGE ELECTROSTATICS
Info: PLACING ATOMS IN PATCHES BY HYDROGEN GROUPS
Info: RIGID BONDS TO HYDROGEN : ALL
Info:         ERROR TOLERANCE : 1e-08
Info:          MAX ITERATIONS : 100
Info: RIGID WATER USING SETTLE ALGORITHM
Info: RANDOM NUMBER SEED     1743218835
Info: USE HYDROGEN BONDS?    NO
Info: Using AMBER format force field!
Info: AMBER PARM FILE        mobley_3183805.prmtop
Info: COORDINATE PDB         mobley_3183805.pdb
Info: Exclusions will be read from PARM file!
Info: SCNB (VDW SCALING)     2
Info: USING ARITHMETIC MEAN TO COMBINE L-J SIGMA PARAMETERS
Info: BINARY COORDINATES     mobley_3183805_min.coor
Info: SUMMARY OF PARAMETERS:
Info: 6 BONDS
Info: 5 ANGLES
Info:   5 HARMONIC
Info:   0 COSINE-BASED
Info: 3 DIHEDRAL
Info: 0 IMPROPER
Info: 0 CROSSTERM
Info: 0 VDW
Info: 21 VDW_PAIRS
Info: 0 NBTHOLE_PAIRS
Info: STRUCTURE SUMMARY:
Info: 2913 ATOMS
Info: 2913 BONDS
Info: 36 ANGLES
Info: 48 DIHEDRALS
Info: 0 IMPROPERS
Info: 0 CROSSTERMS
Info: 2988 EXCLUSIONS
Info: 2904 RIGID BONDS
Info: 5835 DEGREES OF FREEDOM
Info: 973 HYDROGEN GROUPS
Info: 4 ATOMS IN LARGEST HYDROGEN GROUP
Info: 973 MIGRATION GROUPS
Info: 4 ATOMS IN LARGEST MIGRATION GROUP
Info: TOTAL MASS = 17487.6 amu
Info: TOTAL CHARGE = 0.000399988 e
Info: MASS DENSITY = 0.677223 g/cm^3
Info: ATOM DENSITY = 0.0679332 atoms/A^3
Info: ADDED 0 IMPLICIT EXCLUSIONS
Info: NONBONDED TABLE R-SQUARED SPACING: 0.0625
Info: NONBONDED TABLE SIZE: 705 POINTS
Info: REMOVING COM VELOCITY 0.0661774 -0.0712261 0.0791538
TCL: Running for 100000 steps
ETITLE: TS BOND ANGLE DIHED IMPRP ELECT VDW BOUNDARY MISC KINETIC TOTAL TEMP POTENTIAL TOTAL3 TEMPAVG PRESSURE GPRESSURE VOLUME PRESSAVG GPRESSAVG
ENERGY: 0 0.2534 0.2434 0.0161 0.0000 -13468.5536 2380.5735 0.0000 0.0000 1737.2023 -9350.2648 299.6401 -11087.4672 -9349.9176 299.6401 611.2881 645.9840 42880.3496 611.2881 645.9840
ENERGY: 100000 1.4370 0.9345 0.1165 0.0000 -14049.4259 2443.9492 0.0000 0.0000 175.4965 -11427.4922 30.2704 -11602.9887 -11427.1652 30.9325 220.5803 267.6209 27771.3801 2.7220 2.6902
TCL: Running 100000 steps at 60 kelvin.
TCL: Setting parameter langevinTemp to 60
TCL: Running for 100000 steps
ETITLE: TS BOND ANGLE DIHED IMPRP ELECT VDW BOUNDARY MISC KINETIC TOTAL TEMP POTENTIAL TOTAL3 TEMPAVG PRESSURE GPRESSURE VOLUME PRESSAVG GPRESSAVG
ENERGY: 100000 1.4370 0.9345 0.1165 0.0000 -14049.4259 2443.9492 0.0000 0.0000 175.4115 -11427.5772 30.2557 -11602.9887 -11427.2293 30.2557 214.3045 267.7060 27771.3801 214.3045 267.7060
ENERGY: 200000 0.9835 1.5576 0.6492 0.0000 -13880.0434 2381.3259 0.0000 0.0000 354.9193 -11140.6080 61.2180 -11495.5273 -11139.4601 59.9431 106.0051 143.6701 28059.4445 2.8229 2.8195
TCL: Running 100000 steps at 90 kelvin.
TCL: Setting parameter langevinTemp to 90
TCL: Running for 100000 steps
ETITLE: TS BOND ANGLE DIHED IMPRP ELECT VDW BOUNDARY MISC KINETIC TOTAL TEMP POTENTIAL TOTAL3 TEMPAVG PRESSURE GPRESSURE VOLUME PRESSAVG GPRESSAVG
ENERGY: 200000 0.9835 1.5576 0.6492 0.0000 -13880.0434 2381.3259 0.0000 0.0000 354.7456 -11140.7817 61.1880 -11495.5273 -11140.1105 61.1880 104.3366 143.5718 28059.4445 104.3366 143.5718
ENERGY: 300000 1.6427 2.5728 0.4693 0.0000 -13698.5723 2278.6633 0.0000 0.0000 529.0994 -10886.1249 91.2613 -11415.2242 -10884.2808 90.0515 -478.6794 -409.6324 27879.7988 4.0965 4.1613
TCL: Running 100000 steps at 120 kelvin.
TCL: Setting parameter langevinTemp to 120
TCL: Running for 100000 steps
ETITLE: TS BOND ANGLE DIHED IMPRP ELECT VDW BOUNDARY MISC KINETIC TOTAL TEMP POTENTIAL TOTAL3 TEMPAVG PRESSURE GPRESSURE VOLUME PRESSAVG GPRESSAVG
ENERGY: 300000 1.6427 2.5728 0.4693 0.0000 -13698.5723 2278.6633 0.0000 0.0000 528.8420 -10886.3822 91.2169 -11415.2242 -10885.5359 91.2169 -456.3256 -408.9800 27879.7988 -456.3256 -408.9800
ENERGY: 400000 2.3109 4.5590 1.2120 0.0000 -13654.5348 2365.1745 0.0000 0.0000 693.0214 -10588.2570 119.5353 -11281.2784 -10586.1940 119.8266 518.4045 579.3370 28136.1508 3.3301 3.2604
TCL: Running 100000 steps at 150 kelvin.
TCL: Setting parameter langevinTemp to 150
TCL: Running for 100000 steps
ETITLE: TS BOND ANGLE DIHED IMPRP ELECT VDW BOUNDARY MISC KINETIC TOTAL TEMP POTENTIAL TOTAL3 TEMPAVG PRESSURE GPRESSURE VOLUME PRESSAVG GPRESSAVG
ENERGY: 400000 2.3109 4.5590 1.2120 0.0000 -13654.5348 2365.1745 0.0000 0.0000 692.6682 -10588.6103 119.4744 -11281.2784 -10586.8586 119.4744 528.6368 580.0197 28136.1508 528.6368 580.0197
ENERGY: 500000 1.1153 2.9793 1.5477 0.0000 -13391.5119 2260.9677 0.0000 0.0000 842.9945 -10281.9073 145.4033 -11124.9018 -10280.1054 149.8995 528.3290 578.1155 28124.7503 3.6123 3.7980
TCL: Running 100000 steps at 180 kelvin.
TCL: Setting parameter langevinTemp to 180
TCL: Running for 100000 steps
ETITLE: TS BOND ANGLE DIHED IMPRP ELECT VDW BOUNDARY MISC KINETIC TOTAL TEMP POTENTIAL TOTAL3 TEMPAVG PRESSURE GPRESSURE VOLUME PRESSAVG GPRESSAVG
ENERGY: 500000 1.1153 2.9793 1.5477 0.0000 -13391.5119 2260.9677 0.0000 0.0000 842.5659 -10282.3360 145.3294 -11124.9018 -10280.7917 145.3294 526.3418 576.4923 28124.7503 526.3418 576.4923
ENERGY: 600000 2.0865 6.4789 1.8440 0.0000 -12914.7076 2049.8992 0.0000 0.0000 1072.5344 -9781.8645 184.9953 -10854.3990 -9778.2584 179.8831 -318.3443 -254.1791 28432.2455 4.0779 3.9196
TCL: Running 100000 steps at 210 kelvin.
TCL: Setting parameter langevinTemp to 210
TCL: Running for 100000 steps
ETITLE: TS BOND ANGLE DIHED IMPRP ELECT VDW BOUNDARY MISC KINETIC TOTAL TEMP POTENTIAL TOTAL3 TEMPAVG PRESSURE GPRESSURE VOLUME PRESSAVG GPRESSAVG
ENERGY: 600000 2.0865 6.4789 1.8440 0.0000 -12914.7076 2049.8992 0.0000 0.0000 1072.0173 -9782.3817 184.9061 -10854.3990 -9780.2738 184.9061 -316.0110 -253.8679 28432.2455 -316.0110 -253.8679
ENERGY: 700000 2.4258 6.5371 1.4550 0.0000 -12151.5030 1828.5749 0.0000 0.0000 1260.6218 -9051.8884 217.4374 -10312.5102 -9047.5052 209.8260 -117.7199 -63.2288 28413.2020 4.4238 4.2370
TCL: Running 100000 steps at 240 kelvin.
TCL: Setting parameter langevinTemp to 240
TCL: Running for 100000 steps
ETITLE: TS BOND ANGLE DIHED IMPRP ELECT VDW BOUNDARY MISC KINETIC TOTAL TEMP POTENTIAL TOTAL3 TEMPAVG PRESSURE GPRESSURE VOLUME PRESSAVG GPRESSAVG
ENERGY: 700000 2.4258 6.5371 1.4550 0.0000 -12151.5030 1828.5749 0.0000 0.0000 1260.0058 -9052.5045 217.3312 -10312.5102 -9050.0637 217.3312 -122.7602 -61.9942 28413.2020 -122.7602 -61.9942
ENERGY: 800000 0.8223 6.6447 2.5741 0.0000 -11665.0348 1755.7308 0.0000 0.0000 1399.8996 -8499.3633 241.4607 -9899.2629 -8496.5345 240.0985 857.2922 936.8596 28436.9430 3.4049 3.3180
TCL: Running 100000 steps at 270 kelvin.
TCL: Setting parameter langevinTemp to 270
TCL: Running for 100000 steps
ETITLE: TS BOND ANGLE DIHED IMPRP ELECT VDW BOUNDARY MISC KINETIC TOTAL TEMP POTENTIAL TOTAL3 TEMPAVG PRESSURE GPRESSURE VOLUME PRESSAVG GPRESSAVG
ENERGY: 800000 0.8223 6.6447 2.5741 0.0000 -11665.0348 1755.7308 0.0000 0.0000 1399.2299 -8500.0330 241.3452 -9899.2629 -8497.7036 241.3452 837.2142 937.7530 28436.9430 837.2142 937.7530
ENERGY: 900000 1.3535 5.7514 1.0833 0.0000 -10877.4611 1425.2041 0.0000 0.0000 1545.1456 -7898.9231 266.5133 -9444.0687 -7896.7201 269.7243 -658.2348 -614.5599 29094.5844 3.6487 3.5697
TCL: Running 1000000 steps at 300 kelvin.
TCL: Setting parameter langevinTemp to 300
TCL: Running for 1000000 steps
ETITLE: TS BOND ANGLE DIHED IMPRP ELECT VDW BOUNDARY MISC KINETIC TOTAL TEMP POTENTIAL TOTAL3 TEMPAVG PRESSURE GPRESSURE VOLUME PRESSAVG GPRESSAVG
ENERGY: 900000 1.3535 5.7514 1.0833 0.0000 -10877.4611 1425.2041 0.0000 0.0000 1544.3614 -7899.7074 266.3781 -9444.0687 -7896.7844 266.3781 -701.6623 -616.0754 29094.5844 -701.6623 -616.0754
ENERGY: 1100000 1.1353 5.9032 2.5854 0.0000 -10386.8437 1311.3006 0.0000 0.0000 1716.9581 -7348.9610 296.1483 -9065.9191 -7344.5528 300.6184 -849.2519 -764.0365 30615.1194 2.1157 2.1249
ENERGY: 1300000 4.6922 11.7747 4.9019 0.0000 -10660.8802 1413.3503 0.0000 0.0000 1759.0432 -7467.1179 303.4073 -9226.1611 -7461.5769 300.3715 -770.0219 -678.5500 30329.6786 4.2464 3.9969
ENERGY: 1500000 3.3533 10.1465 1.4788 0.0000 -10604.8061 1441.0399 0.0000 0.0000 1733.0927 -7415.6950 298.9313 -9148.7877 -7411.3891 300.2252 -54.3901 21.1982 30187.4413 3.1173 3.1820
ENERGY: 1700000 3.6560 12.2329 2.1866 0.0000 -10478.4467 1332.7574 0.0000 0.0000 1695.7052 -7431.9085 292.4825 -9127.6137 -7428.1912 300.2719 -679.7501 -616.3259 29841.0237 3.2908 3.4177
ENERGY: 1900000 1.5368 5.9412 1.7647 0.0000 -10707.0930 1499.9848 0.0000 0.0000 1736.2592 -7461.6063 299.4774 -9197.8655 -7457.3888 299.6678 466.3665 544.9167 29809.4572 2.2713 2.0474
TCL: Exiting due to exit command.
