Info: SIMULATION PARAMETERS:
Info: TIMESTEP               2
Info: NUMBER OF STEPS        0
Info: STEPS PER CYCLE        10
Info: PERIODIC CELL BASIS 1  34.207 0 0
Info: PERIODIC CELL BASIS 2  0 35.267 0
Info: PERIODIC CELL BASIS 3  0 0 36.199
Info: PERIODIC CELL CENTER   0 0 0
Info: WRAPPING WATERS AROUND PERIODIC BOUNDARIES ON OUTPUT.
Info: WRAPPING ALL CLUSTERS AROUND PERIODIC BOUNDARIES ON OUTPUT.
Info: FIRST LDB TIMESTEP     50
Info: LAST LDB TIMESTEP     -1
Info: HOM BACKGROUND SCALING 1
Info: PME BACKGROUND SCALING 1
Info: MIN ATOMS PER PATCH    40
Info: EMPTY PATCH LOAD       40 ATOMS
Info: INITIAL TEMPERATURE    300
Info: CENTER OF MASS MOVING INITIALLY? NO
Info: DIELECTRIC             1
Info: EXCLUDE                SCALED ONE-FOUR
Info: 1-4 ELECTROSTATICS SCALED BY 0.833333
Info: MODIFIED 1-4 VDW PARAMETERS WILL BE USED
Info: DCD FILENAME           mobley_337666_equil.dcd
Info: DCD FREQUENCY          100000
Info: DCD FIRST STEP         100000
Info: DCD FILE WILL CONTAIN UNIT CELL DATA
Info: XST FILENAME           mobley_337666_equil.xst
Info: XST FREQUENCY          100000
Info: NO VELOCITY DCD OUTPUT
Info: NO FORCE DCD OUTPUT
Info: OUTPUT FILENAME        mobley_337666_equil
Info: BINARY OUTPUT FILES WILL BE USED
Info: RESTART FILENAME       mobley_337666_equil.restart
Info: RESTART FREQUENCY      100000
Info: BINARY RESTART FILES WILL BE USED
Info: CUTOFF                 9
Info: PAIRLIST DISTANCE      11
Info: PAIRLIST SHRINK RATE   0.01
Info: PAIRLIST GROW RATE     0.01
Info: PAIRLIST TRIGGER       0.3
Info: PAIRLISTS PER CYCLE    2
Info: PAIRLISTS ENABLED
Info: MARGIN                 8
Info: HYDROGEN GROUP CUTOFF  2.5
Info: PATCH DIMENSION        21.5
Info: ENERGY OUTPUT STEPS    100000
Info: ENERGY EVALUATION STEPS    100000
Info: OUTPUT ENERGY PRECISION 4
Info: CROSSTERM ENERGY INCLUDED IN DIHEDRAL
Info: TIMING OUTPUT STEPS    1000000
Info: PRESSURE OUTPUT STEPS  100000
Info: LANGEVIN DYNAMICS ACTIVE
Info: LANGEVIN TEMPERATURE   30
Info: LANGEVIN USING BBK INTEGRATOR
Info: LANGEVIN DAMPING COEFFICIENT IS 1 INVERSE PS
Info: LANGEVIN DYNAMICS APPLIED TO HYDROGENS
Info: LANGEVIN PISTON PRESSURE CONTROL ACTIVE
Info:        TARGET PRESSURE IS 1.01325 BAR
Info:     OSCILLATION PERIOD IS 50 FS
Info:             DECAY TIME IS 25 FS
Info:     PISTON TEMPERATURE IS 300 K
Info:       PRESSURE CONTROL IS GROUP-BASED
Info:    INITIAL STRAIN RATE IS 0 0 0
Info:       CELL FLUCTUATION IS ISOTROPIC
Info: PARTICLE MESH EWALD (PME) ACTIVE
Info: PME TOLERANCE               1e-06
Info: PME EWALD COEFFICIENT       0.348832
Info: PME INTERPOLATION ORDER     4
Info: PME GRID DIMENSIONS         36 36 40
Info: PME MAXIMUM GRID SPACING    1
Info: FULL ELECTROSTATIC EVALUATION FREQUENCY      2
Info: USING VERLET I (r-RESPA) MTS SCHEME.
Info: C1 SPLITTING OF LONG RANGE ELECTROSTATICS
Info: PLACING ATOMS IN PATCHES BY HYDROGEN GROUPS
Info: RIGID BONDS TO HYDROGEN : ALL
Info:         ERROR TOLERANCE : 1e-08
Info:          MAX ITERATIONS : 100
Info: RIGID WATER USING SETTLE ALGORITHM
Info: RANDOM NUMBER SEED     1743162527
Info: USE HYDROGEN BONDS?    NO
Info: Using AMBER format force field!
Info: AMBER PARM FILE        mobley_337666.prmtop
Info: COORDINATE PDB         mobley_337666.pdb
Info: Exclusions will be read from PARM file!
Info: SCNB (VDW SCALING)     2
Info: USING ARITHMETIC MEAN TO COMBINE L-J SIGMA PARAMETERS
Info: BINARY COORDINATES     mobley_337666_min.coor
Info: SUMMARY OF PARAMETERS:
Info: 10 BONDS
Info: 14 ANGLES
Info:   14 HARMONIC
Info:   0 COSINE-BASED
Info: 7 DIHEDRAL
Info: 0 IMPROPER
Info: 0 CROSSTERM
Info: 0 VDW
Info: 36 VDW_PAIRS
Info: 0 NBTHOLE_PAIRS
Info: STRUCTURE SUMMARY:
Info: 2952 ATOMS
Info: 2952 BONDS
Info: 18 ANGLES
Info: 33 DIHEDRALS
Info: 0 IMPROPERS
Info: 0 CROSSTERMS
Info: 2991 EXCLUSIONS
Info: 2943 RIGID BONDS
Info: 5913 DEGREES OF FREEDOM
Info: 989 HYDROGEN GROUPS
Info: 3 ATOMS IN LARGEST HYDROGEN GROUP
Info: 989 MIGRATION GROUPS
Info: 3 ATOMS IN LARGEST MIGRATION GROUP
Info: TOTAL MASS = 17785.8 amu
Info: TOTAL CHARGE = -0.000200007 e
Info: MASS DENSITY = 0.676319 g/cm^3
Info: ATOM DENSITY = 0.0675984 atoms/A^3
Info: ADDED 0 IMPLICIT EXCLUSIONS
Info: NONBONDED TABLE R-SQUARED SPACING: 0.0625
Info: NONBONDED TABLE SIZE: 705 POINTS
Info: REMOVING COM VELOCITY 0.082657 0.0464764 0.119436
TCL: Running for 100000 steps
ETITLE: TS BOND ANGLE DIHED IMPRP ELECT VDW BOUNDARY MISC KINETIC TOTAL TEMP POTENTIAL TOTAL3 TEMPAVG PRESSURE GPRESSURE VOLUME PRESSAVG GPRESSAVG
ENERGY: 0 0.4654 1.0357 12.1153 0.0000 -13790.1571 2406.5805 0.0000 0.0000 1704.5682 -9665.3919 290.1328 -11369.9602 -9665.0765 290.1328 494.2434 528.1300 43669.6870 494.2434 528.1300
ENERGY: 100000 0.6947 1.8728 12.4432 0.0000 -14369.9355 2480.8484 0.0000 0.0000 173.2435 -11700.8330 29.4876 -11874.0765 -11700.4487 30.8414 -68.4430 1.9825 29182.1923 2.3281 2.3357
TCL: Running 100000 steps at 60 kelvin.
TCL: Setting parameter langevinTemp to 60
TCL: Running for 100000 steps
ETITLE: TS BOND ANGLE DIHED IMPRP ELECT VDW BOUNDARY MISC KINETIC TOTAL TEMP POTENTIAL TOTAL3 TEMPAVG PRESSURE GPRESSURE VOLUME PRESSAVG GPRESSAVG
ENERGY: 100000 0.6947 1.8728 12.4432 0.0000 -14369.9355 2480.8484 0.0000 0.0000 173.1557 -11700.9207 29.4727 -11874.0765 -11700.4892 29.4727 -63.9295 1.8686 29182.1923 -63.9295 1.8686
ENERGY: 200000 1.2712 1.1332 12.9157 0.0000 -14255.6721 2407.6774 0.0000 0.0000 352.1663 -11480.5083 59.9419 -11832.6746 -11479.5061 60.0731 -52.9408 -22.5600 28561.4565 4.3207 4.3619
TCL: Running 100000 steps at 90 kelvin.
TCL: Setting parameter langevinTemp to 90
TCL: Running for 100000 steps
ETITLE: TS BOND ANGLE DIHED IMPRP ELECT VDW BOUNDARY MISC KINETIC TOTAL TEMP POTENTIAL TOTAL3 TEMPAVG PRESSURE GPRESSURE VOLUME PRESSAVG GPRESSAVG
ENERGY: 200000 1.2712 1.1332 12.9157 0.0000 -14255.6721 2407.6774 0.0000 0.0000 351.9857 -11480.6889 59.9111 -11832.6746 -11480.0193 59.9111 -75.1732 -22.4613 28561.4565 -75.1732 -22.4613
ENERGY: 300000 1.8509 2.2345 13.2902 0.0000 -14058.7461 2319.0701 0.0000 0.0000 533.2092 -11189.0912 90.7570 -11722.3004 -11187.9471 90.0157 -598.7535 -571.2568 28732.3381 3.4413 3.5903
TCL: Running 100000 steps at 120 kelvin.
TCL: Setting parameter langevinTemp to 120
TCL: Running for 100000 steps
ETITLE: TS BOND ANGLE DIHED IMPRP ELECT VDW BOUNDARY MISC KINETIC TOTAL TEMP POTENTIAL TOTAL3 TEMPAVG PRESSURE GPRESSURE VOLUME PRESSAVG GPRESSAVG
ENERGY: 300000 1.8509 2.2345 13.2902 0.0000 -14058.7461 2319.0701 0.0000 0.0000 532.9489 -11189.3515 90.7127 -11722.3004 -11188.2473 90.7127 -593.0796 -571.8089 28732.3381 -593.0796 -571.8089
ENERGY: 400000 3.4671 2.0061 13.9811 0.0000 -13792.2429 2202.1303 0.0000 0.0000 695.7858 -10874.8726 118.4290 -11570.6584 -10873.3472 119.7162 -1188.3618 -1162.9973 29076.6819 4.6544 4.5888
TCL: Running 100000 steps at 150 kelvin.
TCL: Setting parameter langevinTemp to 150
TCL: Running for 100000 steps
ETITLE: TS BOND ANGLE DIHED IMPRP ELECT VDW BOUNDARY MISC KINETIC TOTAL TEMP POTENTIAL TOTAL3 TEMPAVG PRESSURE GPRESSURE VOLUME PRESSAVG GPRESSAVG
ENERGY: 400000 3.4671 2.0061 13.9811 0.0000 -13792.2429 2202.1303 0.0000 0.0000 695.4250 -10875.2334 118.3676 -11570.6584 -10872.9562 118.3676 -1201.4188 -1163.0334 29076.6819 -1201.4188 -1163.0334
ENERGY: 500000 0.9181 2.4179 12.3104 0.0000 -13649.3164 2231.0586 0.0000 0.0000 869.3947 -10533.2166 147.9788 -11402.6113 -10531.2796 149.9800 -232.3452 -171.3555 28881.0149 2.9671 2.8864
TCL: Running 100000 steps at 180 kelvin.
TCL: Setting parameter langevinTemp to 180
TCL: Running for 100000 steps
ETITLE: TS BOND ANGLE DIHED IMPRP ELECT VDW BOUNDARY MISC KINETIC TOTAL TEMP POTENTIAL TOTAL3 TEMPAVG PRESSURE GPRESSURE VOLUME PRESSAVG GPRESSAVG
ENERGY: 500000 0.9181 2.4179 12.3104 0.0000 -13649.3164 2231.0586 0.0000 0.0000 868.9539 -10533.6575 147.9038 -11402.6113 -10532.1495 147.9038 -227.9192 -171.6006 28881.0149 -227.9192 -171.6006
ENERGY: 600000 1.2358 2.5671 13.7125 0.0000 -13193.0824 2089.4349 0.0000 0.0000 1062.8536 -10023.2784 180.9072 -11086.1320 -10020.6719 180.4056 -257.0031 -164.9934 28755.7780 4.1951 4.2257
TCL: Running 100000 steps at 210 kelvin.
TCL: Setting parameter langevinTemp to 210
TCL: Running for 100000 steps
ETITLE: TS BOND ANGLE DIHED IMPRP ELECT VDW BOUNDARY MISC KINETIC TOTAL TEMP POTENTIAL TOTAL3 TEMPAVG PRESSURE GPRESSURE VOLUME PRESSAVG GPRESSAVG
ENERGY: 600000 1.2358 2.5671 13.7125 0.0000 -13193.0824 2089.4349 0.0000 0.0000 1062.3532 -10023.7788 180.8221 -11086.1320 -10021.3327 180.8221 -240.7712 -165.0097 28755.7780 -240.7712 -165.0097
ENERGY: 700000 1.3071 2.1888 15.2416 0.0000 -12468.2145 1790.6890 0.0000 0.0000 1217.3506 -9441.4375 207.2040 -10658.7881 -9437.6778 209.7791 -1063.8381 -999.0205 29002.3117 3.6686 3.5810
TCL: Running 100000 steps at 240 kelvin.
TCL: Setting parameter langevinTemp to 240
TCL: Running for 100000 steps
ETITLE: TS BOND ANGLE DIHED IMPRP ELECT VDW BOUNDARY MISC KINETIC TOTAL TEMP POTENTIAL TOTAL3 TEMPAVG PRESSURE GPRESSURE VOLUME PRESSAVG GPRESSAVG
ENERGY: 700000 1.3071 2.1888 15.2416 0.0000 -12468.2145 1790.6890 0.0000 0.0000 1216.7596 -9442.0285 207.1034 -10658.7881 -9439.4969 207.1034 -1058.9354 -997.7833 29002.3117 -1058.9354 -997.7833
ENERGY: 800000 3.6890 2.5516 14.7383 0.0000 -11879.8924 1671.0231 0.0000 0.0000 1404.9002 -8782.9902 239.1267 -10187.8904 -8779.0091 239.9176 -490.8106 -442.9903 29378.2489 2.0931 2.1396
TCL: Running 100000 steps at 270 kelvin.
TCL: Setting parameter langevinTemp to 270
TCL: Running for 100000 steps
ETITLE: TS BOND ANGLE DIHED IMPRP ELECT VDW BOUNDARY MISC KINETIC TOTAL TEMP POTENTIAL TOTAL3 TEMPAVG PRESSURE GPRESSURE VOLUME PRESSAVG GPRESSAVG
ENERGY: 800000 3.6890 2.5516 14.7383 0.0000 -11879.8924 1671.0231 0.0000 0.0000 1404.2143 -8783.6761 239.0099 -10187.8904 -8781.9794 239.0099 -532.8567 -442.3038 29378.2489 -532.8567 -442.3038
ENERGY: 900000 3.5692 3.5262 16.8415 0.0000 -11447.7816 1609.7477 0.0000 0.0000 1593.0939 -8221.0031 271.1589 -9814.0970 -8219.4129 270.3839 636.0149 677.4192 29115.0060 3.1366 3.0686
TCL: Running 1000000 steps at 300 kelvin.
TCL: Setting parameter langevinTemp to 300
TCL: Running for 1000000 steps
ETITLE: TS BOND ANGLE DIHED IMPRP ELECT VDW BOUNDARY MISC KINETIC TOTAL TEMP POTENTIAL TOTAL3 TEMPAVG PRESSURE GPRESSURE VOLUME PRESSAVG GPRESSAVG
ENERGY: 900000 3.5692 3.5262 16.8415 0.0000 -11447.7816 1609.7477 0.0000 0.0000 1592.2835 -8221.8135 271.0210 -9814.0970 -8219.8708 271.0210 604.6822 675.8122 29115.0060 604.6822 675.8122
ENERGY: 1100000 4.8552 4.4867 14.3690 0.0000 -10705.1220 1345.5369 0.0000 0.0000 1785.9046 -7549.9695 303.9770 -9335.8741 -7545.6063 299.8625 -364.2711 -264.4034 30288.3183 4.5455 4.4880
ENERGY: 1300000 2.6228 6.3734 18.5512 0.0000 -10930.4972 1509.0312 0.0000 0.0000 1770.3494 -7623.5693 301.3294 -9393.9187 -7620.4133 299.5730 515.3305 617.0354 30500.8231 2.3248 2.4127
ENERGY: 1500000 3.5672 2.3666 12.8305 0.0000 -10759.6777 1321.7506 0.0000 0.0000 1770.9034 -7648.2595 301.4237 -9419.1629 -7644.6855 300.4705 -1021.8286 -871.9415 30419.2710 3.5305 3.4356
ENERGY: 1700000 2.7716 1.1532 14.3300 0.0000 -10789.4904 1412.3671 0.0000 0.0000 1764.6321 -7594.2363 300.3563 -9358.8684 -7588.7800 300.4429 -134.4446 -112.3520 30659.7096 3.8062 3.8136
ENERGY: 1900000 4.3134 1.4806 15.9367 0.0000 -10836.0270 1473.2919 0.0000 0.0000 1801.7802 -7539.2240 306.6792 -9341.0043 -7535.7276 300.2685 301.4681 379.4099 30677.2870 2.8093 3.0964
TCL: Exiting due to exit command.
