Info: SIMULATION PARAMETERS:
Info: TIMESTEP               2
Info: NUMBER OF STEPS        0
Info: STEPS PER CYCLE        10
Info: PERIODIC CELL BASIS 1  34.986 0 0
Info: PERIODIC CELL BASIS 2  0 36.762 0
Info: PERIODIC CELL BASIS 3  0 0 34.68
Info: PERIODIC CELL CENTER   0 0 0
Info: WRAPPING WATERS AROUND PERIODIC BOUNDARIES ON OUTPUT.
Info: WRAPPING ALL CLUSTERS AROUND PERIODIC BOUNDARIES ON OUTPUT.
Info: FIRST LDB TIMESTEP     50
Info: LAST LDB TIMESTEP     -1
Info: HOM BACKGROUND SCALING 1
Info: PME BACKGROUND SCALING 1
Info: MIN ATOMS PER PATCH    40
Info: EMPTY PATCH LOAD       40 ATOMS
Info: INITIAL TEMPERATURE    300
Info: CENTER OF MASS MOVING INITIALLY? NO
Info: DIELECTRIC             1
Info: EXCLUDE                SCALED ONE-FOUR
Info: 1-4 ELECTROSTATICS SCALED BY 0.833333
Info: MODIFIED 1-4 VDW PARAMETERS WILL BE USED
Info: DCD FILENAME           mobley_8260524_equil.dcd
Info: DCD FREQUENCY          100000
Info: DCD FIRST STEP         100000
Info: DCD FILE WILL CONTAIN UNIT CELL DATA
Info: XST FILENAME           mobley_8260524_equil.xst
Info: XST FREQUENCY          100000
Info: NO VELOCITY DCD OUTPUT
Info: NO FORCE DCD OUTPUT
Info: OUTPUT FILENAME        mobley_8260524_equil
Info: BINARY OUTPUT FILES WILL BE USED
Info: RESTART FILENAME       mobley_8260524_equil.restart
Info: RESTART FREQUENCY      100000
Info: BINARY RESTART FILES WILL BE USED
Info: CUTOFF                 9
Info: PAIRLIST DISTANCE      11
Info: PAIRLIST SHRINK RATE   0.01
Info: PAIRLIST GROW RATE     0.01
Info: PAIRLIST TRIGGER       0.3
Info: PAIRLISTS PER CYCLE    2
Info: PAIRLISTS ENABLED
Info: MARGIN                 8
Info: HYDROGEN GROUP CUTOFF  2.5
Info: PATCH DIMENSION        21.5
Info: ENERGY OUTPUT STEPS    100000
Info: ENERGY EVALUATION STEPS    100000
Info: OUTPUT ENERGY PRECISION 4
Info: CROSSTERM ENERGY INCLUDED IN DIHEDRAL
Info: TIMING OUTPUT STEPS    1000000
Info: PRESSURE OUTPUT STEPS  100000
Info: LANGEVIN DYNAMICS ACTIVE
Info: LANGEVIN TEMPERATURE   30
Info: LANGEVIN USING BBK INTEGRATOR
Info: LANGEVIN DAMPING COEFFICIENT IS 1 INVERSE PS
Info: LANGEVIN DYNAMICS APPLIED TO HYDROGENS
Info: LANGEVIN PISTON PRESSURE CONTROL ACTIVE
Info:        TARGET PRESSURE IS 1.01325 BAR
Info:     OSCILLATION PERIOD IS 50 FS
Info:             DECAY TIME IS 25 FS
Info:     PISTON TEMPERATURE IS 300 K
Info:       PRESSURE CONTROL IS GROUP-BASED
Info:    INITIAL STRAIN RATE IS 0 0 0
Info:       CELL FLUCTUATION IS ISOTROPIC
Info: PARTICLE MESH EWALD (PME) ACTIVE
Info: PME TOLERANCE               1e-06
Info: PME EWALD COEFFICIENT       0.348832
Info: PME INTERPOLATION ORDER     4
Info: PME GRID DIMENSIONS         36 40 36
Info: PME MAXIMUM GRID SPACING    1
Info: FULL ELECTROSTATIC EVALUATION FREQUENCY      2
Info: USING VERLET I (r-RESPA) MTS SCHEME.
Info: C1 SPLITTING OF LONG RANGE ELECTROSTATICS
Info: PLACING ATOMS IN PATCHES BY HYDROGEN GROUPS
Info: RIGID BONDS TO HYDROGEN : ALL
Info:         ERROR TOLERANCE : 1e-08
Info:          MAX ITERATIONS : 100
Info: RIGID WATER USING SETTLE ALGORITHM
Info: RANDOM NUMBER SEED     1743156578
Info: USE HYDROGEN BONDS?    NO
Info: Using AMBER format force field!
Info: AMBER PARM FILE        mobley_8260524.prmtop
Info: COORDINATE PDB         mobley_8260524.pdb
Info: Exclusions will be read from PARM file!
Info: SCNB (VDW SCALING)     2
Info: USING ARITHMETIC MEAN TO COMBINE L-J SIGMA PARAMETERS
Info: BINARY COORDINATES     mobley_8260524_min.coor
Info: SUMMARY OF PARAMETERS:
Info: 6 BONDS
Info: 4 ANGLES
Info:   4 HARMONIC
Info:   0 COSINE-BASED
Info: 1 DIHEDRAL
Info: 0 IMPROPER
Info: 0 CROSSTERM
Info: 0 VDW
Info: 21 VDW_PAIRS
Info: 0 NBTHOLE_PAIRS
Info: STRUCTURE SUMMARY:
Info: 2932 ATOMS
Info: 2931 BONDS
Info: 8 ANGLES
Info: 4 DIHEDRALS
Info: 0 IMPROPERS
Info: 0 CROSSTERMS
Info: 2943 EXCLUSIONS
Info: 2929 RIGID BONDS
Info: 5867 DEGREES OF FREEDOM
Info: 978 HYDROGEN GROUPS
Info: 4 ATOMS IN LARGEST HYDROGEN GROUP
Info: 978 MIGRATION GROUPS
Info: 4 ATOMS IN LARGEST MIGRATION GROUP
Info: TOTAL MASS = 17605.7 amu
Info: TOTAL CHARGE = 0.000100007 e
Info: MASS DENSITY = 0.655449 g/cm^3
Info: ATOM DENSITY = 0.0657342 atoms/A^3
Info: ADDED 0 IMPLICIT EXCLUSIONS
Info: NONBONDED TABLE R-SQUARED SPACING: 0.0625
Info: NONBONDED TABLE SIZE: 705 POINTS
Info: REMOVING COM VELOCITY -0.19736 -0.0626234 0.0405176
TCL: Running for 100000 steps
ETITLE: TS BOND ANGLE DIHED IMPRP ELECT VDW BOUNDARY MISC KINETIC TOTAL TEMP POTENTIAL TOTAL3 TEMPAVG PRESSURE GPRESSURE VOLUME PRESSAVG GPRESSAVG
ENERGY: 0 0.0003 0.0781 0.0000 0.0000 -13620.7303 2431.8957 0.0000 0.0000 1734.6998 -9454.0565 297.5765 -11188.7562 -9453.6965 297.5765 493.9705 529.6156 44603.8669 493.9705 529.6156
ENERGY: 100000 0.5179 0.5350 0.0000 0.0000 -14104.5160 2442.6156 0.0000 0.0000 175.9760 -11484.8714 30.1875 -11660.8474 -11484.4418 30.9113 -164.9461 -111.9713 29161.2344 4.8822 4.9183
TCL: Running 100000 steps at 60 kelvin.
TCL: Setting parameter langevinTemp to 60
TCL: Running for 100000 steps
ETITLE: TS BOND ANGLE DIHED IMPRP ELECT VDW BOUNDARY MISC KINETIC TOTAL TEMP POTENTIAL TOTAL3 TEMPAVG PRESSURE GPRESSURE VOLUME PRESSAVG GPRESSAVG
ENERGY: 100000 0.5179 0.5350 0.0000 0.0000 -14104.5160 2442.6156 0.0000 0.0000 175.8928 -11484.9547 30.1733 -11660.8474 -11484.5405 30.1733 -167.4314 -112.0360 29161.2344 -167.4314 -112.0360
ENERGY: 200000 0.3048 0.7114 0.0000 0.0000 -14152.5441 2496.6898 0.0000 0.0000 353.9632 -11300.8748 60.7201 -11654.8381 -11299.9193 60.0338 571.9660 621.9378 28660.3491 4.6339 4.5363
TCL: Running 100000 steps at 90 kelvin.
TCL: Setting parameter langevinTemp to 90
TCL: Running for 100000 steps
ETITLE: TS BOND ANGLE DIHED IMPRP ELECT VDW BOUNDARY MISC KINETIC TOTAL TEMP POTENTIAL TOTAL3 TEMPAVG PRESSURE GPRESSURE VOLUME PRESSAVG GPRESSAVG
ENERGY: 200000 0.3048 0.7114 0.0000 0.0000 -14152.5441 2496.6898 0.0000 0.0000 353.7932 -11301.0449 60.6909 -11654.8381 -11300.4952 60.6909 578.4092 622.1760 28660.3491 578.4092 622.1760
ENERGY: 300000 0.0729 1.1368 0.0000 0.0000 -13877.5493 2353.0007 0.0000 0.0000 549.7873 -10973.5516 94.3124 -11523.3388 -10971.9112 89.8455 -194.4979 -153.5106 28831.2366 3.1005 3.1088
TCL: Running 100000 steps at 120 kelvin.
TCL: Setting parameter langevinTemp to 120
TCL: Running for 100000 steps
ETITLE: TS BOND ANGLE DIHED IMPRP ELECT VDW BOUNDARY MISC KINETIC TOTAL TEMP POTENTIAL TOTAL3 TEMPAVG PRESSURE GPRESSURE VOLUME PRESSAVG GPRESSAVG
ENERGY: 300000 0.0729 1.1368 0.0000 0.0000 -13877.5493 2353.0007 0.0000 0.0000 549.5261 -10973.8127 94.2676 -11523.3388 -10972.6390 94.2676 -180.8421 -152.8571 28831.2366 -180.8421 -152.8571
ENERGY: 400000 0.4000 0.4888 0.0000 0.0000 -13662.6528 2265.9983 0.0000 0.0000 693.3885 -10702.3772 118.9463 -11395.7657 -10699.9533 120.1972 -502.5715 -474.6258 28819.2627 3.1730 3.2529
TCL: Running 100000 steps at 150 kelvin.
TCL: Setting parameter langevinTemp to 150
TCL: Running for 100000 steps
ETITLE: TS BOND ANGLE DIHED IMPRP ELECT VDW BOUNDARY MISC KINETIC TOTAL TEMP POTENTIAL TOTAL3 TEMPAVG PRESSURE GPRESSURE VOLUME PRESSAVG GPRESSAVG
ENERGY: 400000 0.4000 0.4888 0.0000 0.0000 -13662.6528 2265.9983 0.0000 0.0000 693.0259 -10702.7398 118.8841 -11395.7657 -10701.3140 118.8841 -523.3876 -474.4063 28819.2627 -523.3876 -474.4063
ENERGY: 500000 0.6550 1.3459 0.0000 0.0000 -13485.4985 2240.3966 0.0000 0.0000 875.4455 -10367.6555 150.1770 -11243.1010 -10365.4806 149.6116 -153.9717 -58.3643 28649.0427 3.9676 3.9908
TCL: Running 100000 steps at 180 kelvin.
TCL: Setting parameter langevinTemp to 180
TCL: Running for 100000 steps
ETITLE: TS BOND ANGLE DIHED IMPRP ELECT VDW BOUNDARY MISC KINETIC TOTAL TEMP POTENTIAL TOTAL3 TEMPAVG PRESSURE GPRESSURE VOLUME PRESSAVG GPRESSAVG
ENERGY: 500000 0.6550 1.3459 0.0000 0.0000 -13485.4985 2240.3966 0.0000 0.0000 875.0118 -10368.0892 150.1026 -11243.1010 -10366.3074 150.1026 -126.7339 -58.5124 28649.0427 -126.7339 -58.5124
ENERGY: 600000 0.3443 2.1321 0.0000 0.0000 -13075.9177 2124.2134 0.0000 0.0000 1044.2680 -9904.9600 179.1374 -10949.2280 -9903.7172 180.1336 383.6930 458.9914 28216.9945 2.7422 2.8553
TCL: Running 100000 steps at 210 kelvin.
TCL: Setting parameter langevinTemp to 210
TCL: Running for 100000 steps
ETITLE: TS BOND ANGLE DIHED IMPRP ELECT VDW BOUNDARY MISC KINETIC TOTAL TEMP POTENTIAL TOTAL3 TEMPAVG PRESSURE GPRESSURE VOLUME PRESSAVG GPRESSAVG
ENERGY: 600000 0.3443 2.1321 0.0000 0.0000 -13075.9177 2124.2134 0.0000 0.0000 1043.7337 -9905.4942 179.0457 -10949.2280 -9903.9279 179.0457 403.7959 459.1096 28216.9945 403.7959 459.1096
ENERGY: 700000 0.4027 1.5648 0.0000 0.0000 -12320.9384 1817.9058 0.0000 0.0000 1226.7215 -9274.3435 210.4361 -10501.0650 -9272.6678 210.1489 -847.0989 -797.3543 28935.7198 2.9929 2.9103
TCL: Running 100000 steps at 240 kelvin.
TCL: Setting parameter langevinTemp to 240
TCL: Running for 100000 steps
ETITLE: TS BOND ANGLE DIHED IMPRP ELECT VDW BOUNDARY MISC KINETIC TOTAL TEMP POTENTIAL TOTAL3 TEMPAVG PRESSURE GPRESSURE VOLUME PRESSAVG GPRESSAVG
ENERGY: 700000 0.4027 1.5648 0.0000 0.0000 -12320.9384 1817.9058 0.0000 0.0000 1226.1287 -9274.9363 210.3344 -10501.0650 -9273.1983 210.3344 -872.8086 -797.7455 28935.7198 -872.8086 -797.7455
ENERGY: 800000 0.6041 1.4830 0.0000 0.0000 -11824.5295 1761.4477 0.0000 0.0000 1375.1768 -8685.8179 235.9026 -10060.9947 -8682.4670 239.9912 226.1154 259.1095 28892.1952 2.9029 2.9609
TCL: Running 100000 steps at 270 kelvin.
TCL: Setting parameter langevinTemp to 270
TCL: Running for 100000 steps
ETITLE: TS BOND ANGLE DIHED IMPRP ELECT VDW BOUNDARY MISC KINETIC TOTAL TEMP POTENTIAL TOTAL3 TEMPAVG PRESSURE GPRESSURE VOLUME PRESSAVG GPRESSAVG
ENERGY: 800000 0.6041 1.4830 0.0000 0.0000 -11824.5295 1761.4477 0.0000 0.0000 1374.4635 -8686.5312 235.7803 -10060.9947 -8684.1814 235.7803 182.8157 259.4569 28892.1952 182.8157 259.4569
ENERGY: 900000 0.5203 2.2215 0.0000 0.0000 -11107.2459 1512.9900 0.0000 0.0000 1591.6112 -7999.9029 273.0306 -9591.5141 -7996.3358 269.6266 -478.7553 -515.3120 29853.6694 2.8105 2.7977
TCL: Running 1000000 steps at 300 kelvin.
TCL: Setting parameter langevinTemp to 300
TCL: Running for 1000000 steps
ETITLE: TS BOND ANGLE DIHED IMPRP ELECT VDW BOUNDARY MISC KINETIC TOTAL TEMP POTENTIAL TOTAL3 TEMPAVG PRESSURE GPRESSURE VOLUME PRESSAVG GPRESSAVG
ENERGY: 900000 0.5203 2.2215 0.0000 0.0000 -11107.2459 1512.9900 0.0000 0.0000 1590.8279 -8000.6862 272.8962 -9591.5141 -7998.4895 272.8962 -572.5701 -514.9337 29853.6694 -572.5701 -514.9337
ENERGY: 1100000 0.3586 2.5488 0.0000 0.0000 -10712.4050 1454.2711 0.0000 0.0000 1780.2764 -7474.9502 305.3949 -9255.2266 -7471.9542 300.4064 102.1760 172.5492 30146.6681 3.7258 3.7058
ENERGY: 1300000 0.6336 3.7936 0.0000 0.0000 -10553.1608 1404.5218 0.0000 0.0000 1685.2295 -7458.9824 289.0902 -9144.2119 -7455.3592 299.2086 158.1895 204.2706 29964.5157 3.1549 3.1509
ENERGY: 1500000 0.4391 1.3338 0.0000 0.0000 -10652.6881 1465.7290 0.0000 0.0000 1785.6793 -7399.5069 306.3217 -9185.1862 -7395.6405 300.0713 377.2213 534.9027 30159.8125 2.3897 2.6287
ENERGY: 1700000 0.0778 1.6263 0.0000 0.0000 -10584.7338 1438.9693 0.0000 0.0000 1770.7409 -7373.3196 303.7591 -9144.0605 -7368.6360 299.8610 -51.0433 58.5388 31024.6803 3.1871 3.1069
ENERGY: 1900000 0.3599 2.4827 0.0000 0.0000 -10678.2871 1400.8949 0.0000 0.0000 1760.5248 -7514.0248 302.0066 -9274.5496 -7510.6837 299.9075 -604.6364 -531.7203 30321.0213 3.2584 3.1380
TCL: Exiting due to exit command.
