Info: SIMULATION PARAMETERS:
Info: TIMESTEP               2
Info: NUMBER OF STEPS        0
Info: STEPS PER CYCLE        10
Info: PERIODIC CELL BASIS 1  34.986 0 0
Info: PERIODIC CELL BASIS 2  0 34.457 0
Info: PERIODIC CELL BASIS 3  0 0 35.723
Info: PERIODIC CELL CENTER   0 0 0
Info: WRAPPING WATERS AROUND PERIODIC BOUNDARIES ON OUTPUT.
Info: WRAPPING ALL CLUSTERS AROUND PERIODIC BOUNDARIES ON OUTPUT.
Info: FIRST LDB TIMESTEP     50
Info: LAST LDB TIMESTEP     -1
Info: HOM BACKGROUND SCALING 1
Info: PME BACKGROUND SCALING 1
Info: MIN ATOMS PER PATCH    40
Info: EMPTY PATCH LOAD       40 ATOMS
Info: INITIAL TEMPERATURE    300
Info: CENTER OF MASS MOVING INITIALLY? NO
Info: DIELECTRIC             1
Info: EXCLUDE                SCALED ONE-FOUR
Info: 1-4 ELECTROSTATICS SCALED BY 0.833333
Info: MODIFIED 1-4 VDW PARAMETERS WILL BE USED
Info: DCD FILENAME           mobley_1674094_equil.dcd
Info: DCD FREQUENCY          100000
Info: DCD FIRST STEP         100000
Info: DCD FILE WILL CONTAIN UNIT CELL DATA
Info: XST FILENAME           mobley_1674094_equil.xst
Info: XST FREQUENCY          100000
Info: NO VELOCITY DCD OUTPUT
Info: NO FORCE DCD OUTPUT
Info: OUTPUT FILENAME        mobley_1674094_equil
Info: BINARY OUTPUT FILES WILL BE USED
Info: RESTART FILENAME       mobley_1674094_equil.restart
Info: RESTART FREQUENCY      100000
Info: BINARY RESTART FILES WILL BE USED
Info: CUTOFF                 9
Info: PAIRLIST DISTANCE      11
Info: PAIRLIST SHRINK RATE   0.01
Info: PAIRLIST GROW RATE     0.01
Info: PAIRLIST TRIGGER       0.3
Info: PAIRLISTS PER CYCLE    2
Info: PAIRLISTS ENABLED
Info: MARGIN                 8
Info: HYDROGEN GROUP CUTOFF  2.5
Info: PATCH DIMENSION        21.5
Info: ENERGY OUTPUT STEPS    100000
Info: ENERGY EVALUATION STEPS    100000
Info: OUTPUT ENERGY PRECISION 4
Info: CROSSTERM ENERGY INCLUDED IN DIHEDRAL
Info: TIMING OUTPUT STEPS    1000000
Info: PRESSURE OUTPUT STEPS  100000
Info: LANGEVIN DYNAMICS ACTIVE
Info: LANGEVIN TEMPERATURE   30
Info: LANGEVIN USING BBK INTEGRATOR
Info: LANGEVIN DAMPING COEFFICIENT IS 1 INVERSE PS
Info: LANGEVIN DYNAMICS APPLIED TO HYDROGENS
Info: LANGEVIN PISTON PRESSURE CONTROL ACTIVE
Info:        TARGET PRESSURE IS 1.01325 BAR
Info:     OSCILLATION PERIOD IS 50 FS
Info:             DECAY TIME IS 25 FS
Info:     PISTON TEMPERATURE IS 300 K
Info:       PRESSURE CONTROL IS GROUP-BASED
Info:    INITIAL STRAIN RATE IS 0 0 0
Info:       CELL FLUCTUATION IS ISOTROPIC
Info: PARTICLE MESH EWALD (PME) ACTIVE
Info: PME TOLERANCE               1e-06
Info: PME EWALD COEFFICIENT       0.348832
Info: PME INTERPOLATION ORDER     4
Info: PME GRID DIMENSIONS         36 36 36
Info: PME MAXIMUM GRID SPACING    1
Info: FULL ELECTROSTATIC EVALUATION FREQUENCY      2
Info: USING VERLET I (r-RESPA) MTS SCHEME.
Info: C1 SPLITTING OF LONG RANGE ELECTROSTATICS
Info: PLACING ATOMS IN PATCHES BY HYDROGEN GROUPS
Info: RIGID BONDS TO HYDROGEN : ALL
Info:         ERROR TOLERANCE : 1e-08
Info:          MAX ITERATIONS : 100
Info: RIGID WATER USING SETTLE ALGORITHM
Info: RANDOM NUMBER SEED     1743240422
Info: USE HYDROGEN BONDS?    NO
Info: Using AMBER format force field!
Info: AMBER PARM FILE        mobley_1674094.prmtop
Info: COORDINATE PDB         mobley_1674094.pdb
Info: Exclusions will be read from PARM file!
Info: SCNB (VDW SCALING)     2
Info: USING ARITHMETIC MEAN TO COMBINE L-J SIGMA PARAMETERS
Info: BINARY COORDINATES     mobley_1674094_min.coor
Info: SUMMARY OF PARAMETERS:
Info: 7 BONDS
Info: 7 ANGLES
Info: 7 DIHEDRAL
Info: 0 IMPROPER
Info: 0 CROSSTERM
Info: 0 VDW
Info: 21 VDW_PAIRS
Info: 0 NBTHOLE_PAIRS
Info: STRUCTURE SUMMARY:
Info: 2917 ATOMS
Info: 2916 BONDS
Info: 26 ANGLES
Info: 33 DIHEDRALS
Info: 0 IMPROPERS
Info: 0 CROSSTERMS
Info: 2973 EXCLUSIONS
Info: 2911 RIGID BONDS
Info: 5840 DEGREES OF FREEDOM
Info: 973 HYDROGEN GROUPS
Info: 4 ATOMS IN LARGEST HYDROGEN GROUP
Info: 973 MIGRATION GROUPS
Info: 4 ATOMS IN LARGEST MIGRATION GROUP
Info: TOTAL MASS = 17503.6 amu
Info: TOTAL CHARGE = 0.000199989 e
Info: MASS DENSITY = 0.674943 g/cm^3
Info: ATOM DENSITY = 0.0677356 atoms/A^3
Info: ADDED 0 IMPLICIT EXCLUSIONS
Info: NONBONDED TABLE R-SQUARED SPACING: 0.0625
Info: NONBONDED TABLE SIZE: 705 POINTS
Info: REMOVING COM VELOCITY -0.137263 0.0497865 0.0711552
TCL: Running for 100000 steps
ETITLE: TS BOND ANGLE DIHED IMPRP ELECT VDW BOUNDARY MISC KINETIC TOTAL TEMP POTENTIAL TOTAL3 TEMPAVG PRESSURE GPRESSURE VOLUME PRESSAVG GPRESSAVG
ENERGY: 0 0.0392 0.1647 0.4286 0.0000 -13451.3771 2351.4652 0.0000 0.0000 1774.5410 -9324.7385 305.8184 -11099.2795 -9324.3977 305.8184 517.5916 548.9729 43064.5267 517.5916 548.9729
ENERGY: 100000 0.2615 0.9305 0.4955 0.0000 -14148.0740 2541.3453 0.0000 0.0000 171.4083 -11433.6328 29.5399 -11605.0412 -11433.1533 31.0171 1011.8339 1057.2606 27990.8104 3.1799 3.1774
TCL: Running 100000 steps at 60 kelvin.
TCL: Setting parameter langevinTemp to 60
TCL: Running for 100000 steps
ETITLE: TS BOND ANGLE DIHED IMPRP ELECT VDW BOUNDARY MISC KINETIC TOTAL TEMP POTENTIAL TOTAL3 TEMPAVG PRESSURE GPRESSURE VOLUME PRESSAVG GPRESSAVG
ENERGY: 100000 0.2615 0.9305 0.4955 0.0000 -14148.0740 2541.3453 0.0000 0.0000 171.3189 -11433.7223 29.5245 -11605.0412 -11433.4156 29.5245 1006.6505 1057.3095 27990.8104 1006.6505 1057.3095
ENERGY: 200000 0.5708 1.2110 0.7143 0.0000 -13988.4539 2449.6155 0.0000 0.0000 356.8216 -11179.5207 61.4934 -11536.3424 -11179.1389 59.9941 405.8343 424.1568 28376.3457 2.9812 2.9437
TCL: Running 100000 steps at 90 kelvin.
TCL: Setting parameter langevinTemp to 90
TCL: Running for 100000 steps
ETITLE: TS BOND ANGLE DIHED IMPRP ELECT VDW BOUNDARY MISC KINETIC TOTAL TEMP POTENTIAL TOTAL3 TEMPAVG PRESSURE GPRESSURE VOLUME PRESSAVG GPRESSAVG
ENERGY: 200000 0.5708 1.2110 0.7143 0.0000 -13988.4539 2449.6155 0.0000 0.0000 356.6425 -11179.6998 61.4626 -11536.3424 -11178.8882 61.4626 379.2984 423.6047 28376.3457 379.2984 423.6047
ENERGY: 300000 0.2986 1.9105 0.7032 0.0000 -13672.0680 2238.4319 0.0000 0.0000 499.4233 -10931.3005 86.0689 -11430.7238 -10929.7451 90.1347 -1141.7638 -1097.6315 28791.8236 3.6150 3.6184
TCL: Running 100000 steps at 120 kelvin.
TCL: Setting parameter langevinTemp to 120
TCL: Running for 100000 steps
ETITLE: TS BOND ANGLE DIHED IMPRP ELECT VDW BOUNDARY MISC KINETIC TOTAL TEMP POTENTIAL TOTAL3 TEMPAVG PRESSURE GPRESSURE VOLUME PRESSAVG GPRESSAVG
ENERGY: 300000 0.2986 1.9105 0.7032 0.0000 -13672.0680 2238.4319 0.0000 0.0000 499.1707 -10931.5531 86.0254 -11430.7238 -10930.4411 86.0254 -1151.2227 -1097.6395 28791.8236 -1151.2227 -1097.6395
ENERGY: 400000 1.0809 4.1946 0.8844 0.0000 -13675.5039 2343.1907 0.0000 0.0000 694.5589 -10631.5944 119.6979 -11326.1532 -10630.2358 120.0122 51.5130 139.0101 28803.5275 3.6038 3.5876
TCL: Running 100000 steps at 150 kelvin.
TCL: Setting parameter langevinTemp to 150
TCL: Running for 100000 steps
ETITLE: TS BOND ANGLE DIHED IMPRP ELECT VDW BOUNDARY MISC KINETIC TOTAL TEMP POTENTIAL TOTAL3 TEMPAVG PRESSURE GPRESSURE VOLUME PRESSAVG GPRESSAVG
ENERGY: 400000 1.0809 4.1946 0.8844 0.0000 -13675.5039 2343.1907 0.0000 0.0000 694.2123 -10631.9410 119.6382 -11326.1532 -10630.5151 119.6382 95.5796 138.1520 28803.5275 95.5796 138.1520
ENERGY: 500000 1.8667 1.6327 0.7258 0.0000 -13491.7939 2314.7121 0.0000 0.0000 854.7254 -10318.1313 147.3005 -11172.8567 -10315.1545 150.0046 546.5365 588.6766 28611.0388 3.0149 3.0757
TCL: Running 100000 steps at 180 kelvin.
TCL: Setting parameter langevinTemp to 180
TCL: Running for 100000 steps
ETITLE: TS BOND ANGLE DIHED IMPRP ELECT VDW BOUNDARY MISC KINETIC TOTAL TEMP POTENTIAL TOTAL3 TEMPAVG PRESSURE GPRESSURE VOLUME PRESSAVG GPRESSAVG
ENERGY: 500000 1.8667 1.6327 0.7258 0.0000 -13491.7939 2314.7121 0.0000 0.0000 854.2966 -10318.5601 147.2266 -11172.8567 -10316.9149 147.2266 540.2310 589.0567 28611.0388 540.2310 589.0567
ENERGY: 600000 1.8461 3.5668 0.7838 0.0000 -12908.4753 2079.6236 0.0000 0.0000 1066.3318 -9756.3231 183.7680 -10822.6549 -9754.8426 179.3659 169.1289 222.5941 28143.8150 4.7918 4.6406
TCL: Running 100000 steps at 210 kelvin.
TCL: Setting parameter langevinTemp to 210
TCL: Running for 100000 steps
ETITLE: TS BOND ANGLE DIHED IMPRP ELECT VDW BOUNDARY MISC KINETIC TOTAL TEMP POTENTIAL TOTAL3 TEMPAVG PRESSURE GPRESSURE VOLUME PRESSAVG GPRESSAVG
ENERGY: 600000 1.8461 3.5668 0.7838 0.0000 -12908.4753 2079.6236 0.0000 0.0000 1065.8205 -9756.8344 183.6799 -10822.6549 -9754.7249 183.6799 154.1936 221.1573 28143.8150 154.1936 221.1573
ENERGY: 700000 1.0779 6.5821 0.7060 0.0000 -12185.5643 1843.0425 0.0000 0.0000 1213.4743 -9120.6816 209.1260 -10334.1559 -9117.2566 210.2795 -199.5706 -17.8336 28504.1788 4.0437 4.0374
TCL: Running 100000 steps at 240 kelvin.
TCL: Setting parameter langevinTemp to 240
TCL: Running for 100000 steps
ETITLE: TS BOND ANGLE DIHED IMPRP ELECT VDW BOUNDARY MISC KINETIC TOTAL TEMP POTENTIAL TOTAL3 TEMPAVG PRESSURE GPRESSURE VOLUME PRESSAVG GPRESSAVG
ENERGY: 700000 1.0779 6.5821 0.7060 0.0000 -12185.5643 1843.0425 0.0000 0.0000 1212.8700 -9121.2859 209.0219 -10334.1559 -9119.6340 209.0219 -109.4880 -15.9808 28504.1788 -109.4880 -15.9808
ENERGY: 800000 2.8052 8.3023 0.7863 0.0000 -11664.4478 1678.0002 0.0000 0.0000 1380.8107 -8593.7432 237.9642 -9974.5538 -8590.1787 240.2263 -171.8557 -104.9167 28363.4611 3.5082 3.5668
TCL: Running 100000 steps at 270 kelvin.
TCL: Setting parameter langevinTemp to 270
TCL: Running for 100000 steps
ETITLE: TS BOND ANGLE DIHED IMPRP ELECT VDW BOUNDARY MISC KINETIC TOTAL TEMP POTENTIAL TOTAL3 TEMPAVG PRESSURE GPRESSURE VOLUME PRESSAVG GPRESSAVG
ENERGY: 800000 2.8052 8.3023 0.7863 0.0000 -11664.4478 1678.0002 0.0000 0.0000 1380.1131 -8594.4407 237.8440 -9974.5538 -8592.1930 237.8440 -183.7617 -104.3462 28363.4611 -183.7617 -104.3462
ENERGY: 900000 0.8902 6.0450 2.6381 0.0000 -11129.9364 1585.0792 0.0000 0.0000 1566.9771 -7968.3068 270.0475 -9535.2840 -7964.6034 270.4388 254.0470 319.5989 29327.3857 2.2279 2.1775
TCL: Running 1000000 steps at 300 kelvin.
TCL: Setting parameter langevinTemp to 300
TCL: Running for 1000000 steps
ETITLE: TS BOND ANGLE DIHED IMPRP ELECT VDW BOUNDARY MISC KINETIC TOTAL TEMP POTENTIAL TOTAL3 TEMPAVG PRESSURE GPRESSURE VOLUME PRESSAVG GPRESSAVG
ENERGY: 900000 0.8902 6.0450 2.6381 0.0000 -11129.9364 1585.0792 0.0000 0.0000 1566.1592 -7969.1248 269.9066 -9535.2840 -7967.1561 269.9066 229.5774 320.3309 29327.3857 229.5774 320.3309
ENERGY: 1100000 1.6171 7.2090 0.7902 0.0000 -10480.9232 1398.3158 0.0000 0.0000 1728.3627 -7344.6284 297.8602 -9072.9911 -7341.0851 300.5775 129.7003 194.8082 29918.4689 3.4520 3.2784
ENERGY: 1300000 1.8951 10.0424 1.6574 0.0000 -10532.1065 1409.2150 0.0000 0.0000 1811.1970 -7298.0997 312.1355 -9109.2967 -7296.1739 300.1402 -78.8801 24.2577 30102.0019 1.8893 1.8820
ENERGY: 1500000 0.6239 6.5445 0.7644 0.0000 -10646.6935 1467.0487 0.0000 0.0000 1721.0463 -7450.6657 296.5993 -9171.7120 -7447.9634 300.1429 395.7308 495.6540 29574.1352 2.7502 2.6898
ENERGY: 1700000 1.2575 6.0835 1.9422 0.0000 -10608.7933 1528.5763 0.0000 0.0000 1713.6039 -7357.3298 295.3167 -9070.9337 -7356.2990 299.8463 900.6666 916.9685 30189.5023 2.1197 1.9941
ENERGY: 1900000 2.4952 6.7122 2.1629 0.0000 -10501.7659 1289.7458 0.0000 0.0000 1724.7954 -7475.8544 297.2454 -9200.6498 -7472.3972 300.0593 -1338.3359 -1232.3039 30162.3857 3.7371 3.4836
TCL: Exiting due to exit command.
