Info: SIMULATION PARAMETERS:
Info: TIMESTEP               2
Info: NUMBER OF STEPS        0
Info: STEPS PER CYCLE        10
Info: PERIODIC CELL BASIS 1  34.207 0 0
Info: PERIODIC CELL BASIS 2  0 36.611 0
Info: PERIODIC CELL BASIS 3  0 0 35.723
Info: PERIODIC CELL CENTER   0 0 0
Info: WRAPPING WATERS AROUND PERIODIC BOUNDARIES ON OUTPUT.
Info: WRAPPING ALL CLUSTERS AROUND PERIODIC BOUNDARIES ON OUTPUT.
Info: FIRST LDB TIMESTEP     50
Info: LAST LDB TIMESTEP     -1
Info: HOM BACKGROUND SCALING 1
Info: PME BACKGROUND SCALING 1
Info: MIN ATOMS PER PATCH    40
Info: EMPTY PATCH LOAD       40 ATOMS
Info: INITIAL TEMPERATURE    300
Info: CENTER OF MASS MOVING INITIALLY? NO
Info: DIELECTRIC             1
Info: EXCLUDE                SCALED ONE-FOUR
Info: 1-4 ELECTROSTATICS SCALED BY 0.833333
Info: MODIFIED 1-4 VDW PARAMETERS WILL BE USED
Info: DCD FILENAME           mobley_7106722_equil.dcd
Info: DCD FREQUENCY          100000
Info: DCD FIRST STEP         100000
Info: DCD FILE WILL CONTAIN UNIT CELL DATA
Info: XST FILENAME           mobley_7106722_equil.xst
Info: XST FREQUENCY          100000
Info: NO VELOCITY DCD OUTPUT
Info: NO FORCE DCD OUTPUT
Info: OUTPUT FILENAME        mobley_7106722_equil
Info: BINARY OUTPUT FILES WILL BE USED
Info: RESTART FILENAME       mobley_7106722_equil.restart
Info: RESTART FREQUENCY      100000
Info: BINARY RESTART FILES WILL BE USED
Info: CUTOFF                 9
Info: PAIRLIST DISTANCE      11
Info: PAIRLIST SHRINK RATE   0.01
Info: PAIRLIST GROW RATE     0.01
Info: PAIRLIST TRIGGER       0.3
Info: PAIRLISTS PER CYCLE    2
Info: PAIRLISTS ENABLED
Info: MARGIN                 8
Info: HYDROGEN GROUP CUTOFF  2.5
Info: PATCH DIMENSION        21.5
Info: ENERGY OUTPUT STEPS    100000
Info: ENERGY EVALUATION STEPS    100000
Info: OUTPUT ENERGY PRECISION 4
Info: CROSSTERM ENERGY INCLUDED IN DIHEDRAL
Info: TIMING OUTPUT STEPS    1000000
Info: PRESSURE OUTPUT STEPS  100000
Info: LANGEVIN DYNAMICS ACTIVE
Info: LANGEVIN TEMPERATURE   30
Info: LANGEVIN USING BBK INTEGRATOR
Info: LANGEVIN DAMPING COEFFICIENT IS 1 INVERSE PS
Info: LANGEVIN DYNAMICS APPLIED TO HYDROGENS
Info: LANGEVIN PISTON PRESSURE CONTROL ACTIVE
Info:        TARGET PRESSURE IS 1.01325 BAR
Info:     OSCILLATION PERIOD IS 50 FS
Info:             DECAY TIME IS 25 FS
Info:     PISTON TEMPERATURE IS 300 K
Info:       PRESSURE CONTROL IS GROUP-BASED
Info:    INITIAL STRAIN RATE IS 0 0 0
Info:       CELL FLUCTUATION IS ISOTROPIC
Info: PARTICLE MESH EWALD (PME) ACTIVE
Info: PME TOLERANCE               1e-06
Info: PME EWALD COEFFICIENT       0.348832
Info: PME INTERPOLATION ORDER     4
Info: PME GRID DIMENSIONS         36 40 36
Info: PME MAXIMUM GRID SPACING    1
Info: FULL ELECTROSTATIC EVALUATION FREQUENCY      2
Info: USING VERLET I (r-RESPA) MTS SCHEME.
Info: C1 SPLITTING OF LONG RANGE ELECTROSTATICS
Info: PLACING ATOMS IN PATCHES BY HYDROGEN GROUPS
Info: RIGID BONDS TO HYDROGEN : ALL
Info:         ERROR TOLERANCE : 1e-08
Info:          MAX ITERATIONS : 100
Info: RIGID WATER USING SETTLE ALGORITHM
Info: RANDOM NUMBER SEED     1743243201
Info: USE HYDROGEN BONDS?    NO
Info: Using AMBER format force field!
Info: AMBER PARM FILE        mobley_7106722.prmtop
Info: COORDINATE PDB         mobley_7106722.pdb
Info: Exclusions will be read from PARM file!
Info: SCNB (VDW SCALING)     2
Info: USING ARITHMETIC MEAN TO COMBINE L-J SIGMA PARAMETERS
Info: BINARY COORDINATES     mobley_7106722_min.coor
Info: SUMMARY OF PARAMETERS:
Info: 4 BONDS
Info: 3 ANGLES
Info:   3 HARMONIC
Info:   0 COSINE-BASED
Info: 5 DIHEDRAL
Info: 0 IMPROPER
Info: 0 CROSSTERM
Info: 0 VDW
Info: 10 VDW_PAIRS
Info: 0 NBTHOLE_PAIRS
Info: STRUCTURE SUMMARY:
Info: 2945 ATOMS
Info: 2944 BONDS
Info: 36 ANGLES
Info: 51 DIHEDRALS
Info: 0 IMPROPERS
Info: 0 CROSSTERMS
Info: 3025 EXCLUSIONS
Info: 2939 RIGID BONDS
Info: 5896 DEGREES OF FREEDOM
Info: 981 HYDROGEN GROUPS
Info: 4 ATOMS IN LARGEST HYDROGEN GROUP
Info: 981 MIGRATION GROUPS
Info: 4 ATOMS IN LARGEST MIGRATION GROUP
Info: TOTAL MASS = 17651.8 amu
Info: TOTAL CHARGE = -0.00029999 e
Info: MASS DENSITY = 0.655199 g/cm^3
Info: ATOM DENSITY = 0.065828 atoms/A^3
Info: ADDED 0 IMPLICIT EXCLUSIONS
Info: NONBONDED TABLE R-SQUARED SPACING: 0.0625
Info: NONBONDED TABLE SIZE: 705 POINTS
Info: REMOVING COM VELOCITY 0.197909 -0.267145 -0.0680868
TCL: Running for 100000 steps
ETITLE: TS BOND ANGLE DIHED IMPRP ELECT VDW BOUNDARY MISC KINETIC TOTAL TEMP POTENTIAL TOTAL3 TEMPAVG PRESSURE GPRESSURE VOLUME PRESSAVG GPRESSAVG
ENERGY: 0 0.1428 0.6896 1.4823 0.0000 -13600.0667 2389.3841 0.0000 0.0000 1733.3413 -9475.0265 295.8809 -11208.3679 -9474.6871 295.8809 405.4276 438.8239 44737.7875 405.4276 438.8239
ENERGY: 100000 0.5241 1.2121 1.5840 0.0000 -14273.3652 2586.4771 0.0000 0.0000 173.3414 -11510.2265 29.5893 -11683.5680 -11509.8186 30.9067 1091.7081 1156.4873 28620.6129 3.9189 3.9276
TCL: Running 100000 steps at 60 kelvin.
TCL: Setting parameter langevinTemp to 60
TCL: Running for 100000 steps
ETITLE: TS BOND ANGLE DIHED IMPRP ELECT VDW BOUNDARY MISC KINETIC TOTAL TEMP POTENTIAL TOTAL3 TEMPAVG PRESSURE GPRESSURE VOLUME PRESSAVG GPRESSAVG
ENERGY: 100000 0.5241 1.2121 1.5840 0.0000 -14273.3652 2586.4771 0.0000 0.0000 173.2554 -11510.3126 29.5746 -11683.5680 -11510.0185 29.5746 1089.7953 1156.4994 28620.6129 1089.7953 1156.4994
ENERGY: 200000 0.0836 2.2343 1.7265 0.0000 -14039.9034 2393.0472 0.0000 0.0000 352.1742 -11290.6377 60.1160 -11642.8118 -11289.7735 60.0636 -282.0701 -268.7002 28722.3241 3.8403 3.7989
TCL: Running 100000 steps at 90 kelvin.
TCL: Setting parameter langevinTemp to 90
TCL: Running for 100000 steps
ETITLE: TS BOND ANGLE DIHED IMPRP ELECT VDW BOUNDARY MISC KINETIC TOTAL TEMP POTENTIAL TOTAL3 TEMPAVG PRESSURE GPRESSURE VOLUME PRESSAVG GPRESSAVG
ENERGY: 200000 0.0836 2.2343 1.7265 0.0000 -14039.9034 2393.0472 0.0000 0.0000 351.9991 -11290.8127 60.0862 -11642.8118 -11290.0901 60.0862 -308.9733 -268.6598 28722.3241 -308.9733 -268.6598
ENERGY: 300000 0.7501 4.2852 2.1799 0.0000 -13963.1364 2414.4182 0.0000 0.0000 531.2410 -11010.2620 90.6827 -11541.5029 -11008.7877 89.7890 265.5706 316.3275 28585.7083 4.2814 4.2299
TCL: Running 100000 steps at 120 kelvin.
TCL: Setting parameter langevinTemp to 120
TCL: Running for 100000 steps
ETITLE: TS BOND ANGLE DIHED IMPRP ELECT VDW BOUNDARY MISC KINETIC TOTAL TEMP POTENTIAL TOTAL3 TEMPAVG PRESSURE GPRESSURE VOLUME PRESSAVG GPRESSAVG
ENERGY: 300000 0.7501 4.2852 2.1799 0.0000 -13963.1364 2414.4182 0.0000 0.0000 530.9830 -11010.5199 90.6387 -11541.5029 -11009.2240 90.6387 267.1611 316.3586 28585.7083 267.1611 316.3586
ENERGY: 400000 0.3226 4.5373 1.6227 0.0000 -13766.6537 2356.1689 0.0000 0.0000 700.3363 -10703.6659 119.5472 -11404.0022 -10702.1277 120.2698 13.1365 96.8917 29216.2672 3.9374 3.8529
TCL: Running 100000 steps at 150 kelvin.
TCL: Setting parameter langevinTemp to 150
TCL: Running for 100000 steps
ETITLE: TS BOND ANGLE DIHED IMPRP ELECT VDW BOUNDARY MISC KINETIC TOTAL TEMP POTENTIAL TOTAL3 TEMPAVG PRESSURE GPRESSURE VOLUME PRESSAVG GPRESSAVG
ENERGY: 400000 0.3226 4.5373 1.6227 0.0000 -13766.6537 2356.1689 0.0000 0.0000 699.9805 -10704.0217 119.4865 -11404.0022 -10702.5657 119.4865 51.1547 96.6192 29216.2672 51.1547 96.6192
ENERGY: 500000 0.7180 3.7815 1.8427 0.0000 -13499.1556 2269.9102 0.0000 0.0000 848.9081 -10373.9951 144.9084 -11222.9032 -10371.8112 149.6712 -56.5063 -19.7562 29215.2624 2.5269 2.4834
TCL: Running 100000 steps at 180 kelvin.
TCL: Setting parameter langevinTemp to 180
TCL: Running for 100000 steps
ETITLE: TS BOND ANGLE DIHED IMPRP ELECT VDW BOUNDARY MISC KINETIC TOTAL TEMP POTENTIAL TOTAL3 TEMPAVG PRESSURE GPRESSURE VOLUME PRESSAVG GPRESSAVG
ENERGY: 500000 0.7180 3.7815 1.8427 0.0000 -13499.1556 2269.9102 0.0000 0.0000 848.4550 -10374.4482 144.8311 -11222.9032 -10372.5510 144.8311 -64.5772 -20.0420 29215.2624 -64.5772 -20.0420
ENERGY: 600000 0.6462 4.8713 2.5030 0.0000 -13078.3425 2127.7895 0.0000 0.0000 1021.5297 -9921.0028 174.3749 -10942.5326 -9919.5609 180.1055 4.2522 136.6441 28700.2768 4.0632 3.9566
TCL: Running 100000 steps at 210 kelvin.
TCL: Setting parameter langevinTemp to 210
TCL: Running for 100000 steps
ETITLE: TS BOND ANGLE DIHED IMPRP ELECT VDW BOUNDARY MISC KINETIC TOTAL TEMP POTENTIAL TOTAL3 TEMPAVG PRESSURE GPRESSURE VOLUME PRESSAVG GPRESSAVG
ENERGY: 600000 0.6462 4.8713 2.5030 0.0000 -13078.3425 2127.7895 0.0000 0.0000 1021.0063 -9921.5263 174.2855 -10942.5326 -9919.4525 174.2855 64.9930 136.0793 28700.2768 64.9930 136.0793
ENERGY: 700000 0.6139 7.0759 2.2533 0.0000 -12254.7659 1844.1026 0.0000 0.0000 1246.4350 -9154.2853 212.7661 -10400.7202 -9150.3325 210.0491 -245.0582 -187.8374 28837.3296 3.0536 3.1918
TCL: Running 100000 steps at 240 kelvin.
TCL: Setting parameter langevinTemp to 240
TCL: Running for 100000 steps
ETITLE: TS BOND ANGLE DIHED IMPRP ELECT VDW BOUNDARY MISC KINETIC TOTAL TEMP POTENTIAL TOTAL3 TEMPAVG PRESSURE GPRESSURE VOLUME PRESSAVG GPRESSAVG
ENERGY: 700000 0.6139 7.0759 2.2533 0.0000 -12254.7659 1844.1026 0.0000 0.0000 1245.8168 -9154.9034 212.6606 -10400.7202 -9153.1840 212.6606 -260.9192 -186.6274 28837.3296 -260.9192 -186.6274
ENERGY: 800000 1.1102 9.4381 2.2138 0.0000 -11749.6689 1715.5471 0.0000 0.0000 1358.4087 -8662.9509 231.8800 -10021.3597 -8658.9797 239.4945 -80.5581 8.0745 29024.3026 4.5871 4.5239
TCL: Running 100000 steps at 270 kelvin.
TCL: Setting parameter langevinTemp to 270
TCL: Running for 100000 steps
ETITLE: TS BOND ANGLE DIHED IMPRP ELECT VDW BOUNDARY MISC KINETIC TOTAL TEMP POTENTIAL TOTAL3 TEMPAVG PRESSURE GPRESSURE VOLUME PRESSAVG GPRESSAVG
ENERGY: 800000 1.1102 9.4381 2.2138 0.0000 -11749.6689 1715.5471 0.0000 0.0000 1357.7084 -8663.6513 231.7605 -10021.3597 -8661.1493 231.7605 -65.8290 8.1722 29024.3026 -65.8290 8.1722
ENERGY: 900000 1.6992 8.6636 3.2859 0.0000 -11201.6503 1550.9016 0.0000 0.0000 1577.5763 -8059.5237 269.2919 -9637.1000 -8056.5657 269.6990 -82.0775 -72.3110 29608.6712 2.1887 2.2589
TCL: Running 1000000 steps at 300 kelvin.
TCL: Setting parameter langevinTemp to 300
TCL: Running for 1000000 steps
ETITLE: TS BOND ANGLE DIHED IMPRP ELECT VDW BOUNDARY MISC KINETIC TOTAL TEMP POTENTIAL TOTAL3 TEMPAVG PRESSURE GPRESSURE VOLUME PRESSAVG GPRESSAVG
ENERGY: 900000 1.6992 8.6636 3.2859 0.0000 -11201.6503 1550.9016 0.0000 0.0000 1576.7640 -8060.3360 269.1532 -9637.1000 -8057.3374 269.1532 -148.5083 -74.7657 29608.6712 -148.5083 -74.7657
ENERGY: 1100000 2.0584 6.7555 3.0003 0.0000 -10510.8902 1332.4286 0.0000 0.0000 1782.7451 -7383.9023 304.3142 -9166.6474 -7378.2241 300.2621 -894.3738 -828.6206 30638.7796 3.5450 3.4861
ENERGY: 1300000 0.8998 12.7640 2.0174 0.0000 -10599.8303 1408.5489 0.0000 0.0000 1793.8587 -7381.7416 306.2112 -9175.6002 -7374.8775 300.4248 -415.6905 -328.2480 31088.1466 2.7952 2.7857
ENERGY: 1500000 1.8681 8.6323 1.6932 0.0000 -10467.5204 1340.3763 0.0000 0.0000 1767.0898 -7347.8607 301.6418 -9114.9504 -7343.7910 300.4805 -563.5815 -475.1378 30469.8794 1.8175 1.8706
ENERGY: 1700000 1.8479 10.5307 2.4255 0.0000 -10770.0274 1479.8107 0.0000 0.0000 1821.7800 -7453.6326 310.9774 -9275.4126 -7451.0396 299.9416 327.3904 403.7318 30117.3581 2.1556 2.3080
ENERGY: 1900000 2.0884 11.6739 4.1264 0.0000 -10699.5842 1430.1625 0.0000 0.0000 1746.9723 -7504.5608 298.2077 -9251.5331 -7501.3324 300.6177 -53.9425 -47.6517 30144.9381 2.5358 2.6819
TCL: Exiting due to exit command.
