Info: SIMULATION PARAMETERS:
Info: TIMESTEP               2
Info: NUMBER OF STEPS        0
Info: STEPS PER CYCLE        10
Info: PERIODIC CELL BASIS 1  35.89 0 0
Info: PERIODIC CELL BASIS 2  0 33.542 0
Info: PERIODIC CELL BASIS 3  0 0 36.583
Info: PERIODIC CELL CENTER   0 0 0
Info: WRAPPING WATERS AROUND PERIODIC BOUNDARIES ON OUTPUT.
Info: WRAPPING ALL CLUSTERS AROUND PERIODIC BOUNDARIES ON OUTPUT.
Info: FIRST LDB TIMESTEP     50
Info: LAST LDB TIMESTEP     -1
Info: HOM BACKGROUND SCALING 1
Info: PME BACKGROUND SCALING 1
Info: MIN ATOMS PER PATCH    40
Info: EMPTY PATCH LOAD       40 ATOMS
Info: INITIAL TEMPERATURE    300
Info: CENTER OF MASS MOVING INITIALLY? NO
Info: DIELECTRIC             1
Info: EXCLUDE                SCALED ONE-FOUR
Info: 1-4 ELECTROSTATICS SCALED BY 0.833333
Info: MODIFIED 1-4 VDW PARAMETERS WILL BE USED
Info: DCD FILENAME           mobley_3053621_equil.dcd
Info: DCD FREQUENCY          100000
Info: DCD FIRST STEP         100000
Info: DCD FILE WILL CONTAIN UNIT CELL DATA
Info: XST FILENAME           mobley_3053621_equil.xst
Info: XST FREQUENCY          100000
Info: NO VELOCITY DCD OUTPUT
Info: NO FORCE DCD OUTPUT
Info: OUTPUT FILENAME        mobley_3053621_equil
Info: BINARY OUTPUT FILES WILL BE USED
Info: RESTART FILENAME       mobley_3053621_equil.restart
Info: RESTART FREQUENCY      100000
Info: BINARY RESTART FILES WILL BE USED
Info: CUTOFF                 9
Info: PAIRLIST DISTANCE      11
Info: PAIRLIST SHRINK RATE   0.01
Info: PAIRLIST GROW RATE     0.01
Info: PAIRLIST TRIGGER       0.3
Info: PAIRLISTS PER CYCLE    2
Info: PAIRLISTS ENABLED
Info: MARGIN                 8
Info: HYDROGEN GROUP CUTOFF  2.5
Info: PATCH DIMENSION        21.5
Info: ENERGY OUTPUT STEPS    100000
Info: ENERGY EVALUATION STEPS    100000
Info: OUTPUT ENERGY PRECISION 4
Info: CROSSTERM ENERGY INCLUDED IN DIHEDRAL
Info: TIMING OUTPUT STEPS    1000000
Info: PRESSURE OUTPUT STEPS  100000
Info: LANGEVIN DYNAMICS ACTIVE
Info: LANGEVIN TEMPERATURE   30
Info: LANGEVIN USING BBK INTEGRATOR
Info: LANGEVIN DAMPING COEFFICIENT IS 1 INVERSE PS
Info: LANGEVIN DYNAMICS APPLIED TO HYDROGENS
Info: LANGEVIN PISTON PRESSURE CONTROL ACTIVE
Info:        TARGET PRESSURE IS 1.01325 BAR
Info:     OSCILLATION PERIOD IS 50 FS
Info:             DECAY TIME IS 25 FS
Info:     PISTON TEMPERATURE IS 300 K
Info:       PRESSURE CONTROL IS GROUP-BASED
Info:    INITIAL STRAIN RATE IS 0 0 0
Info:       CELL FLUCTUATION IS ISOTROPIC
Info: PARTICLE MESH EWALD (PME) ACTIVE
Info: PME TOLERANCE               1e-06
Info: PME EWALD COEFFICIENT       0.348832
Info: PME INTERPOLATION ORDER     4
Info: PME GRID DIMENSIONS         36 36 40
Info: PME MAXIMUM GRID SPACING    1
Info: FULL ELECTROSTATIC EVALUATION FREQUENCY      2
Info: USING VERLET I (r-RESPA) MTS SCHEME.
Info: C1 SPLITTING OF LONG RANGE ELECTROSTATICS
Info: PLACING ATOMS IN PATCHES BY HYDROGEN GROUPS
Info: RIGID BONDS TO HYDROGEN : ALL
Info:         ERROR TOLERANCE : 1e-08
Info:          MAX ITERATIONS : 100
Info: RIGID WATER USING SETTLE ALGORITHM
Info: RANDOM NUMBER SEED     1742863572
Info: USE HYDROGEN BONDS?    NO
Info: Using AMBER format force field!
Info: AMBER PARM FILE        mobley_3053621.prmtop
Info: COORDINATE PDB         mobley_3053621.pdb
Info: Exclusions will be read from PARM file!
Info: SCNB (VDW SCALING)     2
Info: USING ARITHMETIC MEAN TO COMBINE L-J SIGMA PARAMETERS
Info: BINARY COORDINATES     mobley_3053621_min.coor
Info: SUMMARY OF PARAMETERS:
Info: 4 BONDS
Info: 2 ANGLES
Info:   2 HARMONIC
Info:   0 COSINE-BASED
Info: 2 DIHEDRAL
Info: 0 IMPROPER
Info: 0 CROSSTERM
Info: 0 VDW
Info: 10 VDW_PAIRS
Info: 0 NBTHOLE_PAIRS
Info: STRUCTURE SUMMARY:
Info: 2964 ATOMS
Info: 2964 BONDS
Info: 18 ANGLES
Info: 30 DIHEDRALS
Info: 0 IMPROPERS
Info: 0 CROSSTERMS
Info: 3003 EXCLUSIONS
Info: 2958 RIGID BONDS
Info: 5934 DEGREES OF FREEDOM
Info: 990 HYDROGEN GROUPS
Info: 3 ATOMS IN LARGEST HYDROGEN GROUP
Info: 990 MIGRATION GROUPS
Info: 3 ATOMS IN LARGEST MIGRATION GROUP
Info: TOTAL MASS = 17805.9 amu
Info: TOTAL CHARGE = -0.000100002 e
Info: MASS DENSITY = 0.671398 g/cm^3
Info: ATOM DENSITY = 0.0673033 atoms/A^3
Info: ADDED 0 IMPLICIT EXCLUSIONS
Info: NONBONDED TABLE R-SQUARED SPACING: 0.0625
Info: NONBONDED TABLE SIZE: 705 POINTS
Info: REMOVING COM VELOCITY 0.123787 -0.149727 -0.00711438
TCL: Running for 100000 steps
ETITLE: TS BOND ANGLE DIHED IMPRP ELECT VDW BOUNDARY MISC KINETIC TOTAL TEMP POTENTIAL TOTAL3 TEMPAVG PRESSURE GPRESSURE VOLUME PRESSAVG GPRESSAVG
ENERGY: 0 0.1205 0.0105 0.0154 0.0000 -13726.1377 2432.8457 0.0000 0.0000 1742.6068 -9550.5387 295.5577 -11293.1456 -9550.1982 295.5577 508.9963 540.6947 44039.4341 508.9963 540.6947
ENERGY: 100000 0.0843 0.1274 0.2911 0.0000 -14347.0888 2505.7315 0.0000 0.0000 172.1712 -11668.6834 29.2014 -11840.8545 -11668.2621 30.8925 80.0445 146.2473 28731.7658 3.5146 3.5107
TCL: Running 100000 steps at 60 kelvin.
TCL: Setting parameter langevinTemp to 60
TCL: Running for 100000 steps
ETITLE: TS BOND ANGLE DIHED IMPRP ELECT VDW BOUNDARY MISC KINETIC TOTAL TEMP POTENTIAL TOTAL3 TEMPAVG PRESSURE GPRESSURE VOLUME PRESSAVG GPRESSAVG
ENERGY: 100000 0.0843 0.1274 0.2911 0.0000 -14347.0888 2505.7315 0.0000 0.0000 172.0860 -11668.7685 29.1869 -11840.8545 -11668.3372 29.1869 94.9171 146.1238 28731.7658 94.9171 146.1238
ENERGY: 200000 1.5451 0.5886 0.5559 0.0000 -14153.5893 2408.8938 0.0000 0.0000 348.9219 -11393.0840 59.1795 -11742.0059 -11392.0011 59.8665 -670.9134 -615.5776 29014.2556 3.2487 3.2930
TCL: Running 100000 steps at 90 kelvin.
TCL: Setting parameter langevinTemp to 90
TCL: Running for 100000 steps
ETITLE: TS BOND ANGLE DIHED IMPRP ELECT VDW BOUNDARY MISC KINETIC TOTAL TEMP POTENTIAL TOTAL3 TEMPAVG PRESSURE GPRESSURE VOLUME PRESSAVG GPRESSAVG
ENERGY: 200000 1.5451 0.5886 0.5559 0.0000 -14153.5893 2408.8938 0.0000 0.0000 348.7439 -11393.2620 59.1493 -11742.0059 -11392.6517 59.1493 -665.6324 -615.2708 29014.2556 -665.6324 -615.2708
ENERGY: 300000 0.6021 1.2913 0.8776 0.0000 -14110.7463 2472.4347 0.0000 0.0000 503.8976 -11131.6431 85.4644 -11635.5406 -11130.3864 89.8029 578.9643 639.9088 28630.4996 5.2933 5.2861
TCL: Running 100000 steps at 120 kelvin.
TCL: Setting parameter langevinTemp to 120
TCL: Running for 100000 steps
ETITLE: TS BOND ANGLE DIHED IMPRP ELECT VDW BOUNDARY MISC KINETIC TOTAL TEMP POTENTIAL TOTAL3 TEMPAVG PRESSURE GPRESSURE VOLUME PRESSAVG GPRESSAVG
ENERGY: 300000 0.6021 1.2913 0.8776 0.0000 -14110.7463 2472.4347 0.0000 0.0000 503.6256 -11131.9151 85.4182 -11635.5406 -11130.9456 85.4182 586.2066 639.5152 28630.4996 586.2066 639.5152
ENERGY: 400000 0.9380 0.6266 1.0022 0.0000 -13865.8049 2324.9624 0.0000 0.0000 697.4187 -10840.8571 118.2868 -11538.2758 -10839.3076 119.9339 -251.8621 -201.9851 28834.5190 3.9767 4.0757
TCL: Running 100000 steps at 150 kelvin.
TCL: Setting parameter langevinTemp to 150
TCL: Running for 100000 steps
ETITLE: TS BOND ANGLE DIHED IMPRP ELECT VDW BOUNDARY MISC KINETIC TOTAL TEMP POTENTIAL TOTAL3 TEMPAVG PRESSURE GPRESSURE VOLUME PRESSAVG GPRESSAVG
ENERGY: 400000 0.9380 0.6266 1.0022 0.0000 -13865.8049 2324.9624 0.0000 0.0000 697.0642 -10841.2115 118.2267 -11538.2758 -10839.8675 118.2267 -249.4131 -202.2713 28834.5190 -249.4131 -202.2713
ENERGY: 500000 0.7326 2.1354 1.8124 0.0000 -13723.5733 2395.0519 0.0000 0.0000 888.4129 -10435.4281 150.6807 -11323.8410 -10432.8608 150.1389 1169.7562 1183.9446 28838.2344 4.9384 4.9502
TCL: Running 100000 steps at 180 kelvin.
TCL: Setting parameter langevinTemp to 180
TCL: Running for 100000 steps
ETITLE: TS BOND ANGLE DIHED IMPRP ELECT VDW BOUNDARY MISC KINETIC TOTAL TEMP POTENTIAL TOTAL3 TEMPAVG PRESSURE GPRESSURE VOLUME PRESSAVG GPRESSAVG
ENERGY: 500000 0.7326 2.1354 1.8124 0.0000 -13723.5733 2395.0519 0.0000 0.0000 887.9694 -10435.8716 150.6055 -11323.8410 -10434.2095 150.6055 1136.4490 1184.1233 28838.2344 1136.4490 1184.1233
ENERGY: 600000 1.5128 0.4215 0.9177 0.0000 -13151.6574 2119.9858 0.0000 0.0000 1058.1899 -9970.6298 179.4760 -11028.8197 -9968.6621 180.1406 -368.7881 -258.6034 29248.5141 3.1146 3.1518
TCL: Running 100000 steps at 210 kelvin.
TCL: Setting parameter langevinTemp to 210
TCL: Running for 100000 steps
ETITLE: TS BOND ANGLE DIHED IMPRP ELECT VDW BOUNDARY MISC KINETIC TOTAL TEMP POTENTIAL TOTAL3 TEMPAVG PRESSURE GPRESSURE VOLUME PRESSAVG GPRESSAVG
ENERGY: 600000 1.5128 0.4215 0.9177 0.0000 -13151.6574 2119.9858 0.0000 0.0000 1057.6444 -9971.1753 179.3835 -11028.8197 -9968.8988 179.3835 -330.5342 -259.0299 29248.5141 -330.5342 -259.0299
ENERGY: 700000 0.8708 1.6749 0.5003 0.0000 -12530.6488 1987.1263 0.0000 0.0000 1231.7009 -9308.7756 208.9046 -10540.4765 -9304.8308 210.1468 554.2243 664.9346 28968.1680 3.4100 3.2071
TCL: Running 100000 steps at 240 kelvin.
TCL: Setting parameter langevinTemp to 240
TCL: Running for 100000 steps
ETITLE: TS BOND ANGLE DIHED IMPRP ELECT VDW BOUNDARY MISC KINETIC TOTAL TEMP POTENTIAL TOTAL3 TEMPAVG PRESSURE GPRESSURE VOLUME PRESSAVG GPRESSAVG
ENERGY: 700000 0.8708 1.6749 0.5003 0.0000 -12530.6488 1987.1263 0.0000 0.0000 1231.0818 -9309.3947 208.7996 -10540.4765 -9307.2568 208.7996 577.1466 665.0371 28968.1680 577.1466 665.0371
ENERGY: 800000 1.6447 1.5763 3.6903 0.0000 -11838.2503 1684.7346 0.0000 0.0000 1428.9352 -8717.6693 242.3569 -10146.6045 -8714.4091 240.2359 -467.6125 -392.6056 29238.9826 4.4193 4.2938
TCL: Running 100000 steps at 270 kelvin.
TCL: Setting parameter langevinTemp to 270
TCL: Running for 100000 steps
ETITLE: TS BOND ANGLE DIHED IMPRP ELECT VDW BOUNDARY MISC KINETIC TOTAL TEMP POTENTIAL TOTAL3 TEMPAVG PRESSURE GPRESSURE VOLUME PRESSAVG GPRESSAVG
ENERGY: 800000 1.6447 1.5763 3.6903 0.0000 -11838.2503 1684.7346 0.0000 0.0000 1428.2328 -8718.3717 242.2378 -10146.6045 -8715.4419 242.2378 -486.1411 -392.4346 29238.9826 -486.1411 -392.4346
ENERGY: 900000 3.0528 1.7794 3.1430 0.0000 -11278.2433 1539.6977 0.0000 0.0000 1601.8866 -8128.6839 271.6906 -9730.5705 -8124.9402 269.9795 -452.5672 -338.9679 29550.0559 2.4741 2.4676
TCL: Running 1000000 steps at 300 kelvin.
TCL: Setting parameter langevinTemp to 300
TCL: Running for 1000000 steps
ETITLE: TS BOND ANGLE DIHED IMPRP ELECT VDW BOUNDARY MISC KINETIC TOTAL TEMP POTENTIAL TOTAL3 TEMPAVG PRESSURE GPRESSURE VOLUME PRESSAVG GPRESSAVG
ENERGY: 900000 3.0528 1.7794 3.1430 0.0000 -11278.2433 1539.6977 0.0000 0.0000 1601.1099 -8129.4606 271.5589 -9730.5705 -8127.5534 271.5589 -436.8401 -338.5449 29550.0559 -436.8401 -338.5449
ENERGY: 1100000 0.7508 0.7847 4.5246 0.0000 -10672.5487 1347.0546 0.0000 0.0000 1726.9050 -7592.5289 292.8946 -9319.4340 -7588.5797 299.6737 -659.1242 -610.9017 30291.2360 3.6228 3.4646
ENERGY: 1300000 1.2768 1.6717 2.8657 0.0000 -10689.5190 1387.2197 0.0000 0.0000 1788.0270 -7508.4581 303.2612 -9296.4851 -7505.2956 299.3418 -383.9226 -327.2844 30568.5565 2.1980 2.3083
ENERGY: 1500000 1.0928 3.8390 1.3340 0.0000 -10778.0327 1448.2951 0.0000 0.0000 1786.9247 -7536.5470 303.0743 -9323.4718 -7533.5652 299.9238 54.6329 174.5468 30386.1201 2.1091 1.8811
ENERGY: 1700000 0.8026 2.4238 1.6700 0.0000 -10724.5897 1451.6154 0.0000 0.0000 1764.5690 -7503.5089 299.2826 -9268.0779 -7502.3655 299.9865 -68.8025 17.8399 30770.0134 2.3230 2.4775
ENERGY: 1900000 1.5525 3.9944 2.5431 0.0000 -10701.2231 1415.7855 0.0000 0.0000 1717.9539 -7559.3937 291.3764 -9277.3476 -7553.0114 300.4898 -335.8019 -260.6974 30536.2826 3.1344 3.2859
TCL: Exiting due to exit command.
