Info: SIMULATION PARAMETERS:
Info: TIMESTEP               2
Info: NUMBER OF STEPS        0
Info: STEPS PER CYCLE        10
Info: PERIODIC CELL BASIS 1  36.281 0 0
Info: PERIODIC CELL BASIS 2  0 34.26 0
Info: PERIODIC CELL BASIS 3  0 0 36.199
Info: PERIODIC CELL CENTER   0 0 0
Info: WRAPPING WATERS AROUND PERIODIC BOUNDARIES ON OUTPUT.
Info: WRAPPING ALL CLUSTERS AROUND PERIODIC BOUNDARIES ON OUTPUT.
Info: FIRST LDB TIMESTEP     50
Info: LAST LDB TIMESTEP     -1
Info: HOM BACKGROUND SCALING 1
Info: PME BACKGROUND SCALING 1
Info: MIN ATOMS PER PATCH    40
Info: EMPTY PATCH LOAD       40 ATOMS
Info: INITIAL TEMPERATURE    300
Info: CENTER OF MASS MOVING INITIALLY? NO
Info: DIELECTRIC             1
Info: EXCLUDE                SCALED ONE-FOUR
Info: 1-4 ELECTROSTATICS SCALED BY 0.833333
Info: MODIFIED 1-4 VDW PARAMETERS WILL BE USED
Info: DCD FILENAME           mobley_7066554_equil.dcd
Info: DCD FREQUENCY          100000
Info: DCD FIRST STEP         100000
Info: DCD FILE WILL CONTAIN UNIT CELL DATA
Info: XST FILENAME           mobley_7066554_equil.xst
Info: XST FREQUENCY          100000
Info: NO VELOCITY DCD OUTPUT
Info: NO FORCE DCD OUTPUT
Info: OUTPUT FILENAME        mobley_7066554_equil
Info: BINARY OUTPUT FILES WILL BE USED
Info: RESTART FILENAME       mobley_7066554_equil.restart
Info: RESTART FREQUENCY      100000
Info: BINARY RESTART FILES WILL BE USED
Info: CUTOFF                 9
Info: PAIRLIST DISTANCE      11
Info: PAIRLIST SHRINK RATE   0.01
Info: PAIRLIST GROW RATE     0.01
Info: PAIRLIST TRIGGER       0.3
Info: PAIRLISTS PER CYCLE    2
Info: PAIRLISTS ENABLED
Info: MARGIN                 8
Info: HYDROGEN GROUP CUTOFF  2.5
Info: PATCH DIMENSION        21.5
Info: ENERGY OUTPUT STEPS    100000
Info: ENERGY EVALUATION STEPS    100000
Info: OUTPUT ENERGY PRECISION 4
Info: CROSSTERM ENERGY INCLUDED IN DIHEDRAL
Info: TIMING OUTPUT STEPS    1000000
Info: PRESSURE OUTPUT STEPS  100000
Info: LANGEVIN DYNAMICS ACTIVE
Info: LANGEVIN TEMPERATURE   30
Info: LANGEVIN USING BBK INTEGRATOR
Info: LANGEVIN DAMPING COEFFICIENT IS 1 INVERSE PS
Info: LANGEVIN DYNAMICS APPLIED TO HYDROGENS
Info: LANGEVIN PISTON PRESSURE CONTROL ACTIVE
Info:        TARGET PRESSURE IS 1.01325 BAR
Info:     OSCILLATION PERIOD IS 50 FS
Info:             DECAY TIME IS 25 FS
Info:     PISTON TEMPERATURE IS 300 K
Info:       PRESSURE CONTROL IS GROUP-BASED
Info:    INITIAL STRAIN RATE IS 0 0 0
Info:       CELL FLUCTUATION IS ISOTROPIC
Info: PARTICLE MESH EWALD (PME) ACTIVE
Info: PME TOLERANCE               1e-06
Info: PME EWALD COEFFICIENT       0.348832
Info: PME INTERPOLATION ORDER     4
Info: PME GRID DIMENSIONS         40 36 40
Info: PME MAXIMUM GRID SPACING    1
Info: FULL ELECTROSTATIC EVALUATION FREQUENCY      2
Info: USING VERLET I (r-RESPA) MTS SCHEME.
Info: C1 SPLITTING OF LONG RANGE ELECTROSTATICS
Info: PLACING ATOMS IN PATCHES BY HYDROGEN GROUPS
Info: RIGID BONDS TO HYDROGEN : ALL
Info:         ERROR TOLERANCE : 1e-08
Info:          MAX ITERATIONS : 100
Info: RIGID WATER USING SETTLE ALGORITHM
Info: RANDOM NUMBER SEED     1743208719
Info: USE HYDROGEN BONDS?    NO
Info: Using AMBER format force field!
Info: AMBER PARM FILE        mobley_7066554.prmtop
Info: COORDINATE PDB         mobley_7066554.pdb
Info: Exclusions will be read from PARM file!
Info: SCNB (VDW SCALING)     2
Info: USING ARITHMETIC MEAN TO COMBINE L-J SIGMA PARAMETERS
Info: BINARY COORDINATES     mobley_7066554_min.coor
Info: SUMMARY OF PARAMETERS:
Info: 7 BONDS
Info: 5 ANGLES
Info:   5 HARMONIC
Info:   0 COSINE-BASED
Info: 3 DIHEDRAL
Info: 0 IMPROPER
Info: 0 CROSSTERM
Info: 0 VDW
Info: 21 VDW_PAIRS
Info: 0 NBTHOLE_PAIRS
Info: STRUCTURE SUMMARY:
Info: 2989 ATOMS
Info: 2989 BONDS
Info: 19 ANGLES
Info: 32 DIHEDRALS
Info: 0 IMPROPERS
Info: 0 CROSSTERMS
Info: 3031 EXCLUSIONS
Info: 2981 RIGID BONDS
Info: 5986 DEGREES OF FREEDOM
Info: 1000 HYDROGEN GROUPS
Info: 3 ATOMS IN LARGEST HYDROGEN GROUP
Info: 1000 MIGRATION GROUPS
Info: 3 ATOMS IN LARGEST MIGRATION GROUP
Info: TOTAL MASS = 18000.4 amu
Info: TOTAL CHARGE = -0.000200016 e
Info: MASS DENSITY = 0.664322 g/cm^3
Info: ATOM DENSITY = 0.0664298 atoms/A^3
Info: ADDED 0 IMPLICIT EXCLUSIONS
Info: NONBONDED TABLE R-SQUARED SPACING: 0.0625
Info: NONBONDED TABLE SIZE: 705 POINTS
Info: REMOVING COM VELOCITY 0.0502691 0.0723217 0.0789462
TCL: Running for 100000 steps
ETITLE: TS BOND ANGLE DIHED IMPRP ELECT VDW BOUNDARY MISC KINETIC TOTAL TEMP POTENTIAL TOTAL3 TEMPAVG PRESSURE GPRESSURE VOLUME PRESSAVG GPRESSAVG
ENERGY: 0 0.1182 0.0446 0.2097 0.0000 -13852.8876 2423.4411 0.0000 0.0000 1771.5327 -9657.5413 297.8536 -11429.0740 -9657.2104 297.8536 326.5135 355.9928 44994.8886 326.5135 355.9928
ENERGY: 100000 0.2869 0.1909 0.1779 0.0000 -14399.6542 2526.1227 0.0000 0.0000 182.2274 -11690.6485 30.6385 -11872.8758 -11690.0842 30.9057 120.2548 143.6112 29706.3617 3.8357 3.7781
TCL: Running 100000 steps at 60 kelvin.
TCL: Setting parameter langevinTemp to 60
TCL: Running for 100000 steps
ETITLE: TS BOND ANGLE DIHED IMPRP ELECT VDW BOUNDARY MISC KINETIC TOTAL TEMP POTENTIAL TOTAL3 TEMPAVG PRESSURE GPRESSURE VOLUME PRESSAVG GPRESSAVG
ENERGY: 100000 0.2869 0.1909 0.1779 0.0000 -14399.6542 2526.1227 0.0000 0.0000 182.1388 -11690.7371 30.6236 -11872.8758 -11690.2982 30.6236 96.4190 143.6410 29706.3617 96.4190 143.6410
ENERGY: 200000 0.3554 0.9668 0.7089 0.0000 -14269.1028 2396.3663 0.0000 0.0000 372.2593 -11498.4460 62.5892 -11870.7054 -11497.0702 59.9467 -606.1030 -555.2214 28969.2627 4.0495 4.1293
TCL: Running 100000 steps at 90 kelvin.
TCL: Setting parameter langevinTemp to 90
TCL: Running for 100000 steps
ETITLE: TS BOND ANGLE DIHED IMPRP ELECT VDW BOUNDARY MISC KINETIC TOTAL TEMP POTENTIAL TOTAL3 TEMPAVG PRESSURE GPRESSURE VOLUME PRESSAVG GPRESSAVG
ENERGY: 200000 0.3554 0.9668 0.7089 0.0000 -14269.1028 2396.3663 0.0000 0.0000 372.0859 -11498.6195 62.5600 -11870.7054 -11497.7599 62.5600 -615.9820 -555.0576 28969.2627 -615.9820 -555.0576
ENERGY: 300000 1.4771 0.7873 0.9322 0.0000 -14240.1470 2497.8566 0.0000 0.0000 529.9103 -11209.1835 89.0956 -11739.0938 -11207.7040 89.8519 800.5696 850.0481 28799.7169 2.4193 2.4299
TCL: Running 100000 steps at 120 kelvin.
TCL: Setting parameter langevinTemp to 120
TCL: Running for 100000 steps
ETITLE: TS BOND ANGLE DIHED IMPRP ELECT VDW BOUNDARY MISC KINETIC TOTAL TEMP POTENTIAL TOTAL3 TEMPAVG PRESSURE GPRESSURE VOLUME PRESSAVG GPRESSAVG
ENERGY: 300000 1.4771 0.7873 0.9322 0.0000 -14240.1470 2497.8566 0.0000 0.0000 529.6390 -11209.4548 89.0499 -11739.0938 -11208.5462 89.0499 793.8062 849.7253 28799.7169 793.8062 849.7253
ENERGY: 400000 0.6219 1.5574 0.7985 0.0000 -14032.1045 2400.0538 0.0000 0.0000 712.8225 -10916.2504 119.8492 -11629.0729 -10914.6890 119.8951 354.5379 354.6228 29009.3916 3.9996 3.9553
TCL: Running 100000 steps at 150 kelvin.
TCL: Setting parameter langevinTemp to 150
TCL: Running for 100000 steps
ETITLE: TS BOND ANGLE DIHED IMPRP ELECT VDW BOUNDARY MISC KINETIC TOTAL TEMP POTENTIAL TOTAL3 TEMPAVG PRESSURE GPRESSURE VOLUME PRESSAVG GPRESSAVG
ENERGY: 400000 0.6219 1.5574 0.7985 0.0000 -14032.1045 2400.0538 0.0000 0.0000 712.4591 -10916.6138 119.7881 -11629.0729 -10915.1735 119.7881 305.7494 354.1099 29009.3916 305.7494 354.1099
ENERGY: 500000 2.0855 0.7593 1.6792 0.0000 -13607.2787 2117.2631 0.0000 0.0000 900.9975 -10584.4940 151.4877 -11485.4915 -10581.9514 149.8446 -1706.9859 -1631.9537 29579.1407 5.8632 5.7493
TCL: Running 100000 steps at 180 kelvin.
TCL: Setting parameter langevinTemp to 180
TCL: Running for 100000 steps
ETITLE: TS BOND ANGLE DIHED IMPRP ELECT VDW BOUNDARY MISC KINETIC TOTAL TEMP POTENTIAL TOTAL3 TEMPAVG PRESSURE GPRESSURE VOLUME PRESSAVG GPRESSAVG
ENERGY: 500000 2.0855 0.7593 1.6792 0.0000 -13607.2787 2117.2631 0.0000 0.0000 900.5416 -10584.9499 151.4110 -11485.4915 -10582.8427 151.4110 -1670.0929 -1632.6460 29579.1407 -1670.0929 -1632.6460
ENERGY: 600000 1.8486 0.7419 2.2232 0.0000 -13233.3051 2100.5305 0.0000 0.0000 1079.1413 -10048.8197 181.4396 -11127.9610 -10042.8798 180.0071 -498.0818 -465.0061 29598.1194 4.4690 4.4057
TCL: Running 100000 steps at 210 kelvin.
TCL: Setting parameter langevinTemp to 210
TCL: Running for 100000 steps
ETITLE: TS BOND ANGLE DIHED IMPRP ELECT VDW BOUNDARY MISC KINETIC TOTAL TEMP POTENTIAL TOTAL3 TEMPAVG PRESSURE GPRESSURE VOLUME PRESSAVG GPRESSAVG
ENERGY: 600000 1.8486 0.7419 2.2232 0.0000 -13233.3051 2100.5305 0.0000 0.0000 1078.6207 -10049.3403 181.3520 -11127.9610 -10047.4539 181.3520 -518.0876 -462.3875 29598.1194 -518.0876 -462.3875
ENERGY: 700000 1.4040 2.1560 1.7136 0.0000 -12757.1145 2087.9548 0.0000 0.0000 1265.2424 -9398.6438 212.7293 -10663.8861 -9396.0443 210.6541 1487.5454 1562.4740 28741.0378 2.6997 2.8942
TCL: Running 100000 steps at 240 kelvin.
TCL: Setting parameter langevinTemp to 240
TCL: Running for 100000 steps
ETITLE: TS BOND ANGLE DIHED IMPRP ELECT VDW BOUNDARY MISC KINETIC TOTAL TEMP POTENTIAL TOTAL3 TEMPAVG PRESSURE GPRESSURE VOLUME PRESSAVG GPRESSAVG
ENERGY: 700000 1.4040 2.1560 1.7136 0.0000 -12757.1145 2087.9548 0.0000 0.0000 1264.6273 -9399.2588 212.6259 -10663.8861 -9396.9325 212.6259 1463.1163 1560.6282 28741.0378 1463.1163 1560.6282
ENERGY: 800000 1.8157 1.6081 1.6708 0.0000 -11962.4137 1705.4846 0.0000 0.0000 1448.3383 -8803.4963 243.5139 -10251.8346 -8800.7704 239.7467 -529.8837 -412.8358 29502.9452 5.0182 5.0753
TCL: Running 100000 steps at 270 kelvin.
TCL: Setting parameter langevinTemp to 270
TCL: Running for 100000 steps
ETITLE: TS BOND ANGLE DIHED IMPRP ELECT VDW BOUNDARY MISC KINETIC TOTAL TEMP POTENTIAL TOTAL3 TEMPAVG PRESSURE GPRESSURE VOLUME PRESSAVG GPRESSAVG
ENERGY: 800000 1.8157 1.6081 1.6708 0.0000 -11962.4137 1705.4846 0.0000 0.0000 1447.6583 -8804.1763 243.3995 -10251.8346 -8801.5772 243.3995 -499.9308 -413.3108 29502.9452 -499.9308 -413.3108
ENERGY: 900000 2.1136 2.5939 3.0512 0.0000 -11374.9080 1563.0415 0.0000 0.0000 1552.3396 -8251.7682 260.9999 -9804.1078 -8249.5361 269.6282 -268.3948 -218.2478 30110.0480 4.9546 4.9061
TCL: Running 1000000 steps at 300 kelvin.
TCL: Setting parameter langevinTemp to 300
TCL: Running for 1000000 steps
ETITLE: TS BOND ANGLE DIHED IMPRP ELECT VDW BOUNDARY MISC KINETIC TOTAL TEMP POTENTIAL TOTAL3 TEMPAVG PRESSURE GPRESSURE VOLUME PRESSAVG GPRESSAVG
ENERGY: 900000 2.1136 2.5939 3.0512 0.0000 -11374.9080 1563.0415 0.0000 0.0000 1551.5326 -8252.5752 260.8643 -9804.1078 -8249.5699 260.8643 -306.0986 -220.9048 30110.0480 -306.0986 -220.9048
ENERGY: 1100000 2.2640 1.9560 2.1316 0.0000 -10741.4098 1430.5005 0.0000 0.0000 1835.9500 -7468.6077 308.6843 -9304.5577 -7465.5329 300.1225 19.1853 110.4262 30947.3518 3.6073 3.6400
ENERGY: 1300000 2.5725 1.5318 5.4176 0.0000 -10727.8951 1323.1373 0.0000 0.0000 1719.3575 -7675.8784 289.0812 -9395.2359 -7674.0690 300.3726 -938.5732 -880.6464 30525.0195 2.5341 2.2312
ENERGY: 1500000 2.2669 1.3556 4.3538 0.0000 -10832.3341 1455.2342 0.0000 0.0000 1837.6289 -7531.4947 308.9666 -9369.1236 -7526.8327 300.2645 35.4666 136.7646 30956.6964 1.6899 1.5259
ENERGY: 1700000 2.4963 4.6828 5.4036 0.0000 -10786.3336 1422.9529 0.0000 0.0000 1741.0860 -7609.7120 292.7345 -9350.7980 -7608.5321 300.3047 -32.2195 55.1256 30314.6569 4.1166 4.1048
ENERGY: 1900000 1.5064 4.0625 1.2309 0.0000 -10929.9353 1502.7965 0.0000 0.0000 1804.8515 -7615.4874 303.4556 -9420.3389 -7610.3003 299.5688 589.7029 655.0504 30510.4767 2.6183 2.6174
TCL: Exiting due to exit command.
