Info: SIMULATION PARAMETERS:
Info: TIMESTEP               2
Info: NUMBER OF STEPS        0
Info: STEPS PER CYCLE        10
Info: PERIODIC CELL BASIS 1  36.005 0 0
Info: PERIODIC CELL BASIS 2  0 35.267 0
Info: PERIODIC CELL BASIS 3  0 0 35.644
Info: PERIODIC CELL CENTER   0 0 0
Info: WRAPPING WATERS AROUND PERIODIC BOUNDARIES ON OUTPUT.
Info: WRAPPING ALL CLUSTERS AROUND PERIODIC BOUNDARIES ON OUTPUT.
Info: FIRST LDB TIMESTEP     50
Info: LAST LDB TIMESTEP     -1
Info: HOM BACKGROUND SCALING 1
Info: PME BACKGROUND SCALING 1
Info: MIN ATOMS PER PATCH    40
Info: EMPTY PATCH LOAD       40 ATOMS
Info: INITIAL TEMPERATURE    300
Info: CENTER OF MASS MOVING INITIALLY? NO
Info: DIELECTRIC             1
Info: EXCLUDE                SCALED ONE-FOUR
Info: 1-4 ELECTROSTATICS SCALED BY 0.833333
Info: MODIFIED 1-4 VDW PARAMETERS WILL BE USED
Info: DCD FILENAME           mobley_9979854_equil.dcd
Info: DCD FREQUENCY          100000
Info: DCD FIRST STEP         100000
Info: DCD FILE WILL CONTAIN UNIT CELL DATA
Info: XST FILENAME           mobley_9979854_equil.xst
Info: XST FREQUENCY          100000
Info: NO VELOCITY DCD OUTPUT
Info: NO FORCE DCD OUTPUT
Info: OUTPUT FILENAME        mobley_9979854_equil
Info: BINARY OUTPUT FILES WILL BE USED
Info: RESTART FILENAME       mobley_9979854_equil.restart
Info: RESTART FREQUENCY      100000
Info: BINARY RESTART FILES WILL BE USED
Info: CUTOFF                 9
Info: PAIRLIST DISTANCE      11
Info: PAIRLIST SHRINK RATE   0.01
Info: PAIRLIST GROW RATE     0.01
Info: PAIRLIST TRIGGER       0.3
Info: PAIRLISTS PER CYCLE    2
Info: PAIRLISTS ENABLED
Info: MARGIN                 8
Info: HYDROGEN GROUP CUTOFF  2.5
Info: PATCH DIMENSION        21.5
Info: ENERGY OUTPUT STEPS    100000
Info: ENERGY EVALUATION STEPS    100000
Info: OUTPUT ENERGY PRECISION 4
Info: CROSSTERM ENERGY INCLUDED IN DIHEDRAL
Info: TIMING OUTPUT STEPS    1000000
Info: PRESSURE OUTPUT STEPS  100000
Info: LANGEVIN DYNAMICS ACTIVE
Info: LANGEVIN TEMPERATURE   30
Info: LANGEVIN USING BBK INTEGRATOR
Info: LANGEVIN DAMPING COEFFICIENT IS 1 INVERSE PS
Info: LANGEVIN DYNAMICS APPLIED TO HYDROGENS
Info: LANGEVIN PISTON PRESSURE CONTROL ACTIVE
Info:        TARGET PRESSURE IS 1.01325 BAR
Info:     OSCILLATION PERIOD IS 50 FS
Info:             DECAY TIME IS 25 FS
Info:     PISTON TEMPERATURE IS 300 K
Info:       PRESSURE CONTROL IS GROUP-BASED
Info:    INITIAL STRAIN RATE IS 0 0 0
Info:       CELL FLUCTUATION IS ISOTROPIC
Info: PARTICLE MESH EWALD (PME) ACTIVE
Info: PME TOLERANCE               1e-06
Info: PME EWALD COEFFICIENT       0.348832
Info: PME INTERPOLATION ORDER     4
Info: PME GRID DIMENSIONS         40 36 36
Info: PME MAXIMUM GRID SPACING    1
Info: FULL ELECTROSTATIC EVALUATION FREQUENCY      2
Info: USING VERLET I (r-RESPA) MTS SCHEME.
Info: C1 SPLITTING OF LONG RANGE ELECTROSTATICS
Info: PLACING ATOMS IN PATCHES BY HYDROGEN GROUPS
Info: RIGID BONDS TO HYDROGEN : ALL
Info:         ERROR TOLERANCE : 1e-08
Info:          MAX ITERATIONS : 100
Info: RIGID WATER USING SETTLE ALGORITHM
Info: RANDOM NUMBER SEED     1743208344
Info: USE HYDROGEN BONDS?    NO
Info: Using AMBER format force field!
Info: AMBER PARM FILE        mobley_9979854.prmtop
Info: COORDINATE PDB         mobley_9979854.pdb
Info: Exclusions will be read from PARM file!
Info: SCNB (VDW SCALING)     2
Info: USING ARITHMETIC MEAN TO COMBINE L-J SIGMA PARAMETERS
Info: BINARY COORDINATES     mobley_9979854_min.coor
Info: SUMMARY OF PARAMETERS:
Info: 8 BONDS
Info: 9 ANGLES
Info: 6 DIHEDRAL
Info: 0 IMPROPER
Info: 0 CROSSTERM
Info: 0 VDW
Info: 28 VDW_PAIRS
Info: 0 NBTHOLE_PAIRS
Info: STRUCTURE SUMMARY:
Info: 2985 ATOMS
Info: 2984 BONDS
Info: 19 ANGLES
Info: 29 DIHEDRALS
Info: 0 IMPROPERS
Info: 0 CROSSTERMS
Info: 3024 EXCLUSIONS
Info: 2978 RIGID BONDS
Info: 5977 DEGREES OF FREEDOM
Info: 998 HYDROGEN GROUPS
Info: 4 ATOMS IN LARGEST HYDROGEN GROUP
Info: 998 MIGRATION GROUPS
Info: 4 ATOMS IN LARGEST MIGRATION GROUP
Info: TOTAL MASS = 17967.9 amu
Info: TOTAL CHARGE = 0.000199988 e
Info: MASS DENSITY = 0.659234 g/cm^3
Info: ATOM DENSITY = 0.0659518 atoms/A^3
Info: ADDED 0 IMPLICIT EXCLUSIONS
Info: NONBONDED TABLE R-SQUARED SPACING: 0.0625
Info: NONBONDED TABLE SIZE: 705 POINTS
Info: REMOVING COM VELOCITY -0.0318148 0.0420185 0.154614
TCL: Running for 100000 steps
ETITLE: TS BOND ANGLE DIHED IMPRP ELECT VDW BOUNDARY MISC KINETIC TOTAL TEMP POTENTIAL TOTAL3 TEMPAVG PRESSURE GPRESSURE VOLUME PRESSAVG GPRESSAVG
ENERGY: 0 0.3394 1.0174 2.0125 0.0000 -13778.0572 2460.5574 0.0000 0.0000 1821.8703 -9492.2602 306.7783 -11314.1306 -9491.8977 306.7783 680.9117 712.7683 45260.3354 680.9117 712.7683
ENERGY: 100000 0.8529 1.0909 1.9880 0.0000 -14365.5305 2491.3779 0.0000 0.0000 171.0367 -11699.1841 28.8003 -11870.2207 -11698.8847 31.0084 -163.4448 -96.1345 29249.9022 2.4250 2.4106
TCL: Running 100000 steps at 60 kelvin.
TCL: Setting parameter langevinTemp to 60
TCL: Running for 100000 steps
ETITLE: TS BOND ANGLE DIHED IMPRP ELECT VDW BOUNDARY MISC KINETIC TOTAL TEMP POTENTIAL TOTAL3 TEMPAVG PRESSURE GPRESSURE VOLUME PRESSAVG GPRESSAVG
ENERGY: 100000 0.8529 1.0909 1.9880 0.0000 -14365.5305 2491.3779 0.0000 0.0000 170.9480 -11699.2727 28.7853 -11870.2207 -11698.9629 28.7853 -156.5639 -96.3358 29249.9022 -156.5639 -96.3358
ENERGY: 200000 0.4941 2.0691 1.8836 0.0000 -14385.0681 2582.6113 0.0000 0.0000 357.9310 -11440.0791 60.2707 -11798.0101 -11439.6620 60.0695 1020.1361 1066.2133 28910.5718 4.1091 4.1040
TCL: Running 100000 steps at 90 kelvin.
TCL: Setting parameter langevinTemp to 90
TCL: Running for 100000 steps
ETITLE: TS BOND ANGLE DIHED IMPRP ELECT VDW BOUNDARY MISC KINETIC TOTAL TEMP POTENTIAL TOTAL3 TEMPAVG PRESSURE GPRESSURE VOLUME PRESSAVG GPRESSAVG
ENERGY: 200000 0.4941 2.0691 1.8836 0.0000 -14385.0681 2582.6113 0.0000 0.0000 357.7510 -11440.2591 60.2404 -11798.0101 -11439.6210 60.2404 1019.0611 1066.2361 28910.5718 1019.0611 1066.2361
ENERGY: 300000 0.4487 1.9699 2.0605 0.0000 -14127.5983 2445.1019 0.0000 0.0000 521.5819 -11156.4353 87.8273 -11678.0172 -11154.7158 89.8234 509.0298 553.9341 28792.0328 4.2393 4.2834
TCL: Running 100000 steps at 120 kelvin.
TCL: Setting parameter langevinTemp to 120
TCL: Running for 100000 steps
ETITLE: TS BOND ANGLE DIHED IMPRP ELECT VDW BOUNDARY MISC KINETIC TOTAL TEMP POTENTIAL TOTAL3 TEMPAVG PRESSURE GPRESSURE VOLUME PRESSAVG GPRESSAVG
ENERGY: 300000 0.4487 1.9699 2.0605 0.0000 -14127.5983 2445.1019 0.0000 0.0000 521.3180 -11156.6993 87.7829 -11678.0172 -11155.7029 87.7829 517.2621 554.5777 28792.0328 517.2621 554.5777
ENERGY: 400000 1.1256 4.1042 1.8986 0.0000 -13931.0764 2389.0802 0.0000 0.0000 668.0282 -10866.8396 112.4869 -11534.8678 -10865.7195 120.0099 322.1807 318.0361 29140.8002 4.2622 4.1642
TCL: Running 100000 steps at 150 kelvin.
TCL: Setting parameter langevinTemp to 150
TCL: Running for 100000 steps
ETITLE: TS BOND ANGLE DIHED IMPRP ELECT VDW BOUNDARY MISC KINETIC TOTAL TEMP POTENTIAL TOTAL3 TEMPAVG PRESSURE GPRESSURE VOLUME PRESSAVG GPRESSAVG
ENERGY: 400000 1.1256 4.1042 1.8986 0.0000 -13931.0764 2389.0802 0.0000 0.0000 667.6783 -10867.1895 112.4280 -11534.8678 -10865.8721 112.4280 277.1421 318.3165 29140.8002 277.1421 318.3165
ENERGY: 500000 0.3980 2.7060 2.0708 0.0000 -13700.9736 2338.8337 0.0000 0.0000 904.4885 -10452.4767 152.3036 -11356.9652 -10451.4053 149.9739 777.6654 782.4826 29110.2134 4.6845 4.7205
TCL: Running 100000 steps at 180 kelvin.
TCL: Setting parameter langevinTemp to 180
TCL: Running for 100000 steps
ETITLE: TS BOND ANGLE DIHED IMPRP ELECT VDW BOUNDARY MISC KINETIC TOTAL TEMP POTENTIAL TOTAL3 TEMPAVG PRESSURE GPRESSURE VOLUME PRESSAVG GPRESSAVG
ENERGY: 500000 0.3980 2.7060 2.0708 0.0000 -13700.9736 2338.8337 0.0000 0.0000 904.0514 -10452.9138 152.2300 -11356.9652 -10451.1328 152.2300 742.3525 780.8893 29110.2134 742.3525 780.8893
ENERGY: 600000 0.6202 2.4504 1.8862 0.0000 -13185.3013 2110.7204 0.0000 0.0000 1059.4010 -10010.2232 178.3888 -11069.6242 -10007.6902 180.1446 -157.0102 -51.4073 29162.1490 4.2800 4.1138
TCL: Running 100000 steps at 210 kelvin.
TCL: Setting parameter langevinTemp to 210
TCL: Running for 100000 steps
ETITLE: TS BOND ANGLE DIHED IMPRP ELECT VDW BOUNDARY MISC KINETIC TOTAL TEMP POTENTIAL TOTAL3 TEMPAVG PRESSURE GPRESSURE VOLUME PRESSAVG GPRESSAVG
ENERGY: 600000 0.6202 2.4504 1.8862 0.0000 -13185.3013 2110.7204 0.0000 0.0000 1058.8766 -10010.7476 178.3005 -11069.6242 -10008.3615 178.3005 -111.2201 -52.2843 29162.1490 -111.2201 -52.2843
ENERGY: 700000 1.6038 3.8369 1.8363 0.0000 -12422.1644 1803.4345 0.0000 0.0000 1263.5288 -9347.9242 212.7611 -10611.4529 -9345.1966 209.3095 -1119.0401 -1031.1272 29323.6293 2.0961 2.1747
TCL: Running 100000 steps at 240 kelvin.
TCL: Setting parameter langevinTemp to 240
TCL: Running for 100000 steps
ETITLE: TS BOND ANGLE DIHED IMPRP ELECT VDW BOUNDARY MISC KINETIC TOTAL TEMP POTENTIAL TOTAL3 TEMPAVG PRESSURE GPRESSURE VOLUME PRESSAVG GPRESSAVG
ENERGY: 700000 1.6038 3.8369 1.8363 0.0000 -12422.1644 1803.4345 0.0000 0.0000 1262.8947 -9348.5583 212.6543 -10611.4529 -9345.6888 212.6543 -1107.1927 -1031.1915 29323.6293 -1107.1927 -1031.1915
ENERGY: 800000 2.6574 6.2349 2.3031 0.0000 -11976.0218 1761.8883 0.0000 0.0000 1377.8760 -8825.0622 232.0156 -10202.9382 -8822.1651 239.7559 -0.1627 56.7351 29460.4143 4.4729 4.4515
TCL: Running 100000 steps at 270 kelvin.
TCL: Setting parameter langevinTemp to 270
TCL: Running for 100000 steps
ETITLE: TS BOND ANGLE DIHED IMPRP ELECT VDW BOUNDARY MISC KINETIC TOTAL TEMP POTENTIAL TOTAL3 TEMPAVG PRESSURE GPRESSURE VOLUME PRESSAVG GPRESSAVG
ENERGY: 800000 2.6574 6.2349 2.3031 0.0000 -11976.0218 1761.8883 0.0000 0.0000 1377.1534 -8825.7847 231.8940 -10202.9382 -8823.2161 231.8940 -25.2127 55.6332 29460.4143 -25.2127 55.6332
ENERGY: 900000 1.7298 6.0002 1.9541 0.0000 -11375.1389 1643.4769 0.0000 0.0000 1600.4697 -8121.5081 269.4974 -9721.9778 -8117.1125 269.7109 640.2517 699.2106 29766.1440 3.1756 3.0572
TCL: Running 1000000 steps at 300 kelvin.
TCL: Setting parameter langevinTemp to 300
TCL: Running for 1000000 steps
ETITLE: TS BOND ANGLE DIHED IMPRP ELECT VDW BOUNDARY MISC KINETIC TOTAL TEMP POTENTIAL TOTAL3 TEMPAVG PRESSURE GPRESSURE VOLUME PRESSAVG GPRESSAVG
ENERGY: 900000 1.7298 6.0002 1.9541 0.0000 -11375.1389 1643.4769 0.0000 0.0000 1599.6536 -8122.3242 269.3600 -9721.9778 -8120.2240 269.3600 609.8989 698.7409 29766.1440 609.8989 698.7409
ENERGY: 1100000 0.8249 8.6256 2.5724 0.0000 -10947.1898 1586.9184 0.0000 0.0000 1766.3393 -7581.9093 297.4276 -9348.2485 -7577.7673 300.5097 982.9398 1023.4298 30963.9369 2.8179 2.8090
ENERGY: 1300000 2.9656 6.0814 2.5083 0.0000 -10870.4012 1522.4384 0.0000 0.0000 1803.2423 -7533.1652 303.6416 -9336.4075 -7528.8421 300.2833 295.9306 395.6510 30916.7316 2.1794 2.0595
ENERGY: 1500000 1.3319 4.9010 2.1541 0.0000 -10664.5338 1383.3214 0.0000 0.0000 1742.0124 -7530.8130 293.3313 -9272.8254 -7527.2230 300.8582 -350.6445 -269.0927 30614.7863 1.7421 1.5630
ENERGY: 1700000 1.5541 6.8117 1.9958 0.0000 -10810.3237 1452.6694 0.0000 0.0000 1800.5360 -7546.7567 303.1859 -9347.2927 -7541.6312 299.6179 -177.8503 -68.6305 30861.9196 3.1484 3.2505
ENERGY: 1900000 1.1703 4.5846 2.4394 0.0000 -10862.8626 1503.2369 0.0000 0.0000 1763.0709 -7588.3604 296.8772 -9351.4313 -7584.2116 300.4330 556.5055 602.0781 30530.3017 3.0591 3.1221
TCL: Exiting due to exit command.
