Info: SIMULATION PARAMETERS:
Info: TIMESTEP               2
Info: NUMBER OF STEPS        0
Info: STEPS PER CYCLE        10
Info: PERIODIC CELL BASIS 1  36.592 0 0
Info: PERIODIC CELL BASIS 2  0 35.847 0
Info: PERIODIC CELL BASIS 3  0 0 33.876
Info: PERIODIC CELL CENTER   0 0 0
Info: WRAPPING WATERS AROUND PERIODIC BOUNDARIES ON OUTPUT.
Info: WRAPPING ALL CLUSTERS AROUND PERIODIC BOUNDARIES ON OUTPUT.
Info: FIRST LDB TIMESTEP     50
Info: LAST LDB TIMESTEP     -1
Info: HOM BACKGROUND SCALING 1
Info: PME BACKGROUND SCALING 1
Info: MIN ATOMS PER PATCH    40
Info: EMPTY PATCH LOAD       40 ATOMS
Info: INITIAL TEMPERATURE    300
Info: CENTER OF MASS MOVING INITIALLY? NO
Info: DIELECTRIC             1
Info: EXCLUDE                SCALED ONE-FOUR
Info: 1-4 ELECTROSTATICS SCALED BY 0.833333
Info: MODIFIED 1-4 VDW PARAMETERS WILL BE USED
Info: DCD FILENAME           mobley_9729792_equil.dcd
Info: DCD FREQUENCY          100000
Info: DCD FIRST STEP         100000
Info: DCD FILE WILL CONTAIN UNIT CELL DATA
Info: XST FILENAME           mobley_9729792_equil.xst
Info: XST FREQUENCY          100000
Info: NO VELOCITY DCD OUTPUT
Info: NO FORCE DCD OUTPUT
Info: OUTPUT FILENAME        mobley_9729792_equil
Info: BINARY OUTPUT FILES WILL BE USED
Info: RESTART FILENAME       mobley_9729792_equil.restart
Info: RESTART FREQUENCY      100000
Info: BINARY RESTART FILES WILL BE USED
Info: CUTOFF                 9
Info: PAIRLIST DISTANCE      11
Info: PAIRLIST SHRINK RATE   0.01
Info: PAIRLIST GROW RATE     0.01
Info: PAIRLIST TRIGGER       0.3
Info: PAIRLISTS PER CYCLE    2
Info: PAIRLISTS ENABLED
Info: MARGIN                 8
Info: HYDROGEN GROUP CUTOFF  2.5
Info: PATCH DIMENSION        21.5
Info: ENERGY OUTPUT STEPS    100000
Info: ENERGY EVALUATION STEPS    100000
Info: OUTPUT ENERGY PRECISION 4
Info: CROSSTERM ENERGY INCLUDED IN DIHEDRAL
Info: TIMING OUTPUT STEPS    1000000
Info: PRESSURE OUTPUT STEPS  100000
Info: LANGEVIN DYNAMICS ACTIVE
Info: LANGEVIN TEMPERATURE   30
Info: LANGEVIN USING BBK INTEGRATOR
Info: LANGEVIN DAMPING COEFFICIENT IS 1 INVERSE PS
Info: LANGEVIN DYNAMICS APPLIED TO HYDROGENS
Info: LANGEVIN PISTON PRESSURE CONTROL ACTIVE
Info:        TARGET PRESSURE IS 1.01325 BAR
Info:     OSCILLATION PERIOD IS 50 FS
Info:             DECAY TIME IS 25 FS
Info:     PISTON TEMPERATURE IS 300 K
Info:       PRESSURE CONTROL IS GROUP-BASED
Info:    INITIAL STRAIN RATE IS 0 0 0
Info:       CELL FLUCTUATION IS ISOTROPIC
Info: PARTICLE MESH EWALD (PME) ACTIVE
Info: PME TOLERANCE               1e-06
Info: PME EWALD COEFFICIENT       0.348832
Info: PME INTERPOLATION ORDER     4
Info: PME GRID DIMENSIONS         40 36 36
Info: PME MAXIMUM GRID SPACING    1
Info: FULL ELECTROSTATIC EVALUATION FREQUENCY      2
Info: USING VERLET I (r-RESPA) MTS SCHEME.
Info: C1 SPLITTING OF LONG RANGE ELECTROSTATICS
Info: PLACING ATOMS IN PATCHES BY HYDROGEN GROUPS
Info: RIGID BONDS TO HYDROGEN : ALL
Info:         ERROR TOLERANCE : 1e-08
Info:          MAX ITERATIONS : 100
Info: RIGID WATER USING SETTLE ALGORITHM
Info: RANDOM NUMBER SEED     1743212301
Info: USE HYDROGEN BONDS?    NO
Info: Using AMBER format force field!
Info: AMBER PARM FILE        mobley_9729792.prmtop
Info: COORDINATE PDB         mobley_9729792.pdb
Info: Exclusions will be read from PARM file!
Info: SCNB (VDW SCALING)     2
Info: USING ARITHMETIC MEAN TO COMBINE L-J SIGMA PARAMETERS
Info: BINARY COORDINATES     mobley_9729792_min.coor
Info: SUMMARY OF PARAMETERS:
Info: 12 BONDS
Info: 18 ANGLES
Info:   18 HARMONIC
Info:   0 COSINE-BASED
Info: 4 DIHEDRAL
Info: 0 IMPROPER
Info: 0 CROSSTERM
Info: 0 VDW
Info: 21 VDW_PAIRS
Info: 0 NBTHOLE_PAIRS
Info: STRUCTURE SUMMARY:
Info: 2916 ATOMS
Info: 2916 BONDS
Info: 24 ANGLES
Info: 38 DIHEDRALS
Info: 0 IMPROPERS
Info: 0 CROSSTERMS
Info: 2972 EXCLUSIONS
Info: 2909 RIGID BONDS
Info: 5839 DEGREES OF FREEDOM
Info: 974 HYDROGEN GROUPS
Info: 3 ATOMS IN LARGEST HYDROGEN GROUP
Info: 974 MIGRATION GROUPS
Info: 3 ATOMS IN LARGEST MIGRATION GROUP
Info: TOTAL MASS = 17513.6 amu
Info: TOTAL CHARGE = 6.51926e-09 e
Info: MASS DENSITY = 0.654491 g/cm^3
Info: ATOM DENSITY = 0.0656231 atoms/A^3
Info: ADDED 0 IMPLICIT EXCLUSIONS
Info: NONBONDED TABLE R-SQUARED SPACING: 0.0625
Info: NONBONDED TABLE SIZE: 705 POINTS
Info: REMOVING COM VELOCITY -0.0221336 -0.240091 0.135636
TCL: Running for 100000 steps
ETITLE: TS BOND ANGLE DIHED IMPRP ELECT VDW BOUNDARY MISC KINETIC TOTAL TEMP POTENTIAL TOTAL3 TEMPAVG PRESSURE GPRESSURE VOLUME PRESSAVG GPRESSAVG
ENERGY: 0 0.0326 2.1927 2.7792 0.0000 -13464.5470 2384.6788 0.0000 0.0000 1791.1122 -9283.7515 308.7271 -11074.8638 -9283.3801 308.7271 587.6085 623.8775 44435.6040 587.6085 623.8775
ENERGY: 100000 0.2262 1.8090 3.8683 0.0000 -14060.8752 2471.2880 0.0000 0.0000 177.9781 -11405.7056 30.6774 -11583.6836 -11405.2112 30.9380 427.1751 475.2953 28557.4748 4.2239 4.2788
TCL: Running 100000 steps at 60 kelvin.
TCL: Setting parameter langevinTemp to 60
TCL: Running for 100000 steps
ETITLE: TS BOND ANGLE DIHED IMPRP ELECT VDW BOUNDARY MISC KINETIC TOTAL TEMP POTENTIAL TOTAL3 TEMPAVG PRESSURE GPRESSURE VOLUME PRESSAVG GPRESSAVG
ENERGY: 100000 0.2262 1.8090 3.8683 0.0000 -14060.8752 2471.2880 0.0000 0.0000 177.8915 -11405.7922 30.6625 -11583.6836 -11405.3817 30.6625 423.2305 475.2166 28557.4748 423.2305 475.2166
ENERGY: 200000 0.7114 1.4922 4.0287 0.0000 -13885.6998 2348.3680 0.0000 0.0000 334.8617 -11196.2379 57.7188 -11531.0995 -11195.3933 60.1049 -517.2371 -442.1126 28372.2902 4.1117 4.1989
TCL: Running 100000 steps at 90 kelvin.
TCL: Setting parameter langevinTemp to 90
TCL: Running for 100000 steps
ETITLE: TS BOND ANGLE DIHED IMPRP ELECT VDW BOUNDARY MISC KINETIC TOTAL TEMP POTENTIAL TOTAL3 TEMPAVG PRESSURE GPRESSURE VOLUME PRESSAVG GPRESSAVG
ENERGY: 200000 0.7114 1.4922 4.0287 0.0000 -13885.6998 2348.3680 0.0000 0.0000 334.6873 -11196.4122 57.6888 -11531.0995 -11195.6073 57.6888 -505.1568 -442.1486 28372.2902 -505.1568 -442.1486
ENERGY: 300000 0.4848 1.8453 4.1724 0.0000 -13716.7142 2266.7061 0.0000 0.0000 522.1523 -10921.3534 90.0014 -11443.5057 -10919.1535 89.8902 -962.9409 -880.8080 28680.5282 4.7380 4.7413
TCL: Running 100000 steps at 120 kelvin.
TCL: Setting parameter langevinTemp to 120
TCL: Running for 100000 steps
ETITLE: TS BOND ANGLE DIHED IMPRP ELECT VDW BOUNDARY MISC KINETIC TOTAL TEMP POTENTIAL TOTAL3 TEMPAVG PRESSURE GPRESSURE VOLUME PRESSAVG GPRESSAVG
ENERGY: 300000 0.4848 1.8453 4.1724 0.0000 -13716.7142 2266.7061 0.0000 0.0000 521.8878 -10921.6179 89.9558 -11443.5057 -10920.1917 89.9558 -947.6114 -880.4270 28680.5282 -947.6114 -880.4270
ENERGY: 400000 1.1471 2.8321 4.4273 0.0000 -13658.0300 2381.3271 0.0000 0.0000 722.6397 -10545.6566 124.5586 -11268.2963 -10544.3926 120.1941 803.2676 852.9292 28456.6361 4.4149 4.3132
TCL: Running 100000 steps at 150 kelvin.
TCL: Setting parameter langevinTemp to 150
TCL: Running for 100000 steps
ETITLE: TS BOND ANGLE DIHED IMPRP ELECT VDW BOUNDARY MISC KINETIC TOTAL TEMP POTENTIAL TOTAL3 TEMPAVG PRESSURE GPRESSURE VOLUME PRESSAVG GPRESSAVG
ENERGY: 400000 1.1471 2.8321 4.4273 0.0000 -13658.0300 2381.3271 0.0000 0.0000 722.2898 -10546.0065 124.4983 -11268.2963 -10544.6885 124.4983 790.8614 852.8526 28456.6361 790.8614 852.8526
ENERGY: 500000 2.1897 2.5070 4.4357 0.0000 -13162.1253 2041.4900 0.0000 0.0000 857.2652 -10254.2378 147.7635 -11111.5030 -10251.6837 149.9826 -1878.1105 -1815.6924 29159.7975 3.4083 3.3930
TCL: Running 100000 steps at 180 kelvin.
TCL: Setting parameter langevinTemp to 180
TCL: Running for 100000 steps
ETITLE: TS BOND ANGLE DIHED IMPRP ELECT VDW BOUNDARY MISC KINETIC TOTAL TEMP POTENTIAL TOTAL3 TEMPAVG PRESSURE GPRESSURE VOLUME PRESSAVG GPRESSAVG
ENERGY: 500000 2.1897 2.5070 4.4357 0.0000 -13162.1253 2041.4900 0.0000 0.0000 856.8364 -10254.6665 147.6896 -11111.5030 -10252.8820 147.6896 -1868.4791 -1815.9107 29159.7975 -1868.4791 -1815.9107
ENERGY: 600000 1.0007 4.3097 5.5671 0.0000 -12884.3988 2053.9386 0.0000 0.0000 1044.0126 -9775.5701 179.9524 -10819.5827 -9773.3293 179.7289 -384.5156 -317.2147 28646.3399 4.4060 4.4220
TCL: Running 100000 steps at 210 kelvin.
TCL: Setting parameter langevinTemp to 210
TCL: Running for 100000 steps
ETITLE: TS BOND ANGLE DIHED IMPRP ELECT VDW BOUNDARY MISC KINETIC TOTAL TEMP POTENTIAL TOTAL3 TEMPAVG PRESSURE GPRESSURE VOLUME PRESSAVG GPRESSAVG
ENERGY: 600000 1.0007 4.3097 5.5671 0.0000 -12884.3988 2053.9386 0.0000 0.0000 1043.4977 -9776.0850 179.8636 -10819.5827 -9774.1840 179.8636 -378.8717 -317.7463 28646.3399 -378.8717 -317.7463
ENERGY: 700000 0.4852 5.1691 3.0240 0.0000 -12315.0221 1944.4774 0.0000 0.0000 1199.7113 -9162.1551 206.7896 -10361.8664 -9158.7275 210.0916 770.9843 790.9816 28190.1913 3.9843 3.9767
TCL: Running 100000 steps at 240 kelvin.
TCL: Setting parameter langevinTemp to 240
TCL: Running for 100000 steps
ETITLE: TS BOND ANGLE DIHED IMPRP ELECT VDW BOUNDARY MISC KINETIC TOTAL TEMP POTENTIAL TOTAL3 TEMPAVG PRESSURE GPRESSURE VOLUME PRESSAVG GPRESSAVG
ENERGY: 700000 0.4852 5.1691 3.0240 0.0000 -12315.0221 1944.4774 0.0000 0.0000 1199.0902 -9162.7762 206.6825 -10361.8664 -9160.5424 206.6825 707.3798 792.3659 28190.1913 707.3798 792.3659
ENERGY: 800000 1.0922 3.1674 6.0026 0.0000 -11476.0621 1550.2713 0.0000 0.0000 1382.5669 -8532.9619 238.3077 -9915.5288 -8529.5602 240.0467 -1312.4514 -1213.4890 29022.3174 3.5727 3.5138
TCL: Running 100000 steps at 270 kelvin.
TCL: Setting parameter langevinTemp to 270
TCL: Running for 100000 steps
ETITLE: TS BOND ANGLE DIHED IMPRP ELECT VDW BOUNDARY MISC KINETIC TOTAL TEMP POTENTIAL TOTAL3 TEMPAVG PRESSURE GPRESSURE VOLUME PRESSAVG GPRESSAVG
ENERGY: 800000 1.0922 3.1674 6.0026 0.0000 -11476.0621 1550.2713 0.0000 0.0000 1381.8602 -8533.6686 238.1859 -9915.5288 -8531.1567 238.1859 -1305.2166 -1213.2460 29022.3174 -1305.2166 -1213.2460
ENERGY: 900000 0.8963 5.6474 5.6153 0.0000 -11047.3513 1539.9726 0.0000 0.0000 1557.5217 -7937.6980 268.4640 -9495.2197 -7931.2297 270.2454 -192.5277 -175.9660 29806.4683 4.1849 3.9659
TCL: Running 1000000 steps at 300 kelvin.
TCL: Setting parameter langevinTemp to 300
TCL: Running for 1000000 steps
ETITLE: TS BOND ANGLE DIHED IMPRP ELECT VDW BOUNDARY MISC KINETIC TOTAL TEMP POTENTIAL TOTAL3 TEMPAVG PRESSURE GPRESSURE VOLUME PRESSAVG GPRESSAVG
ENERGY: 900000 0.8963 5.6474 5.6153 0.0000 -11047.3513 1539.9726 0.0000 0.0000 1556.7483 -7938.4714 268.3307 -9495.2197 -7935.0798 268.3307 -245.2385 -174.4655 29806.4683 -245.2385 -174.4655
ENERGY: 1100000 3.1441 5.4118 6.4402 0.0000 -10471.8293 1309.1179 0.0000 0.0000 1751.1087 -7396.6066 301.8318 -9147.7153 -7393.7782 300.1874 -1012.2792 -959.3942 30024.7727 2.5179 2.5238
ENERGY: 1300000 0.5878 6.8447 7.7489 0.0000 -10755.2060 1511.1352 0.0000 0.0000 1780.8564 -7448.0330 306.9593 -9228.8894 -7445.3054 300.3581 674.2580 725.2739 29462.4332 3.9172 3.9615
ENERGY: 1500000 1.9819 7.3191 4.6422 0.0000 -10587.2690 1454.7058 0.0000 0.0000 1726.2193 -7392.4007 297.5417 -9118.6200 -7390.5725 299.6824 469.5103 543.8473 29779.0201 2.3001 2.3188
ENERGY: 1700000 0.8579 5.8365 6.0417 0.0000 -10519.7477 1441.4452 0.0000 0.0000 1756.0735 -7309.4930 302.6876 -9065.5665 -7305.9760 300.2957 133.8969 163.0131 30438.4266 2.4377 2.3581
ENERGY: 1900000 1.5033 6.2205 8.0439 0.0000 -10547.3055 1372.6513 0.0000 0.0000 1666.5358 -7492.3508 287.2543 -9158.8866 -7488.8986 300.4455 -481.3136 -415.5766 29918.6299 2.7706 2.5647
TCL: Exiting due to exit command.
