Info: SIMULATION PARAMETERS:
Info: TIMESTEP               2
Info: NUMBER OF STEPS        0
Info: STEPS PER CYCLE        10
Info: PERIODIC CELL BASIS 1  37.38 0 0
Info: PERIODIC CELL BASIS 2  0 37.796 0
Info: PERIODIC CELL BASIS 3  0 0 31.349
Info: PERIODIC CELL CENTER   0 0 0
Info: WRAPPING WATERS AROUND PERIODIC BOUNDARIES ON OUTPUT.
Info: WRAPPING ALL CLUSTERS AROUND PERIODIC BOUNDARIES ON OUTPUT.
Info: FIRST LDB TIMESTEP     50
Info: LAST LDB TIMESTEP     -1
Info: HOM BACKGROUND SCALING 1
Info: PME BACKGROUND SCALING 1
Info: MIN ATOMS PER PATCH    40
Info: EMPTY PATCH LOAD       40 ATOMS
Info: INITIAL TEMPERATURE    300
Info: CENTER OF MASS MOVING INITIALLY? NO
Info: DIELECTRIC             1
Info: EXCLUDE                SCALED ONE-FOUR
Info: 1-4 ELECTROSTATICS SCALED BY 0.833333
Info: MODIFIED 1-4 VDW PARAMETERS WILL BE USED
Info: DCD FILENAME           mobley_5510474_equil.dcd
Info: DCD FREQUENCY          100000
Info: DCD FIRST STEP         100000
Info: DCD FILE WILL CONTAIN UNIT CELL DATA
Info: XST FILENAME           mobley_5510474_equil.xst
Info: XST FREQUENCY          100000
Info: NO VELOCITY DCD OUTPUT
Info: NO FORCE DCD OUTPUT
Info: OUTPUT FILENAME        mobley_5510474_equil
Info: BINARY OUTPUT FILES WILL BE USED
Info: RESTART FILENAME       mobley_5510474_equil.restart
Info: RESTART FREQUENCY      100000
Info: BINARY RESTART FILES WILL BE USED
Info: CUTOFF                 9
Info: PAIRLIST DISTANCE      11
Info: PAIRLIST SHRINK RATE   0.01
Info: PAIRLIST GROW RATE     0.01
Info: PAIRLIST TRIGGER       0.3
Info: PAIRLISTS PER CYCLE    2
Info: PAIRLISTS ENABLED
Info: MARGIN                 8
Info: HYDROGEN GROUP CUTOFF  2.5
Info: PATCH DIMENSION        21.5
Info: ENERGY OUTPUT STEPS    100000
Info: ENERGY EVALUATION STEPS    100000
Info: OUTPUT ENERGY PRECISION 4
Info: CROSSTERM ENERGY INCLUDED IN DIHEDRAL
Info: TIMING OUTPUT STEPS    1000000
Info: PRESSURE OUTPUT STEPS  100000
Info: LANGEVIN DYNAMICS ACTIVE
Info: LANGEVIN TEMPERATURE   30
Info: LANGEVIN USING BBK INTEGRATOR
Info: LANGEVIN DAMPING COEFFICIENT IS 1 INVERSE PS
Info: LANGEVIN DYNAMICS APPLIED TO HYDROGENS
Info: LANGEVIN PISTON PRESSURE CONTROL ACTIVE
Info:        TARGET PRESSURE IS 1.01325 BAR
Info:     OSCILLATION PERIOD IS 50 FS
Info:             DECAY TIME IS 25 FS
Info:     PISTON TEMPERATURE IS 300 K
Info:       PRESSURE CONTROL IS GROUP-BASED
Info:    INITIAL STRAIN RATE IS 0 0 0
Info:       CELL FLUCTUATION IS ISOTROPIC
Info: PARTICLE MESH EWALD (PME) ACTIVE
Info: PME TOLERANCE               1e-06
Info: PME EWALD COEFFICIENT       0.348832
Info: PME INTERPOLATION ORDER     4
Info: PME GRID DIMENSIONS         40 40 32
Info: PME MAXIMUM GRID SPACING    1
Info: FULL ELECTROSTATIC EVALUATION FREQUENCY      2
Info: USING VERLET I (r-RESPA) MTS SCHEME.
Info: C1 SPLITTING OF LONG RANGE ELECTROSTATICS
Info: PLACING ATOMS IN PATCHES BY HYDROGEN GROUPS
Info: RIGID BONDS TO HYDROGEN : ALL
Info:         ERROR TOLERANCE : 1e-08
Info:          MAX ITERATIONS : 100
Info: RIGID WATER USING SETTLE ALGORITHM
Info: RANDOM NUMBER SEED     1743220070
Info: USE HYDROGEN BONDS?    NO
Info: Using AMBER format force field!
Info: AMBER PARM FILE        mobley_5510474.prmtop
Info: COORDINATE PDB         mobley_5510474.pdb
Info: Exclusions will be read from PARM file!
Info: SCNB (VDW SCALING)     2
Info: USING ARITHMETIC MEAN TO COMBINE L-J SIGMA PARAMETERS
Info: BINARY COORDINATES     mobley_5510474_min.coor
Info: SUMMARY OF PARAMETERS:
Info: 6 BONDS
Info: 5 ANGLES
Info:   5 HARMONIC
Info:   0 COSINE-BASED
Info: 3 DIHEDRAL
Info: 0 IMPROPER
Info: 0 CROSSTERM
Info: 0 VDW
Info: 21 VDW_PAIRS
Info: 0 NBTHOLE_PAIRS
Info: STRUCTURE SUMMARY:
Info: 2947 ATOMS
Info: 2949 BONDS
Info: 38 ANGLES
Info: 68 DIHEDRALS
Info: 0 IMPROPERS
Info: 0 CROSSTERMS
Info: 3034 EXCLUSIONS
Info: 2929 RIGID BONDS
Info: 5912 DEGREES OF FREEDOM
Info: 993 HYDROGEN GROUPS
Info: 3 ATOMS IN LARGEST HYDROGEN GROUP
Info: 993 MIGRATION GROUPS
Info: 3 ATOMS IN LARGEST MIGRATION GROUP
Info: TOTAL MASS = 17887.6 amu
Info: TOTAL CHARGE = -9.99719e-05 e
Info: MASS DENSITY = 0.670658 g/cm^3
Info: ATOM DENSITY = 0.0665382 atoms/A^3
Info: ADDED 0 IMPLICIT EXCLUSIONS
Info: NONBONDED TABLE R-SQUARED SPACING: 0.0625
Info: NONBONDED TABLE SIZE: 705 POINTS
Info: REMOVING COM VELOCITY -0.168316 -0.00245601 -0.12985
TCL: Running for 100000 steps
ETITLE: TS BOND ANGLE DIHED IMPRP ELECT VDW BOUNDARY MISC KINETIC TOTAL TEMP POTENTIAL TOTAL3 TEMPAVG PRESSURE GPRESSURE VOLUME PRESSAVG GPRESSAVG
ENERGY: 0 0.5627 0.2737 0.1309 0.0000 -13561.9790 2356.3248 0.0000 0.0000 1727.7438 -9476.9431 294.1273 -11204.6868 -9476.5978 294.1273 27.7003 55.5850 44290.3211 27.7003 55.5850
ENERGY: 100000 0.7310 0.6350 0.8425 0.0000 -14149.8909 2472.1166 0.0000 0.0000 175.1081 -11500.4578 29.8100 -11675.5659 -11499.8796 30.9040 270.7476 360.3226 29141.8204 3.6525 3.6783
TCL: Running 100000 steps at 60 kelvin.
TCL: Setting parameter langevinTemp to 60
TCL: Running for 100000 steps
ETITLE: TS BOND ANGLE DIHED IMPRP ELECT VDW BOUNDARY MISC KINETIC TOTAL TEMP POTENTIAL TOTAL3 TEMPAVG PRESSURE GPRESSURE VOLUME PRESSAVG GPRESSAVG
ENERGY: 100000 0.7310 0.6350 0.8425 0.0000 -14149.8909 2472.1166 0.0000 0.0000 175.0259 -11500.5400 29.7960 -11675.5659 -11500.1710 29.7960 297.0252 360.4512 29141.8204 297.0252 360.4512
ENERGY: 200000 2.1388 0.7507 2.1938 0.0000 -13982.8984 2388.6453 0.0000 0.0000 355.8157 -11233.3541 60.5733 -11589.1698 -11232.4342 60.0501 -82.3031 -37.5126 29235.0438 5.7291 5.7790
TCL: Running 100000 steps at 90 kelvin.
TCL: Setting parameter langevinTemp to 90
TCL: Running for 100000 steps
ETITLE: TS BOND ANGLE DIHED IMPRP ELECT VDW BOUNDARY MISC KINETIC TOTAL TEMP POTENTIAL TOTAL3 TEMPAVG PRESSURE GPRESSURE VOLUME PRESSAVG GPRESSAVG
ENERGY: 200000 2.1388 0.7507 2.1938 0.0000 -13982.8984 2388.6453 0.0000 0.0000 355.6387 -11233.5311 60.5431 -11589.1698 -11232.7358 60.5431 -105.0980 -37.2731 29235.0438 -105.0980 -37.2731
ENERGY: 300000 1.4963 1.7737 1.6889 0.0000 -13787.5293 2286.1644 0.0000 0.0000 540.0234 -10956.3826 91.9324 -11496.4059 -10954.5183 90.2293 -423.3856 -351.0722 28955.9854 4.1740 4.1252
TCL: Running 100000 steps at 120 kelvin.
TCL: Setting parameter langevinTemp to 120
TCL: Running for 100000 steps
ETITLE: TS BOND ANGLE DIHED IMPRP ELECT VDW BOUNDARY MISC KINETIC TOTAL TEMP POTENTIAL TOTAL3 TEMPAVG PRESSURE GPRESSURE VOLUME PRESSAVG GPRESSAVG
ENERGY: 300000 1.4963 1.7737 1.6889 0.0000 -13787.5293 2286.1644 0.0000 0.0000 539.7582 -10956.6478 91.8872 -11496.4059 -10955.1614 91.8872 -410.9273 -350.9682 28955.9854 -410.9273 -350.9682
ENERGY: 400000 3.6645 1.9032 1.7184 0.0000 -13662.2333 2296.3271 0.0000 0.0000 708.0909 -10650.5292 120.5438 -11358.6201 -10648.7465 119.9364 -222.9425 -137.6985 29055.4512 4.2820 4.2581
TCL: Running 100000 steps at 150 kelvin.
TCL: Setting parameter langevinTemp to 150
TCL: Running for 100000 steps
ETITLE: TS BOND ANGLE DIHED IMPRP ELECT VDW BOUNDARY MISC KINETIC TOTAL TEMP POTENTIAL TOTAL3 TEMPAVG PRESSURE GPRESSURE VOLUME PRESSAVG GPRESSAVG
ENERGY: 400000 3.6645 1.9032 1.7184 0.0000 -13662.2333 2296.3271 0.0000 0.0000 707.7532 -10650.8670 120.4863 -11358.6201 -10649.7191 120.4863 -188.8708 -137.3612 29055.4512 -188.8708 -137.3612
ENERGY: 500000 2.0558 2.0280 3.5172 0.0000 -13608.1669 2393.8448 0.0000 0.0000 890.1390 -10316.5820 151.5353 -11206.7210 -10314.4684 150.2148 1535.1381 1565.2915 28515.5591 3.5690 3.6415
TCL: Running 100000 steps at 180 kelvin.
TCL: Setting parameter langevinTemp to 180
TCL: Running for 100000 steps
ETITLE: TS BOND ANGLE DIHED IMPRP ELECT VDW BOUNDARY MISC KINETIC TOTAL TEMP POTENTIAL TOTAL3 TEMPAVG PRESSURE GPRESSURE VOLUME PRESSAVG GPRESSAVG
ENERGY: 500000 2.0558 2.0280 3.5172 0.0000 -13608.1669 2393.8448 0.0000 0.0000 889.6889 -10317.0322 151.4587 -11206.7210 -10315.4337 151.4587 1522.6482 1565.3023 28515.5591 1522.6482 1565.3023
ENERGY: 600000 4.4827 4.1087 4.4363 0.0000 -13194.7335 2240.6946 0.0000 0.0000 1076.4027 -9864.6085 183.2444 -10941.0112 -9861.1612 180.2161 1106.3598 1195.6308 28797.6877 4.1722 4.2007
TCL: Running 100000 steps at 210 kelvin.
TCL: Setting parameter langevinTemp to 210
TCL: Running for 100000 steps
ETITLE: TS BOND ANGLE DIHED IMPRP ELECT VDW BOUNDARY MISC KINETIC TOTAL TEMP POTENTIAL TOTAL3 TEMPAVG PRESSURE GPRESSURE VOLUME PRESSAVG GPRESSAVG
ENERGY: 600000 4.4827 4.1087 4.4363 0.0000 -13194.7335 2240.6946 0.0000 0.0000 1075.8730 -9865.1382 183.1542 -10941.0112 -9863.0643 183.1542 1133.1849 1195.7756 28797.6877 1133.1849 1195.7756
ENERGY: 700000 5.5434 4.5857 8.0420 0.0000 -12430.8185 1946.5347 0.0000 0.0000 1226.0308 -9240.0819 208.7168 -10466.1127 -9239.2414 210.0261 642.4225 711.0494 28652.2174 2.8737 2.7581
TCL: Running 100000 steps at 240 kelvin.
TCL: Setting parameter langevinTemp to 240
TCL: Running for 100000 steps
ETITLE: TS BOND ANGLE DIHED IMPRP ELECT VDW BOUNDARY MISC KINETIC TOTAL TEMP POTENTIAL TOTAL3 TEMPAVG PRESSURE GPRESSURE VOLUME PRESSAVG GPRESSAVG
ENERGY: 700000 5.5434 4.5857 8.0420 0.0000 -12430.8185 1946.5347 0.0000 0.0000 1225.4304 -9240.6823 208.6146 -10466.1127 -9239.1009 208.6146 637.5302 711.0867 28652.2174 637.5302 711.0867
ENERGY: 800000 4.5262 5.1678 4.0488 0.0000 -11776.2532 1666.9283 0.0000 0.0000 1392.9931 -8702.5890 237.1401 -10095.5822 -8698.4855 239.4974 -561.4407 -453.2173 28823.3102 4.8901 4.8862
TCL: Running 100000 steps at 270 kelvin.
TCL: Setting parameter langevinTemp to 270
TCL: Running for 100000 steps
ETITLE: TS BOND ANGLE DIHED IMPRP ELECT VDW BOUNDARY MISC KINETIC TOTAL TEMP POTENTIAL TOTAL3 TEMPAVG PRESSURE GPRESSURE VOLUME PRESSAVG GPRESSAVG
ENERGY: 800000 4.5262 5.1678 4.0488 0.0000 -11776.2532 1666.9283 0.0000 0.0000 1392.3070 -8703.2752 237.0233 -10095.5822 -8700.2844 237.0233 -522.9386 -453.3100 28823.3102 -522.9386 -453.3100
ENERGY: 900000 3.7800 4.0405 4.1329 0.0000 -11150.6720 1525.1192 0.0000 0.0000 1643.7722 -7969.8273 279.8321 -9613.5994 -7967.0028 269.8163 -120.0312 -61.3084 29395.3325 3.7269 3.9654
TCL: Running 1000000 steps at 300 kelvin.
TCL: Setting parameter langevinTemp to 300
TCL: Running for 1000000 steps
ETITLE: TS BOND ANGLE DIHED IMPRP ELECT VDW BOUNDARY MISC KINETIC TOTAL TEMP POTENTIAL TOTAL3 TEMPAVG PRESSURE GPRESSURE VOLUME PRESSAVG GPRESSAVG
ENERGY: 900000 3.7800 4.0405 4.1329 0.0000 -11150.6720 1525.1192 0.0000 0.0000 1642.9522 -7970.6473 279.6925 -9613.5994 -7967.8779 279.6925 -138.9900 -61.5170 29395.3325 -138.9900 -61.5170
ENERGY: 1100000 9.3754 1.9483 4.3663 0.0000 -10461.1225 1334.4407 0.0000 0.0000 1747.6112 -7363.3805 297.5095 -9110.9918 -7359.6856 299.4078 -776.1310 -693.9363 30641.5855 2.3934 2.4770
ENERGY: 1300000 7.3177 6.0664 4.6004 0.0000 -10592.8961 1432.5988 0.0000 0.0000 1754.7085 -7387.6042 298.7177 -9142.3127 -7382.3404 301.1316 264.5713 321.2604 30573.7955 3.3211 3.2990
ENERGY: 1500000 14.5256 9.5991 3.8398 0.0000 -10666.6921 1409.2672 0.0000 0.0000 1784.2630 -7445.1974 303.7490 -9229.4605 -7441.1932 300.5978 -588.2008 -459.6959 30490.7584 3.5745 3.4917
ENERGY: 1700000 6.7212 6.1963 3.5437 0.0000 -10783.9348 1503.5912 0.0000 0.0000 1834.9522 -7428.9304 312.3782 -9263.8826 -7425.1357 300.8233 898.3250 1030.9552 30014.6918 3.1656 3.2867
ENERGY: 1900000 5.7917 5.1642 5.5400 0.0000 -10691.8508 1498.3812 0.0000 0.0000 1717.9576 -7459.0161 292.4613 -9176.9737 -7459.8319 300.3747 498.1108 547.3141 30390.2115 1.9464 1.8501
TCL: Exiting due to exit command.
