Info: SIMULATION PARAMETERS:
Info: TIMESTEP               2
Info: NUMBER OF STEPS        0
Info: STEPS PER CYCLE        10
Info: PERIODIC CELL BASIS 1  36.281 0 0
Info: PERIODIC CELL BASIS 2  0 35.779 0
Info: PERIODIC CELL BASIS 3  0 0 34.229
Info: PERIODIC CELL CENTER   0 0 0
Info: WRAPPING WATERS AROUND PERIODIC BOUNDARIES ON OUTPUT.
Info: WRAPPING ALL CLUSTERS AROUND PERIODIC BOUNDARIES ON OUTPUT.
Info: FIRST LDB TIMESTEP     50
Info: LAST LDB TIMESTEP     -1
Info: HOM BACKGROUND SCALING 1
Info: PME BACKGROUND SCALING 1
Info: MIN ATOMS PER PATCH    40
Info: EMPTY PATCH LOAD       40 ATOMS
Info: INITIAL TEMPERATURE    300
Info: CENTER OF MASS MOVING INITIALLY? NO
Info: DIELECTRIC             1
Info: EXCLUDE                SCALED ONE-FOUR
Info: 1-4 ELECTROSTATICS SCALED BY 0.833333
Info: MODIFIED 1-4 VDW PARAMETERS WILL BE USED
Info: DCD FILENAME           mobley_2996632_equil.dcd
Info: DCD FREQUENCY          100000
Info: DCD FIRST STEP         100000
Info: DCD FILE WILL CONTAIN UNIT CELL DATA
Info: XST FILENAME           mobley_2996632_equil.xst
Info: XST FREQUENCY          100000
Info: NO VELOCITY DCD OUTPUT
Info: NO FORCE DCD OUTPUT
Info: OUTPUT FILENAME        mobley_2996632_equil
Info: BINARY OUTPUT FILES WILL BE USED
Info: RESTART FILENAME       mobley_2996632_equil.restart
Info: RESTART FREQUENCY      100000
Info: BINARY RESTART FILES WILL BE USED
Info: CUTOFF                 9
Info: PAIRLIST DISTANCE      11
Info: PAIRLIST SHRINK RATE   0.01
Info: PAIRLIST GROW RATE     0.01
Info: PAIRLIST TRIGGER       0.3
Info: PAIRLISTS PER CYCLE    2
Info: PAIRLISTS ENABLED
Info: MARGIN                 8
Info: HYDROGEN GROUP CUTOFF  2.5
Info: PATCH DIMENSION        21.5
Info: ENERGY OUTPUT STEPS    100000
Info: ENERGY EVALUATION STEPS    100000
Info: OUTPUT ENERGY PRECISION 4
Info: CROSSTERM ENERGY INCLUDED IN DIHEDRAL
Info: TIMING OUTPUT STEPS    1000000
Info: PRESSURE OUTPUT STEPS  100000
Info: FIXED ATOMS ACTIVE
Info: LANGEVIN DYNAMICS ACTIVE
Info: LANGEVIN TEMPERATURE   30
Info: LANGEVIN USING BBK INTEGRATOR
Info: LANGEVIN DAMPING COEFFICIENT IS 1 INVERSE PS
Info: LANGEVIN DYNAMICS APPLIED TO HYDROGENS
Info: LANGEVIN PISTON PRESSURE CONTROL ACTIVE
Info:        TARGET PRESSURE IS 1.01325 BAR
Info:     OSCILLATION PERIOD IS 50 FS
Info:             DECAY TIME IS 25 FS
Info:     PISTON TEMPERATURE IS 300 K
Info:       PRESSURE CONTROL IS GROUP-BASED
Info:    INITIAL STRAIN RATE IS 0 0 0
Info:       CELL FLUCTUATION IS ISOTROPIC
Info: PARTICLE MESH EWALD (PME) ACTIVE
Info: PME TOLERANCE               1e-06
Info: PME EWALD COEFFICIENT       0.348832
Info: PME INTERPOLATION ORDER     4
Info: PME GRID DIMENSIONS         40 36 36
Info: PME MAXIMUM GRID SPACING    1
Info: FULL ELECTROSTATIC EVALUATION FREQUENCY      2
Info: USING VERLET I (r-RESPA) MTS SCHEME.
Info: C1 SPLITTING OF LONG RANGE ELECTROSTATICS
Info: PLACING ATOMS IN PATCHES BY HYDROGEN GROUPS
Info: RIGID BONDS TO HYDROGEN : ALL
Info:         ERROR TOLERANCE : 1e-08
Info:          MAX ITERATIONS : 100
Info: RIGID WATER USING SETTLE ALGORITHM
Info: RANDOM NUMBER SEED     1743672688
Info: USE HYDROGEN BONDS?    NO
Info: Using AMBER format force field!
Info: AMBER PARM FILE        mobley_2996632.prmtop
Info: COORDINATE PDB         mobley_2996632.pdb
Info: Exclusions will be read from PARM file!
Info: SCNB (VDW SCALING)     2
Info: USING ARITHMETIC MEAN TO COMBINE L-J SIGMA PARAMETERS
Info: BINARY COORDINATES     mobley_2996632_min.coor
Info: SUMMARY OF PARAMETERS:
Info: 4 BONDS
Info: 2 ANGLES
Info:   2 HARMONIC
Info:   0 COSINE-BASED
Info: 0 DIHEDRAL
Info: 0 IMPROPER
Info: 0 CROSSTERM
Info: 0 VDW
Info: 15 VDW_PAIRS
Info: 0 NBTHOLE_PAIRS
Info: STRUCTURE SUMMARY:
Info: 2912 ATOMS
Info: 2911 BONDS
Info: 6 ANGLES
Info: 0 DIHEDRALS
Info: 0 IMPROPERS
Info: 0 CROSSTERMS
Info: 2917 EXCLUSIONS
Info: 5 FIXED ATOMS
Info: 2908 RIGID BONDS
Info: 1 RIGID BONDS BETWEEN FIXED ATOMS
Info: 5814 DEGREES OF FREEDOM
Info: 973 HYDROGEN GROUPS
Info: 3 ATOMS IN LARGEST HYDROGEN GROUP
Info: 973 MIGRATION GROUPS
Info: 3 ATOMS IN LARGEST MIGRATION GROUP
Info: 4 HYDROGEN GROUPS WITH ALL ATOMS FIXED
Info: TOTAL MASS = 17576.9 amu
Info: TOTAL CHARGE = -3.72529e-08 e
Info: MASS DENSITY = 0.6569 g/cm^3
Info: ATOM DENSITY = 0.0655375 atoms/A^3
Info: ADDED 0 IMPLICIT EXCLUSIONS
Info: NONBONDED TABLE R-SQUARED SPACING: 0.0625
Info: NONBONDED TABLE SIZE: 705 POINTS
Info: REMOVING COM VELOCITY 0.213265 -0.032758 0.114894
TCL: Running for 100000 steps
ETITLE: TS BOND ANGLE DIHED IMPRP ELECT VDW BOUNDARY MISC KINETIC TOTAL TEMP POTENTIAL TOTAL3 TEMPAVG PRESSURE GPRESSURE VOLUME PRESSAVG GPRESSAVG
ENERGY: 0 0.0000 0.0000 0.0000 0.0000 -13561.2318 2396.9815 0.0000 0.0000 1760.0372 -9404.2131 304.6753 -11164.2503 -9403.8763 304.6753 514.6935 545.2238 44432.5930 514.6935 545.2238
ENERGY: 100000 0.0000 0.0000 0.0000 0.0000 -14023.4956 2431.0373 0.0000 0.0000 173.3161 -11419.1422 30.0023 -11592.4582 -11418.5906 30.8301 -140.4133 -129.2344 28877.9560 3.7825 3.7690
TCL: Running 100000 steps at 60 kelvin.
TCL: Setting parameter langevinTemp to 60
TCL: Running for 100000 steps
ETITLE: TS BOND ANGLE DIHED IMPRP ELECT VDW BOUNDARY MISC KINETIC TOTAL TEMP POTENTIAL TOTAL3 TEMPAVG PRESSURE GPRESSURE VOLUME PRESSAVG GPRESSAVG
ENERGY: 100000 0.0000 0.0000 0.0000 0.0000 -14023.4956 2431.0373 0.0000 0.0000 173.2280 -11419.2302 29.9870 -11592.4582 -11418.8287 29.9870 -165.9188 -129.1516 28877.9560 -165.9188 -129.1516
ENERGY: 200000 0.0000 0.0000 0.0000 0.0000 -13795.4551 2260.6055 0.0000 0.0000 359.7880 -11175.0616 62.2819 -11534.8496 -11174.0750 60.0611 -1309.0408 -1240.0019 29001.2302 4.4975 4.5780
TCL: Running 100000 steps at 90 kelvin.
TCL: Setting parameter langevinTemp to 90
TCL: Running for 100000 steps
ETITLE: TS BOND ANGLE DIHED IMPRP ELECT VDW BOUNDARY MISC KINETIC TOTAL TEMP POTENTIAL TOTAL3 TEMPAVG PRESSURE GPRESSURE VOLUME PRESSAVG GPRESSAVG
ENERGY: 200000 0.0000 0.0000 0.0000 0.0000 -13795.4551 2260.6055 0.0000 0.0000 359.6158 -11175.2338 62.2521 -11534.8496 -11174.4756 62.2521 -1294.5257 -1240.0542 29001.2302 -1294.5257 -1240.0542
ENERGY: 300000 0.0000 0.0000 0.0000 0.0000 -13757.7474 2323.0774 0.0000 0.0000 505.7744 -10928.8957 87.5532 -11434.6701 -10927.8033 89.8490 -382.8661 -347.7364 28664.9325 3.6276 3.5739
TCL: Running 100000 steps at 120 kelvin.
TCL: Setting parameter langevinTemp to 120
TCL: Running for 100000 steps
ETITLE: TS BOND ANGLE DIHED IMPRP ELECT VDW BOUNDARY MISC KINETIC TOTAL TEMP POTENTIAL TOTAL3 TEMPAVG PRESSURE GPRESSURE VOLUME PRESSAVG GPRESSAVG
ENERGY: 300000 0.0000 0.0000 0.0000 0.0000 -13757.7474 2323.0774 0.0000 0.0000 505.5106 -10929.1595 87.5076 -11434.6701 -10927.8805 87.5076 -401.9035 -347.9487 28664.9325 -401.9035 -347.9487
ENERGY: 400000 0.0000 0.0000 0.0000 0.0000 -13687.5320 2393.1888 0.0000 0.0000 700.9640 -10593.3791 121.3420 -11294.3431 -10590.9297 119.8406 910.6601 976.4981 28452.6840 5.1093 5.1010
TCL: Running 100000 steps at 150 kelvin.
TCL: Setting parameter langevinTemp to 150
TCL: Running for 100000 steps
ETITLE: TS BOND ANGLE DIHED IMPRP ELECT VDW BOUNDARY MISC KINETIC TOTAL TEMP POTENTIAL TOTAL3 TEMPAVG PRESSURE GPRESSURE VOLUME PRESSAVG GPRESSAVG
ENERGY: 400000 0.0000 0.0000 0.0000 0.0000 -13687.5320 2393.1888 0.0000 0.0000 700.6141 -10593.7291 121.2814 -11294.3431 -10592.2969 121.2814 929.8541 976.2485 28452.6840 929.8541 976.2485
ENERGY: 500000 0.0000 0.0000 0.0000 0.0000 -13327.6366 2210.0779 0.0000 0.0000 849.9652 -10267.5935 147.1352 -11117.5587 -10265.2602 149.9718 -242.3918 -176.2991 28931.2846 3.9182 4.0517
TCL: Running 100000 steps at 180 kelvin.
TCL: Setting parameter langevinTemp to 180
TCL: Running for 100000 steps
ETITLE: TS BOND ANGLE DIHED IMPRP ELECT VDW BOUNDARY MISC KINETIC TOTAL TEMP POTENTIAL TOTAL3 TEMPAVG PRESSURE GPRESSURE VOLUME PRESSAVG GPRESSAVG
ENERGY: 500000 0.0000 0.0000 0.0000 0.0000 -13327.6366 2210.0779 0.0000 0.0000 849.5504 -10268.0083 147.0634 -11117.5587 -10266.4850 147.0634 -238.8904 -177.1379 28931.2846 -238.8904 -177.1379
ENERGY: 600000 0.0000 0.0000 0.0000 0.0000 -12951.7447 2093.4869 0.0000 0.0000 1031.1013 -9827.1566 178.4912 -10858.2579 -9823.1418 179.3437 -47.2513 24.4244 28666.9138 4.1574 4.1404
TCL: Running 100000 steps at 210 kelvin.
TCL: Setting parameter langevinTemp to 210
TCL: Running for 100000 steps
ETITLE: TS BOND ANGLE DIHED IMPRP ELECT VDW BOUNDARY MISC KINETIC TOTAL TEMP POTENTIAL TOTAL3 TEMPAVG PRESSURE GPRESSURE VOLUME PRESSAVG GPRESSAVG
ENERGY: 600000 0.0000 0.0000 0.0000 0.0000 -12951.7447 2093.4869 0.0000 0.0000 1030.5853 -9827.6726 178.4018 -10858.2579 -9825.8779 178.4018 -38.6810 25.6253 28666.9138 -38.6810 25.6253
ENERGY: 700000 0.0000 0.0000 0.0000 0.0000 -12288.0966 1868.8679 0.0000 0.0000 1218.4674 -9200.7613 210.9256 -10419.2286 -9198.9714 209.6075 66.5747 116.8471 28340.7614 3.3044 3.2500
TCL: Running 100000 steps at 240 kelvin.
TCL: Setting parameter langevinTemp to 240
TCL: Running for 100000 steps
ETITLE: TS BOND ANGLE DIHED IMPRP ELECT VDW BOUNDARY MISC KINETIC TOTAL TEMP POTENTIAL TOTAL3 TEMPAVG PRESSURE GPRESSURE VOLUME PRESSAVG GPRESSAVG
ENERGY: 700000 0.0000 0.0000 0.0000 0.0000 -12288.0966 1868.8679 0.0000 0.0000 1217.8607 -9201.3679 210.8206 -10419.2286 -9198.7526 210.8206 36.6448 116.1438 28340.7614 36.6448 116.1438
ENERGY: 800000 0.0000 0.0000 0.0000 0.0000 -11693.4927 1735.1684 0.0000 0.0000 1391.0789 -8567.2454 240.8059 -9958.3244 -8566.5103 240.0916 295.5611 459.7408 28660.7120 3.1023 3.1302
TCL: Running 100000 steps at 270 kelvin.
TCL: Setting parameter langevinTemp to 270
TCL: Running for 100000 steps
ETITLE: TS BOND ANGLE DIHED IMPRP ELECT VDW BOUNDARY MISC KINETIC TOTAL TEMP POTENTIAL TOTAL3 TEMPAVG PRESSURE GPRESSURE VOLUME PRESSAVG GPRESSAVG
ENERGY: 800000 0.0000 0.0000 0.0000 0.0000 -11693.4927 1735.1684 0.0000 0.0000 1390.3771 -8567.9473 240.6844 -9958.3244 -8565.5194 240.6844 371.1976 456.3254 28660.7120 371.1976 456.3254
ENERGY: 900000 0.0000 0.0000 0.0000 0.0000 -11168.9459 1551.9519 0.0000 0.0000 1502.5615 -8114.4325 260.1044 -9616.9940 -8112.2090 270.5614 30.5832 146.6443 29114.1833 2.3783 2.3348
TCL: Running 1000000 steps at 300 kelvin.
TCL: Setting parameter langevinTemp to 300
TCL: Running for 1000000 steps
ETITLE: TS BOND ANGLE DIHED IMPRP ELECT VDW BOUNDARY MISC KINETIC TOTAL TEMP POTENTIAL TOTAL3 TEMPAVG PRESSURE GPRESSURE VOLUME PRESSAVG GPRESSAVG
ENERGY: 900000 0.0000 0.0000 0.0000 0.0000 -11168.9459 1551.9519 0.0000 0.0000 1501.7649 -8115.2291 259.9664 -9616.9940 -8113.0744 259.9664 56.9522 145.1229 29114.1833 56.9522 145.1229
ENERGY: 1100000 0.0000 0.0000 0.0000 0.0000 -10709.1173 1483.9621 0.0000 0.0000 1718.1793 -7506.9758 297.4294 -9225.1551 -7503.6867 299.9451 331.1859 436.4187 29760.0568 3.1168 2.8771
ENERGY: 1300000 0.0000 0.0000 0.0000 0.0000 -10712.0260 1453.0506 0.0000 0.0000 1671.2425 -7587.7328 289.3043 -9258.9753 -7587.1231 299.5232 232.7443 260.6699 29521.6663 2.4505 2.3937
ENERGY: 1500000 0.0000 0.0000 0.0000 0.0000 -10475.6808 1312.7494 0.0000 0.0000 1706.9153 -7456.0161 295.4795 -9162.9314 -7452.6719 299.9293 -1166.4022 -1025.4196 30758.6162 3.3124 3.3949
ENERGY: 1700000 0.0000 0.0000 0.0000 0.0000 -10723.6238 1506.4464 0.0000 0.0000 1718.6886 -7498.4888 297.5175 -9217.1774 -7494.4901 300.4476 802.3710 823.6447 29624.3056 3.7881 3.7895
ENERGY: 1900000 0.0000 0.0000 0.0000 0.0000 -10639.8563 1432.1464 0.0000 0.0000 1732.1289 -7475.5810 299.8441 -9207.7099 -7471.3961 300.0914 -254.2478 -164.7500 30385.7708 2.6311 2.6441
TCL: Exiting due to exit command.
