Info: SIMULATION PARAMETERS:
Info: TIMESTEP               2
Info: NUMBER OF STEPS        0
Info: STEPS PER CYCLE        10
Info: PERIODIC CELL BASIS 1  34.986 0 0
Info: PERIODIC CELL BASIS 2  0 34.26 0
Info: PERIODIC CELL BASIS 3  0 0 36.583
Info: PERIODIC CELL CENTER   0 0 0
Info: WRAPPING WATERS AROUND PERIODIC BOUNDARIES ON OUTPUT.
Info: WRAPPING ALL CLUSTERS AROUND PERIODIC BOUNDARIES ON OUTPUT.
Info: FIRST LDB TIMESTEP     50
Info: LAST LDB TIMESTEP     -1
Info: HOM BACKGROUND SCALING 1
Info: PME BACKGROUND SCALING 1
Info: MIN ATOMS PER PATCH    40
Info: EMPTY PATCH LOAD       40 ATOMS
Info: INITIAL TEMPERATURE    300
Info: CENTER OF MASS MOVING INITIALLY? NO
Info: DIELECTRIC             1
Info: EXCLUDE                SCALED ONE-FOUR
Info: 1-4 ELECTROSTATICS SCALED BY 0.833333
Info: MODIFIED 1-4 VDW PARAMETERS WILL BE USED
Info: DCD FILENAME           mobley_1075836_equil.dcd
Info: DCD FREQUENCY          100000
Info: DCD FIRST STEP         100000
Info: DCD FILE WILL CONTAIN UNIT CELL DATA
Info: XST FILENAME           mobley_1075836_equil.xst
Info: XST FREQUENCY          100000
Info: NO VELOCITY DCD OUTPUT
Info: NO FORCE DCD OUTPUT
Info: OUTPUT FILENAME        mobley_1075836_equil
Info: BINARY OUTPUT FILES WILL BE USED
Info: RESTART FILENAME       mobley_1075836_equil.restart
Info: RESTART FREQUENCY      100000
Info: BINARY RESTART FILES WILL BE USED
Info: CUTOFF                 9
Info: PAIRLIST DISTANCE      11
Info: PAIRLIST SHRINK RATE   0.01
Info: PAIRLIST GROW RATE     0.01
Info: PAIRLIST TRIGGER       0.3
Info: PAIRLISTS PER CYCLE    2
Info: PAIRLISTS ENABLED
Info: MARGIN                 8
Info: HYDROGEN GROUP CUTOFF  2.5
Info: PATCH DIMENSION        21.5
Info: ENERGY OUTPUT STEPS    100000
Info: ENERGY EVALUATION STEPS    100000
Info: OUTPUT ENERGY PRECISION 4
Info: CROSSTERM ENERGY INCLUDED IN DIHEDRAL
Info: TIMING OUTPUT STEPS    1000000
Info: PRESSURE OUTPUT STEPS  100000
Info: LANGEVIN DYNAMICS ACTIVE
Info: LANGEVIN TEMPERATURE   30
Info: LANGEVIN USING BBK INTEGRATOR
Info: LANGEVIN DAMPING COEFFICIENT IS 1 INVERSE PS
Info: LANGEVIN DYNAMICS APPLIED TO HYDROGENS
Info: LANGEVIN PISTON PRESSURE CONTROL ACTIVE
Info:        TARGET PRESSURE IS 1.01325 BAR
Info:     OSCILLATION PERIOD IS 50 FS
Info:             DECAY TIME IS 25 FS
Info:     PISTON TEMPERATURE IS 300 K
Info:       PRESSURE CONTROL IS GROUP-BASED
Info:    INITIAL STRAIN RATE IS 0 0 0
Info:       CELL FLUCTUATION IS ISOTROPIC
Info: PARTICLE MESH EWALD (PME) ACTIVE
Info: PME TOLERANCE               1e-06
Info: PME EWALD COEFFICIENT       0.348832
Info: PME INTERPOLATION ORDER     4
Info: PME GRID DIMENSIONS         36 36 40
Info: PME MAXIMUM GRID SPACING    1
Info: FULL ELECTROSTATIC EVALUATION FREQUENCY      2
Info: USING VERLET I (r-RESPA) MTS SCHEME.
Info: C1 SPLITTING OF LONG RANGE ELECTROSTATICS
Info: PLACING ATOMS IN PATCHES BY HYDROGEN GROUPS
Info: RIGID BONDS TO HYDROGEN : ALL
Info:         ERROR TOLERANCE : 1e-08
Info:          MAX ITERATIONS : 100
Info: RIGID WATER USING SETTLE ALGORITHM
Info: RANDOM NUMBER SEED     1743227055
Info: USE HYDROGEN BONDS?    NO
Info: Using AMBER format force field!
Info: AMBER PARM FILE        mobley_1075836.prmtop
Info: COORDINATE PDB         mobley_1075836.pdb
Info: Exclusions will be read from PARM file!
Info: SCNB (VDW SCALING)     2
Info: USING ARITHMETIC MEAN TO COMBINE L-J SIGMA PARAMETERS
Info: BINARY COORDINATES     mobley_1075836_min.coor
Info: SUMMARY OF PARAMETERS:
Info: 9 BONDS
Info: 10 ANGLES
Info:   10 HARMONIC
Info:   0 COSINE-BASED
Info: 12 DIHEDRAL
Info: 0 IMPROPER
Info: 0 CROSSTERM
Info: 0 VDW
Info: 36 VDW_PAIRS
Info: 0 NBTHOLE_PAIRS
Info: STRUCTURE SUMMARY:
Info: 2969 ATOMS
Info: 2968 BONDS
Info: 22 ANGLES
Info: 28 DIHEDRALS
Info: 0 IMPROPERS
Info: 0 CROSSTERMS
Info: 3010 EXCLUSIONS
Info: 2963 RIGID BONDS
Info: 5944 DEGREES OF FREEDOM
Info: 991 HYDROGEN GROUPS
Info: 4 ATOMS IN LARGEST HYDROGEN GROUP
Info: 991 MIGRATION GROUPS
Info: 4 ATOMS IN LARGEST MIGRATION GROUP
Info: TOTAL MASS = 17833.9 amu
Info: TOTAL CHARGE = -0.000100046 e
Info: MASS DENSITY = 0.675373 g/cm^3
Info: ATOM DENSITY = 0.0677094 atoms/A^3
Info: ADDED 0 IMPLICIT EXCLUSIONS
Info: NONBONDED TABLE R-SQUARED SPACING: 0.0625
Info: NONBONDED TABLE SIZE: 705 POINTS
Info: REMOVING COM VELOCITY 0.165166 0.0851697 -0.0486822
TCL: Running for 100000 steps
ETITLE: TS BOND ANGLE DIHED IMPRP ELECT VDW BOUNDARY MISC KINETIC TOTAL TEMP POTENTIAL TOTAL3 TEMPAVG PRESSURE GPRESSURE VOLUME PRESSAVG GPRESSAVG
ENERGY: 0 0.0967 0.4557 1.0104 0.0000 -13706.8199 2392.5842 0.0000 0.0000 1729.9868 -9582.6861 292.9236 -11312.6729 -9582.3546 292.9236 331.0450 356.8273 43849.1286 331.0450 356.8273
ENERGY: 100000 0.2237 0.9692 1.7981 0.0000 -14377.7381 2553.5901 0.0000 0.0000 178.0818 -11643.0752 30.1530 -11821.1570 -11642.4744 30.9253 471.8580 527.3735 29227.9392 3.6732 3.6155
TCL: Running 100000 steps at 60 kelvin.
TCL: Setting parameter langevinTemp to 60
TCL: Running for 100000 steps
ETITLE: TS BOND ANGLE DIHED IMPRP ELECT VDW BOUNDARY MISC KINETIC TOTAL TEMP POTENTIAL TOTAL3 TEMPAVG PRESSURE GPRESSURE VOLUME PRESSAVG GPRESSAVG
ENERGY: 100000 0.2237 0.9692 1.7981 0.0000 -14377.7381 2553.5901 0.0000 0.0000 177.9939 -11643.1631 30.1382 -11821.1570 -11642.7254 30.1382 469.4287 527.6944 29227.9392 469.4287 527.6944
ENERGY: 200000 0.6796 1.7416 1.2806 0.0000 -14244.4567 2481.1079 0.0000 0.0000 344.2514 -11415.3955 58.2891 -11759.6469 -11414.4371 59.9068 69.3718 111.5480 29267.6042 2.3409 2.3068
TCL: Running 100000 steps at 90 kelvin.
TCL: Setting parameter langevinTemp to 90
TCL: Running for 100000 steps
ETITLE: TS BOND ANGLE DIHED IMPRP ELECT VDW BOUNDARY MISC KINETIC TOTAL TEMP POTENTIAL TOTAL3 TEMPAVG PRESSURE GPRESSURE VOLUME PRESSAVG GPRESSAVG
ENERGY: 200000 0.6796 1.7416 1.2806 0.0000 -14244.4567 2481.1079 0.0000 0.0000 344.0800 -11415.5669 58.2601 -11759.6469 -11414.9413 58.2601 72.8578 111.4451 29267.6042 72.8578 111.4451
ENERGY: 300000 0.8670 1.7315 1.9055 0.0000 -13961.3561 2314.1885 0.0000 0.0000 535.9694 -11106.6943 90.7510 -11642.6636 -11105.2097 89.8171 -797.4017 -710.2328 29365.6954 3.2921 3.3598
TCL: Running 100000 steps at 120 kelvin.
TCL: Setting parameter langevinTemp to 120
TCL: Running for 100000 steps
ETITLE: TS BOND ANGLE DIHED IMPRP ELECT VDW BOUNDARY MISC KINETIC TOTAL TEMP POTENTIAL TOTAL3 TEMPAVG PRESSURE GPRESSURE VOLUME PRESSAVG GPRESSAVG
ENERGY: 300000 0.8670 1.7315 1.9055 0.0000 -13961.3561 2314.1885 0.0000 0.0000 535.7092 -11106.9544 90.7070 -11642.6636 -11105.7558 90.7070 -757.4349 -709.4607 29365.6954 -757.4349 -709.4607
ENERGY: 400000 0.2154 2.2837 0.9716 0.0000 -13862.1585 2331.0227 0.0000 0.0000 694.7270 -10832.9381 117.6321 -11527.6651 -10831.3770 120.0084 -95.1804 -26.8064 28974.8732 3.7144 3.6289
TCL: Running 100000 steps at 150 kelvin.
TCL: Setting parameter langevinTemp to 150
TCL: Running for 100000 steps
ETITLE: TS BOND ANGLE DIHED IMPRP ELECT VDW BOUNDARY MISC KINETIC TOTAL TEMP POTENTIAL TOTAL3 TEMPAVG PRESSURE GPRESSURE VOLUME PRESSAVG GPRESSAVG
ENERGY: 400000 0.2154 2.2837 0.9716 0.0000 -13862.1585 2331.0227 0.0000 0.0000 694.3615 -10833.3035 117.5702 -11527.6651 -10831.7710 117.5702 -71.5788 -26.9201 28974.8732 -71.5788 -26.9201
ENERGY: 500000 1.2087 2.0117 0.9237 0.0000 -13517.5580 2143.2823 0.0000 0.0000 913.6811 -10456.4504 154.7057 -11370.1315 -10453.4326 149.5087 -1046.1453 -1012.5682 29076.0064 3.4188 3.3736
TCL: Running 100000 steps at 180 kelvin.
TCL: Setting parameter langevinTemp to 180
TCL: Running for 100000 steps
ETITLE: TS BOND ANGLE DIHED IMPRP ELECT VDW BOUNDARY MISC KINETIC TOTAL TEMP POTENTIAL TOTAL3 TEMPAVG PRESSURE GPRESSURE VOLUME PRESSAVG GPRESSAVG
ENERGY: 500000 1.2087 2.0117 0.9237 0.0000 -13517.5580 2143.2823 0.0000 0.0000 913.2559 -10456.8756 154.6337 -11370.1315 -10454.8681 154.6337 -1063.6492 -1012.1355 29076.0064 -1063.6492 -1012.1355
ENERGY: 600000 2.8763 2.3233 2.3028 0.0000 -13012.9849 1927.2179 0.0000 0.0000 1074.0379 -10004.2265 181.8575 -11078.2644 -10001.1043 179.8837 -1788.3047 -1713.4549 29143.1629 4.4435 4.5795
TCL: Running 100000 steps at 210 kelvin.
TCL: Setting parameter langevinTemp to 210
TCL: Running for 100000 steps
ETITLE: TS BOND ANGLE DIHED IMPRP ELECT VDW BOUNDARY MISC KINETIC TOTAL TEMP POTENTIAL TOTAL3 TEMPAVG PRESSURE GPRESSURE VOLUME PRESSAVG GPRESSAVG
ENERGY: 600000 2.8763 2.3233 2.3028 0.0000 -13012.9849 1927.2179 0.0000 0.0000 1073.5111 -10004.7534 181.7683 -11078.2644 -10002.5673 181.7683 -1782.4621 -1712.4589 29143.1629 -1782.4621 -1712.4589
ENERGY: 700000 0.4729 3.0228 1.2715 0.0000 -12535.1384 1916.7214 0.0000 0.0000 1197.8812 -9415.7685 202.8268 -10613.6498 -9413.4321 210.3945 -183.4984 -94.0641 29083.9358 4.0857 4.1143
TCL: Running 100000 steps at 240 kelvin.
TCL: Setting parameter langevinTemp to 240
TCL: Running for 100000 steps
ETITLE: TS BOND ANGLE DIHED IMPRP ELECT VDW BOUNDARY MISC KINETIC TOTAL TEMP POTENTIAL TOTAL3 TEMPAVG PRESSURE GPRESSURE VOLUME PRESSAVG GPRESSAVG
ENERGY: 700000 0.4729 3.0228 1.2715 0.0000 -12535.1384 1916.7214 0.0000 0.0000 1197.2618 -9416.3880 202.7219 -10613.6498 -9414.4603 202.7219 -169.5754 -92.6761 29083.9358 -169.5754 -92.6761
ENERGY: 800000 1.6424 4.9152 2.8641 0.0000 -11796.9699 1669.3048 0.0000 0.0000 1386.5753 -8731.6682 234.7767 -10118.2435 -8728.6501 239.7504 -363.5086 -271.3128 29194.6907 2.5667 2.6335
TCL: Running 100000 steps at 270 kelvin.
TCL: Setting parameter langevinTemp to 270
TCL: Running for 100000 steps
ETITLE: TS BOND ANGLE DIHED IMPRP ELECT VDW BOUNDARY MISC KINETIC TOTAL TEMP POTENTIAL TOTAL3 TEMPAVG PRESSURE GPRESSURE VOLUME PRESSAVG GPRESSAVG
ENERGY: 800000 1.6424 4.9152 2.8641 0.0000 -11796.9699 1669.3048 0.0000 0.0000 1385.8686 -8732.3749 234.6571 -10118.2435 -8729.8571 234.6571 -338.5789 -270.2503 29194.6907 -338.5789 -270.2503
ENERGY: 900000 1.9758 7.0821 1.5956 0.0000 -11489.6991 1635.3859 0.0000 0.0000 1585.2316 -8258.4281 268.4135 -9843.6597 -8253.6502 270.0603 251.7725 289.7674 29442.8115 3.9442 3.9723
TCL: Running 1000000 steps at 300 kelvin.
TCL: Setting parameter langevinTemp to 300
TCL: Running for 1000000 steps
ETITLE: TS BOND ANGLE DIHED IMPRP ELECT VDW BOUNDARY MISC KINETIC TOTAL TEMP POTENTIAL TOTAL3 TEMPAVG PRESSURE GPRESSURE VOLUME PRESSAVG GPRESSAVG
ENERGY: 900000 1.9758 7.0821 1.5956 0.0000 -11489.6991 1635.3859 0.0000 0.0000 1584.4431 -8259.2165 268.2800 -9843.6597 -8256.3208 268.2800 217.8005 292.1858 29442.8115 217.8005 292.1858
ENERGY: 1100000 3.0104 5.9075 2.3431 0.0000 -10661.5343 1383.9607 0.0000 0.0000 1734.4306 -7531.8821 293.6760 -9266.3126 -7529.8096 299.9928 -278.2951 -136.1559 30112.4217 3.6393 3.5517
ENERGY: 1300000 0.8880 6.2261 3.7725 0.0000 -10651.9901 1390.7875 0.0000 0.0000 1757.3309 -7492.9852 297.5535 -9250.3161 -7489.8797 300.3245 -319.5741 -161.8803 30809.2826 2.4400 2.6202
ENERGY: 1500000 0.4914 4.7894 1.3696 0.0000 -10875.5673 1515.7106 0.0000 0.0000 1770.6428 -7582.5634 299.8075 -9353.2062 -7578.5375 300.5284 310.4564 357.0102 30690.4121 2.5993 2.6617
ENERGY: 1700000 2.4123 7.8896 3.8424 0.0000 -10846.3070 1486.2070 0.0000 0.0000 1824.6162 -7521.3394 308.9464 -9345.9556 -7517.5104 299.6236 407.4575 493.6788 30052.8758 2.7448 2.7418
ENERGY: 1900000 1.6686 3.8363 3.5091 0.0000 -10713.3123 1467.4870 0.0000 0.0000 1847.2685 -7389.5429 312.7819 -9236.8114 -7386.7420 299.9674 395.8593 454.1262 30645.0198 3.3951 3.2965
TCL: Exiting due to exit command.
