Info: SIMULATION PARAMETERS:
Info: TIMESTEP               2
Info: NUMBER OF STEPS        0
Info: STEPS PER CYCLE        10
Info: PERIODIC CELL BASIS 1  37.38 0 0
Info: PERIODIC CELL BASIS 2  0 33.542 0
Info: PERIODIC CELL BASIS 3  0 0 34.68
Info: PERIODIC CELL CENTER   0 0 0
Info: WRAPPING WATERS AROUND PERIODIC BOUNDARIES ON OUTPUT.
Info: WRAPPING ALL CLUSTERS AROUND PERIODIC BOUNDARIES ON OUTPUT.
Info: FIRST LDB TIMESTEP     50
Info: LAST LDB TIMESTEP     -1
Info: HOM BACKGROUND SCALING 1
Info: PME BACKGROUND SCALING 1
Info: MIN ATOMS PER PATCH    40
Info: EMPTY PATCH LOAD       40 ATOMS
Info: INITIAL TEMPERATURE    300
Info: CENTER OF MASS MOVING INITIALLY? NO
Info: DIELECTRIC             1
Info: EXCLUDE                SCALED ONE-FOUR
Info: 1-4 ELECTROSTATICS SCALED BY 0.833333
Info: MODIFIED 1-4 VDW PARAMETERS WILL BE USED
Info: DCD FILENAME           mobley_4983965_equil.dcd
Info: DCD FREQUENCY          100000
Info: DCD FIRST STEP         100000
Info: DCD FILE WILL CONTAIN UNIT CELL DATA
Info: XST FILENAME           mobley_4983965_equil.xst
Info: XST FREQUENCY          100000
Info: NO VELOCITY DCD OUTPUT
Info: NO FORCE DCD OUTPUT
Info: OUTPUT FILENAME        mobley_4983965_equil
Info: BINARY OUTPUT FILES WILL BE USED
Info: RESTART FILENAME       mobley_4983965_equil.restart
Info: RESTART FREQUENCY      100000
Info: BINARY RESTART FILES WILL BE USED
Info: CUTOFF                 9
Info: PAIRLIST DISTANCE      11
Info: PAIRLIST SHRINK RATE   0.01
Info: PAIRLIST GROW RATE     0.01
Info: PAIRLIST TRIGGER       0.3
Info: PAIRLISTS PER CYCLE    2
Info: PAIRLISTS ENABLED
Info: MARGIN                 8
Info: HYDROGEN GROUP CUTOFF  2.5
Info: PATCH DIMENSION        21.5
Info: ENERGY OUTPUT STEPS    100000
Info: ENERGY EVALUATION STEPS    100000
Info: OUTPUT ENERGY PRECISION 4
Info: CROSSTERM ENERGY INCLUDED IN DIHEDRAL
Info: TIMING OUTPUT STEPS    1000000
Info: PRESSURE OUTPUT STEPS  100000
Info: LANGEVIN DYNAMICS ACTIVE
Info: LANGEVIN TEMPERATURE   30
Info: LANGEVIN USING BBK INTEGRATOR
Info: LANGEVIN DAMPING COEFFICIENT IS 1 INVERSE PS
Info: LANGEVIN DYNAMICS APPLIED TO HYDROGENS
Info: LANGEVIN PISTON PRESSURE CONTROL ACTIVE
Info:        TARGET PRESSURE IS 1.01325 BAR
Info:     OSCILLATION PERIOD IS 50 FS
Info:             DECAY TIME IS 25 FS
Info:     PISTON TEMPERATURE IS 300 K
Info:       PRESSURE CONTROL IS GROUP-BASED
Info:    INITIAL STRAIN RATE IS 0 0 0
Info:       CELL FLUCTUATION IS ISOTROPIC
Info: PARTICLE MESH EWALD (PME) ACTIVE
Info: PME TOLERANCE               1e-06
Info: PME EWALD COEFFICIENT       0.348832
Info: PME INTERPOLATION ORDER     4
Info: PME GRID DIMENSIONS         40 36 36
Info: PME MAXIMUM GRID SPACING    1
Info: FULL ELECTROSTATIC EVALUATION FREQUENCY      2
Info: USING VERLET I (r-RESPA) MTS SCHEME.
Info: C1 SPLITTING OF LONG RANGE ELECTROSTATICS
Info: PLACING ATOMS IN PATCHES BY HYDROGEN GROUPS
Info: RIGID BONDS TO HYDROGEN : ALL
Info:         ERROR TOLERANCE : 1e-08
Info:          MAX ITERATIONS : 100
Info: RIGID WATER USING SETTLE ALGORITHM
Info: RANDOM NUMBER SEED     1743240363
Info: USE HYDROGEN BONDS?    NO
Info: Using AMBER format force field!
Info: AMBER PARM FILE        mobley_4983965.prmtop
Info: COORDINATE PDB         mobley_4983965.pdb
Info: Exclusions will be read from PARM file!
Info: SCNB (VDW SCALING)     2
Info: USING ARITHMETIC MEAN TO COMBINE L-J SIGMA PARAMETERS
Info: BINARY COORDINATES     mobley_4983965_min.coor
Info: SUMMARY OF PARAMETERS:
Info: 6 BONDS
Info: 7 ANGLES
Info:   7 HARMONIC
Info:   0 COSINE-BASED
Info: 2 DIHEDRAL
Info: 0 IMPROPER
Info: 0 CROSSTERM
Info: 0 VDW
Info: 21 VDW_PAIRS
Info: 0 NBTHOLE_PAIRS
Info: STRUCTURE SUMMARY:
Info: 2940 ATOMS
Info: 2939 BONDS
Info: 25 ANGLES
Info: 24 DIHEDRALS
Info: 0 IMPROPERS
Info: 0 CROSSTERMS
Info: 2988 EXCLUSIONS
Info: 2935 RIGID BONDS
Info: 5885 DEGREES OF FREEDOM
Info: 980 HYDROGEN GROUPS
Info: 4 ATOMS IN LARGEST HYDROGEN GROUP
Info: 980 MIGRATION GROUPS
Info: 4 ATOMS IN LARGEST MIGRATION GROUP
Info: TOTAL MASS = 17655.8 amu
Info: TOTAL CHARGE = -2.8871e-08 e
Info: MASS DENSITY = 0.674278 g/cm^3
Info: ATOM DENSITY = 0.0676145 atoms/A^3
Info: ADDED 0 IMPLICIT EXCLUSIONS
Info: NONBONDED TABLE R-SQUARED SPACING: 0.0625
Info: NONBONDED TABLE SIZE: 705 POINTS
Info: REMOVING COM VELOCITY -0.0409038 0.0367298 -0.0120569
TCL: Running for 100000 steps
ETITLE: TS BOND ANGLE DIHED IMPRP ELECT VDW BOUNDARY MISC KINETIC TOTAL TEMP POTENTIAL TOTAL3 TEMPAVG PRESSURE GPRESSURE VOLUME PRESSAVG GPRESSAVG
ENERGY: 0 0.0079 0.1208 0.0474 0.0000 -13548.6875 2333.6899 0.0000 0.0000 1728.3030 -9486.5184 295.5723 -11214.8214 -9486.1977 295.5723 -0.0341 40.4731 43481.7826 -0.0341 40.4731
ENERGY: 100000 0.0500 0.6074 0.3379 0.0000 -14146.7023 2463.3637 0.0000 0.0000 174.4863 -11507.8570 29.8404 -11682.3433 -11507.4700 30.9395 -180.6676 -128.1262 29172.4857 4.7131 4.6624
TCL: Running 100000 steps at 60 kelvin.
TCL: Setting parameter langevinTemp to 60
TCL: Running for 100000 steps
ETITLE: TS BOND ANGLE DIHED IMPRP ELECT VDW BOUNDARY MISC KINETIC TOTAL TEMP POTENTIAL TOTAL3 TEMPAVG PRESSURE GPRESSURE VOLUME PRESSAVG GPRESSAVG
ENERGY: 100000 0.0500 0.6074 0.3379 0.0000 -14146.7023 2463.3637 0.0000 0.0000 174.3984 -11507.9448 29.8254 -11682.3433 -11507.5784 29.8254 -184.3959 -127.9854 29172.4857 -184.3959 -127.9854
ENERGY: 200000 0.2541 1.1918 0.5289 0.0000 -14154.7449 2533.3238 0.0000 0.0000 348.4957 -11270.9507 59.5993 -11619.4464 -11270.0513 59.7646 906.6450 929.8336 28656.4842 2.5295 2.5908
TCL: Running 100000 steps at 90 kelvin.
TCL: Setting parameter langevinTemp to 90
TCL: Running for 100000 steps
ETITLE: TS BOND ANGLE DIHED IMPRP ELECT VDW BOUNDARY MISC KINETIC TOTAL TEMP POTENTIAL TOTAL3 TEMPAVG PRESSURE GPRESSURE VOLUME PRESSAVG GPRESSAVG
ENERGY: 200000 0.2541 1.1918 0.5289 0.0000 -14154.7449 2533.3238 0.0000 0.0000 348.3249 -11271.1215 59.5701 -11619.4464 -11270.6073 59.5701 883.9995 929.8747 28656.4842 883.9995 929.8747
ENERGY: 300000 0.0719 2.3241 1.0846 0.0000 -13904.3452 2365.8593 0.0000 0.0000 535.3742 -10999.6311 91.5591 -11535.0054 -10998.1079 89.8719 -157.6953 -104.0753 28649.0007 4.2494 4.1445
TCL: Running 100000 steps at 120 kelvin.
TCL: Setting parameter langevinTemp to 120
TCL: Running for 100000 steps
ETITLE: TS BOND ANGLE DIHED IMPRP ELECT VDW BOUNDARY MISC KINETIC TOTAL TEMP POTENTIAL TOTAL3 TEMPAVG PRESSURE GPRESSURE VOLUME PRESSAVG GPRESSAVG
ENERGY: 300000 0.0719 2.3241 1.0846 0.0000 -13904.3452 2365.8593 0.0000 0.0000 535.1063 -10999.8991 91.5133 -11535.0054 -10998.7243 91.5133 -156.0506 -103.8159 28649.0007 -156.0506 -103.8159
ENERGY: 400000 0.1455 1.8909 0.7414 0.0000 -13862.3469 2433.7929 0.0000 0.0000 720.7079 -10705.0684 123.2546 -11425.7763 -10702.5370 120.0124 950.8054 1017.3278 28389.9918 4.2746 4.4578
TCL: Running 100000 steps at 150 kelvin.
TCL: Setting parameter langevinTemp to 150
TCL: Running for 100000 steps
ETITLE: TS BOND ANGLE DIHED IMPRP ELECT VDW BOUNDARY MISC KINETIC TOTAL TEMP POTENTIAL TOTAL3 TEMPAVG PRESSURE GPRESSURE VOLUME PRESSAVG GPRESSAVG
ENERGY: 400000 0.1455 1.8909 0.7414 0.0000 -13862.3469 2433.7929 0.0000 0.0000 720.3501 -10705.4261 123.1934 -11425.7763 -10704.0095 123.1934 964.0980 1018.3218 28389.9918 964.0980 1018.3218
ENERGY: 500000 0.5431 2.2525 1.7630 0.0000 -13548.5675 2289.4249 0.0000 0.0000 859.7815 -10394.8026 147.0388 -11254.5841 -10393.4016 149.9691 468.1153 519.1441 28372.2766 4.0522 4.0859
TCL: Running 100000 steps at 180 kelvin.
TCL: Setting parameter langevinTemp to 180
TCL: Running for 100000 steps
ETITLE: TS BOND ANGLE DIHED IMPRP ELECT VDW BOUNDARY MISC KINETIC TOTAL TEMP POTENTIAL TOTAL3 TEMPAVG PRESSURE GPRESSURE VOLUME PRESSAVG GPRESSAVG
ENERGY: 500000 0.5431 2.2525 1.7630 0.0000 -13548.5675 2289.4249 0.0000 0.0000 859.3398 -10395.2442 146.9633 -11254.5841 -10393.7190 146.9633 487.5404 519.7313 28372.2766 487.5404 519.7313
ENERGY: 600000 0.6384 4.0125 1.2225 0.0000 -13072.9770 2078.8200 0.0000 0.0000 1040.5880 -9947.6956 177.9601 -10988.2836 -9946.3497 179.3685 -345.4724 -311.4436 28684.9132 3.7042 3.8625
TCL: Running 100000 steps at 210 kelvin.
TCL: Setting parameter langevinTemp to 210
TCL: Running for 100000 steps
ETITLE: TS BOND ANGLE DIHED IMPRP ELECT VDW BOUNDARY MISC KINETIC TOTAL TEMP POTENTIAL TOTAL3 TEMPAVG PRESSURE GPRESSURE VOLUME PRESSAVG GPRESSAVG
ENERGY: 600000 0.6384 4.0125 1.2225 0.0000 -13072.9770 2078.8200 0.0000 0.0000 1040.0628 -9948.2208 177.8703 -10988.2836 -9945.8615 177.8703 -366.8664 -312.6847 28684.9132 -366.8664 -312.6847
ENERGY: 700000 0.2972 3.4121 0.7041 0.0000 -12444.9012 1927.2610 0.0000 0.0000 1207.3457 -9305.8811 206.4788 -10513.2268 -9301.9020 210.1112 335.9946 459.4923 28381.1599 3.6218 3.7665
TCL: Running 100000 steps at 240 kelvin.
TCL: Setting parameter langevinTemp to 240
TCL: Running for 100000 steps
ETITLE: TS BOND ANGLE DIHED IMPRP ELECT VDW BOUNDARY MISC KINETIC TOTAL TEMP POTENTIAL TOTAL3 TEMPAVG PRESSURE GPRESSURE VOLUME PRESSAVG GPRESSAVG
ENERGY: 700000 0.2972 3.4121 0.7041 0.0000 -12444.9012 1927.2610 0.0000 0.0000 1206.7270 -9306.4998 206.3730 -10513.2268 -9304.5199 206.3730 386.9548 459.7787 28381.1599 386.9548 459.7787
ENERGY: 800000 2.2648 2.0256 0.2974 0.0000 -11707.9163 1686.8907 0.0000 0.0000 1360.3463 -8656.0914 232.6448 -10016.4377 -8653.6751 240.1397 45.8290 146.6398 28760.3812 2.4539 2.5317
TCL: Running 100000 steps at 270 kelvin.
TCL: Setting parameter langevinTemp to 270
TCL: Running for 100000 steps
ETITLE: TS BOND ANGLE DIHED IMPRP ELECT VDW BOUNDARY MISC KINETIC TOTAL TEMP POTENTIAL TOTAL3 TEMPAVG PRESSURE GPRESSURE VOLUME PRESSAVG GPRESSAVG
ENERGY: 800000 2.2648 2.0256 0.2974 0.0000 -11707.9163 1686.8907 0.0000 0.0000 1359.6615 -8656.7762 232.5277 -10016.4377 -8654.9121 232.5277 58.8969 147.3562 28760.3812 58.8969 147.3562
ENERGY: 900000 0.6556 2.2865 1.4376 0.0000 -11174.3377 1550.5086 0.0000 0.0000 1577.2980 -8042.1515 269.7476 -9619.4495 -8038.4586 269.7151 26.9903 119.4497 29459.2865 3.6741 3.6992
TCL: Running 1000000 steps at 300 kelvin.
TCL: Setting parameter langevinTemp to 300
TCL: Running for 1000000 steps
ETITLE: TS BOND ANGLE DIHED IMPRP ELECT VDW BOUNDARY MISC KINETIC TOTAL TEMP POTENTIAL TOTAL3 TEMPAVG PRESSURE GPRESSURE VOLUME PRESSAVG GPRESSAVG
ENERGY: 900000 0.6556 2.2865 1.4376 0.0000 -11174.3377 1550.5086 0.0000 0.0000 1576.5133 -8042.9362 269.6134 -9619.4495 -8039.8174 269.6134 31.9036 119.8714 29459.2865 31.9036 119.8714
ENERGY: 1100000 3.0265 5.7745 1.5166 0.0000 -10616.9517 1427.2420 0.0000 0.0000 1761.5239 -7417.8682 301.2538 -9179.3921 -7415.6857 299.9775 1.4538 49.9635 30249.7083 3.0148 3.0179
ENERGY: 1300000 1.4795 6.0655 1.3927 0.0000 -10398.0387 1250.5516 0.0000 0.0000 1737.4822 -7401.0672 297.1422 -9138.5494 -7396.8873 299.8453 -1274.7667 -1172.2701 30457.1189 3.4438 3.3187
ENERGY: 1500000 0.5362 6.4596 0.7535 0.0000 -10857.7748 1626.4817 0.0000 0.0000 1748.5763 -7474.9675 299.0395 -9223.5438 -7470.7471 300.2325 1655.3414 1707.0796 29927.2090 3.4536 3.3411
ENERGY: 1700000 0.6905 8.8488 0.6304 0.0000 -10611.8636 1413.0913 0.0000 0.0000 1739.4236 -7449.1789 297.4742 -9188.6025 -7447.9111 300.2158 -17.3474 92.5905 30356.1324 3.2926 3.2092
ENERGY: 1900000 1.7824 7.8754 3.6468 0.0000 -10650.8988 1381.5142 0.0000 0.0000 1771.6627 -7484.4173 302.9877 -9256.0800 -7479.9040 300.3389 -342.9810 -305.0880 30228.2551 4.4826 4.1163
TCL: Exiting due to exit command.
