Info: SIMULATION PARAMETERS:
Info: TIMESTEP               2
Info: NUMBER OF STEPS        0
Info: STEPS PER CYCLE        10
Info: PERIODIC CELL BASIS 1  32.955 0 0
Info: PERIODIC CELL BASIS 2  0 33.399 0
Info: PERIODIC CELL BASIS 3  0 0 39.271
Info: PERIODIC CELL CENTER   0 0 0
Info: WRAPPING WATERS AROUND PERIODIC BOUNDARIES ON OUTPUT.
Info: WRAPPING ALL CLUSTERS AROUND PERIODIC BOUNDARIES ON OUTPUT.
Info: FIRST LDB TIMESTEP     50
Info: LAST LDB TIMESTEP     -1
Info: HOM BACKGROUND SCALING 1
Info: PME BACKGROUND SCALING 1
Info: MIN ATOMS PER PATCH    40
Info: EMPTY PATCH LOAD       40 ATOMS
Info: INITIAL TEMPERATURE    300
Info: CENTER OF MASS MOVING INITIALLY? NO
Info: DIELECTRIC             1
Info: EXCLUDE                SCALED ONE-FOUR
Info: 1-4 ELECTROSTATICS SCALED BY 0.833333
Info: MODIFIED 1-4 VDW PARAMETERS WILL BE USED
Info: DCD FILENAME           mobley_5456566_equil.dcd
Info: DCD FREQUENCY          100000
Info: DCD FIRST STEP         100000
Info: DCD FILE WILL CONTAIN UNIT CELL DATA
Info: XST FILENAME           mobley_5456566_equil.xst
Info: XST FREQUENCY          100000
Info: NO VELOCITY DCD OUTPUT
Info: NO FORCE DCD OUTPUT
Info: OUTPUT FILENAME        mobley_5456566_equil
Info: BINARY OUTPUT FILES WILL BE USED
Info: RESTART FILENAME       mobley_5456566_equil.restart
Info: RESTART FREQUENCY      100000
Info: BINARY RESTART FILES WILL BE USED
Info: CUTOFF                 9
Info: PAIRLIST DISTANCE      11
Info: PAIRLIST SHRINK RATE   0.01
Info: PAIRLIST GROW RATE     0.01
Info: PAIRLIST TRIGGER       0.3
Info: PAIRLISTS PER CYCLE    2
Info: PAIRLISTS ENABLED
Info: MARGIN                 8
Info: HYDROGEN GROUP CUTOFF  2.5
Info: PATCH DIMENSION        21.5
Info: ENERGY OUTPUT STEPS    100000
Info: ENERGY EVALUATION STEPS    100000
Info: OUTPUT ENERGY PRECISION 4
Info: CROSSTERM ENERGY INCLUDED IN DIHEDRAL
Info: TIMING OUTPUT STEPS    1000000
Info: PRESSURE OUTPUT STEPS  100000
Info: LANGEVIN DYNAMICS ACTIVE
Info: LANGEVIN TEMPERATURE   30
Info: LANGEVIN USING BBK INTEGRATOR
Info: LANGEVIN DAMPING COEFFICIENT IS 1 INVERSE PS
Info: LANGEVIN DYNAMICS APPLIED TO HYDROGENS
Info: LANGEVIN PISTON PRESSURE CONTROL ACTIVE
Info:        TARGET PRESSURE IS 1.01325 BAR
Info:     OSCILLATION PERIOD IS 50 FS
Info:             DECAY TIME IS 25 FS
Info:     PISTON TEMPERATURE IS 300 K
Info:       PRESSURE CONTROL IS GROUP-BASED
Info:    INITIAL STRAIN RATE IS 0 0 0
Info:       CELL FLUCTUATION IS ISOTROPIC
Info: PARTICLE MESH EWALD (PME) ACTIVE
Info: PME TOLERANCE               1e-06
Info: PME EWALD COEFFICIENT       0.348832
Info: PME INTERPOLATION ORDER     4
Info: PME GRID DIMENSIONS         36 36 40
Info: PME MAXIMUM GRID SPACING    1
Info: FULL ELECTROSTATIC EVALUATION FREQUENCY      2
Info: USING VERLET I (r-RESPA) MTS SCHEME.
Info: C1 SPLITTING OF LONG RANGE ELECTROSTATICS
Info: PLACING ATOMS IN PATCHES BY HYDROGEN GROUPS
Info: RIGID BONDS TO HYDROGEN : ALL
Info:         ERROR TOLERANCE : 1e-08
Info:          MAX ITERATIONS : 100
Info: RIGID WATER USING SETTLE ALGORITHM
Info: RANDOM NUMBER SEED     1743235243
Info: USE HYDROGEN BONDS?    NO
Info: Using AMBER format force field!
Info: AMBER PARM FILE        mobley_5456566.prmtop
Info: COORDINATE PDB         mobley_5456566.pdb
Info: Exclusions will be read from PARM file!
Info: SCNB (VDW SCALING)     2
Info: USING ARITHMETIC MEAN TO COMBINE L-J SIGMA PARAMETERS
Info: BINARY COORDINATES     mobley_5456566_min.coor
Info: SUMMARY OF PARAMETERS:
Info: 6 BONDS
Info: 6 ANGLES
Info:   6 HARMONIC
Info:   0 COSINE-BASED
Info: 3 DIHEDRAL
Info: 0 IMPROPER
Info: 0 CROSSTERM
Info: 0 VDW
Info: 10 VDW_PAIRS
Info: 0 NBTHOLE_PAIRS
Info: STRUCTURE SUMMARY:
Info: 2926 ATOMS
Info: 2927 BONDS
Info: 36 ANGLES
Info: 64 DIHEDRALS
Info: 0 IMPROPERS
Info: 0 CROSSTERMS
Info: 3009 EXCLUSIONS
Info: 2904 RIGID BONDS
Info: 5874 DEGREES OF FREEDOM
Info: 990 HYDROGEN GROUPS
Info: 3 ATOMS IN LARGEST HYDROGEN GROUP
Info: 990 MIGRATION GROUPS
Info: 3 ATOMS IN LARGEST MIGRATION GROUP
Info: TOTAL MASS = 17938.1 amu
Info: TOTAL CHARGE = 0.000100011 e
Info: MASS DENSITY = 0.689143 g/cm^3
Info: ATOM DENSITY = 0.0676936 atoms/A^3
Info: ADDED 0 IMPLICIT EXCLUSIONS
Info: NONBONDED TABLE R-SQUARED SPACING: 0.0625
Info: NONBONDED TABLE SIZE: 705 POINTS
Info: REMOVING COM VELOCITY -0.0600167 -0.0897516 -0.179125
TCL: Running for 100000 steps
ETITLE: TS BOND ANGLE DIHED IMPRP ELECT VDW BOUNDARY MISC KINETIC TOTAL TEMP POTENTIAL TOTAL3 TEMPAVG PRESSURE GPRESSURE VOLUME PRESSAVG GPRESSAVG
ENERGY: 0 0.7876 0.1116 7.8100 0.0000 -13403.1982 2343.9534 0.0000 0.0000 1761.7419 -9288.7936 301.8552 -11050.5356 -9288.4583 301.8552 401.3680 439.7969 43224.1777 401.3680 439.7969
ENERGY: 100000 2.0866 0.3477 8.1813 0.0000 -14033.9072 2428.0344 0.0000 0.0000 173.3065 -11421.9509 29.6942 -11595.2574 -11421.4495 30.8976 -246.2441 -172.4990 28758.4810 4.2283 4.1454
TCL: Running 100000 steps at 60 kelvin.
TCL: Setting parameter langevinTemp to 60
TCL: Running for 100000 steps
ETITLE: TS BOND ANGLE DIHED IMPRP ELECT VDW BOUNDARY MISC KINETIC TOTAL TEMP POTENTIAL TOTAL3 TEMPAVG PRESSURE GPRESSURE VOLUME PRESSAVG GPRESSAVG
ENERGY: 100000 2.0866 0.3477 8.1813 0.0000 -14033.9072 2428.0344 0.0000 0.0000 173.2207 -11422.0367 29.6795 -11595.2574 -11421.6651 29.6795 -236.8742 -172.5120 28758.4810 -236.8742 -172.5120
ENERGY: 200000 1.5089 1.1499 9.3888 0.0000 -13855.0475 2320.2674 0.0000 0.0000 349.3364 -11173.3961 59.8550 -11522.7325 -11172.9608 60.0154 -681.8191 -609.2536 28945.7273 3.3361 3.3753
TCL: Running 100000 steps at 90 kelvin.
TCL: Setting parameter langevinTemp to 90
TCL: Running for 100000 steps
ETITLE: TS BOND ANGLE DIHED IMPRP ELECT VDW BOUNDARY MISC KINETIC TOTAL TEMP POTENTIAL TOTAL3 TEMPAVG PRESSURE GPRESSURE VOLUME PRESSAVG GPRESSAVG
ENERGY: 200000 1.5089 1.1499 9.3888 0.0000 -13855.0475 2320.2674 0.0000 0.0000 349.1563 -11173.5762 59.8241 -11522.7325 -11172.8002 59.8241 -673.7847 -609.5726 28945.7273 -673.7847 -609.5726
ENERGY: 300000 1.8373 1.3254 8.7910 0.0000 -13894.7410 2435.4471 0.0000 0.0000 529.7512 -10917.5890 90.7671 -11447.3403 -10916.5943 89.9162 937.3715 920.1108 28284.3585 4.9480 4.9514
TCL: Running 100000 steps at 120 kelvin.
TCL: Setting parameter langevinTemp to 120
TCL: Running for 100000 steps
ETITLE: TS BOND ANGLE DIHED IMPRP ELECT VDW BOUNDARY MISC KINETIC TOTAL TEMP POTENTIAL TOTAL3 TEMPAVG PRESSURE GPRESSURE VOLUME PRESSAVG GPRESSAVG
ENERGY: 300000 1.8373 1.3254 8.7910 0.0000 -13894.7410 2435.4471 0.0000 0.0000 529.4886 -10917.8516 90.7221 -11447.3403 -10917.0105 90.7221 874.9557 919.8532 28284.3585 874.9557 919.8532
ENERGY: 400000 6.5825 2.3217 11.4870 0.0000 -13465.0614 2156.1563 0.0000 0.0000 691.2935 -10597.2204 118.4456 -11288.5139 -10595.5470 119.7737 -1285.2176 -1182.0685 28699.0528 3.7655 3.7309
TCL: Running 100000 steps at 150 kelvin.
TCL: Setting parameter langevinTemp to 150
TCL: Running for 100000 steps
ETITLE: TS BOND ANGLE DIHED IMPRP ELECT VDW BOUNDARY MISC KINETIC TOTAL TEMP POTENTIAL TOTAL3 TEMPAVG PRESSURE GPRESSURE VOLUME PRESSAVG GPRESSAVG
ENERGY: 400000 6.5825 2.3217 11.4870 0.0000 -13465.0614 2156.1563 0.0000 0.0000 690.9497 -10597.5643 118.3867 -11288.5139 -10596.2258 118.3867 -1244.1861 -1182.9409 28699.0528 -1244.1861 -1182.9409
ENERGY: 500000 6.9792 1.9064 9.6349 0.0000 -13147.8920 2016.7734 0.0000 0.0000 861.2124 -10251.3857 147.5594 -11112.5981 -10248.5373 149.9262 -1715.4600 -1632.9373 28770.5380 5.0542 5.0494
TCL: Running 100000 steps at 180 kelvin.
TCL: Setting parameter langevinTemp to 180
TCL: Running for 100000 steps
ETITLE: TS BOND ANGLE DIHED IMPRP ELECT VDW BOUNDARY MISC KINETIC TOTAL TEMP POTENTIAL TOTAL3 TEMPAVG PRESSURE GPRESSURE VOLUME PRESSAVG GPRESSAVG
ENERGY: 500000 6.9792 1.9064 9.6349 0.0000 -13147.8920 2016.7734 0.0000 0.0000 860.8171 -10251.7811 147.4916 -11112.5981 -10249.9997 147.4916 -1693.9373 -1633.1602 28770.5380 -1693.9373 -1633.1602
ENERGY: 600000 4.0249 2.9932 13.0411 0.0000 -12930.5375 2006.2005 0.0000 0.0000 1020.9445 -9883.3334 174.9277 -10904.2778 -9880.5127 180.0526 -800.9967 -765.3318 28951.7986 4.9981 5.0297
TCL: Running 100000 steps at 210 kelvin.
TCL: Setting parameter langevinTemp to 210
TCL: Running for 100000 steps
ETITLE: TS BOND ANGLE DIHED IMPRP ELECT VDW BOUNDARY MISC KINETIC TOTAL TEMP POTENTIAL TOTAL3 TEMPAVG PRESSURE GPRESSURE VOLUME PRESSAVG GPRESSAVG
ENERGY: 600000 4.0249 2.9932 13.0411 0.0000 -12930.5375 2006.2005 0.0000 0.0000 1020.4339 -9883.8439 174.8402 -10904.2778 -9881.5178 174.8402 -840.0105 -765.3711 28951.7986 -840.0105 -765.3711
ENERGY: 700000 4.3622 4.1847 10.9984 0.0000 -12382.7324 1964.0598 0.0000 0.0000 1211.4016 -9187.7257 207.5604 -10399.1273 -9184.2120 209.4470 917.4591 1038.6425 28556.4283 4.6733 4.6641
TCL: Running 100000 steps at 240 kelvin.
TCL: Setting parameter langevinTemp to 240
TCL: Running for 100000 steps
ETITLE: TS BOND ANGLE DIHED IMPRP ELECT VDW BOUNDARY MISC KINETIC TOTAL TEMP POTENTIAL TOTAL3 TEMPAVG PRESSURE GPRESSURE VOLUME PRESSAVG GPRESSAVG
ENERGY: 700000 4.3622 4.1847 10.9984 0.0000 -12382.7324 1964.0598 0.0000 0.0000 1210.8161 -9188.3112 207.4601 -10399.1273 -9186.8810 207.4601 955.9133 1040.0533 28556.4283 955.9133 1040.0533
ENERGY: 800000 6.9230 3.7739 11.7572 0.0000 -11572.7742 1625.7396 0.0000 0.0000 1374.8403 -8549.7401 235.5639 -9924.5805 -8546.8346 239.9723 -633.1046 -551.8345 29461.4948 5.9177 5.7152
TCL: Running 100000 steps at 270 kelvin.
TCL: Setting parameter langevinTemp to 270
TCL: Running for 100000 steps
ETITLE: TS BOND ANGLE DIHED IMPRP ELECT VDW BOUNDARY MISC KINETIC TOTAL TEMP POTENTIAL TOTAL3 TEMPAVG PRESSURE GPRESSURE VOLUME PRESSAVG GPRESSAVG
ENERGY: 800000 6.9230 3.7739 11.7572 0.0000 -11572.7742 1625.7396 0.0000 0.0000 1374.1391 -8550.4414 235.4437 -9924.5805 -8547.9409 235.4437 -636.2401 -553.4497 29461.4948 -636.2401 -553.4497
ENERGY: 900000 7.7129 4.6535 12.2994 0.0000 -11023.7207 1521.8623 0.0000 0.0000 1575.3441 -7901.8485 269.9180 -9477.1926 -7898.7681 269.9774 -438.1911 -294.8871 29763.6132 3.0148 2.9952
TCL: Running 1000000 steps at 300 kelvin.
TCL: Setting parameter langevinTemp to 300
TCL: Running for 1000000 steps
ETITLE: TS BOND ANGLE DIHED IMPRP ELECT VDW BOUNDARY MISC KINETIC TOTAL TEMP POTENTIAL TOTAL3 TEMPAVG PRESSURE GPRESSURE VOLUME PRESSAVG GPRESSAVG
ENERGY: 900000 7.7129 4.6535 12.2994 0.0000 -11023.7207 1521.8623 0.0000 0.0000 1574.5400 -7902.6526 269.7802 -9477.1926 -7899.7546 269.7802 -374.3032 -294.6176 29763.6132 -374.3032 -294.6176
ENERGY: 1100000 5.0145 5.1060 12.9247 0.0000 -10587.6418 1435.2024 0.0000 0.0000 1763.2181 -7366.1762 302.1082 -9129.3942 -7362.7352 299.9643 71.7497 219.1445 30568.1237 1.2806 1.1778
ENERGY: 1300000 7.0518 4.2697 11.9695 0.0000 -10492.2898 1344.8115 0.0000 0.0000 1721.9810 -7402.2064 295.0426 -9124.1874 -7397.5993 300.3160 -331.5197 -295.9197 30440.3886 3.1555 3.0640
ENERGY: 1500000 8.1169 5.1037 16.0084 0.0000 -10524.9923 1341.2692 0.0000 0.0000 1729.0278 -7425.4664 296.2500 -9154.4942 -7422.5924 300.4966 -674.3455 -620.7776 30329.4369 2.9437 2.9582
ENERGY: 1700000 7.5979 4.0806 14.9616 0.0000 -10639.6798 1476.5028 0.0000 0.0000 1782.8000 -7353.7369 305.4633 -9136.5369 -7348.3284 299.8437 629.0685 705.9389 30310.7322 3.4714 3.3791
ENERGY: 1900000 11.6195 3.8499 11.6322 0.0000 -10412.2765 1348.1417 0.0000 0.0000 1805.9785 -7231.0547 309.4347 -9037.0332 -7228.6842 300.1280 -195.6493 -80.6865 30326.0510 2.6739 2.8475
TCL: Exiting due to exit command.
