Info: SIMULATION PARAMETERS:
Info: TIMESTEP               2
Info: NUMBER OF STEPS        0
Info: STEPS PER CYCLE        10
Info: PERIODIC CELL BASIS 1  34.986 0 0
Info: PERIODIC CELL BASIS 2  0 34.1 0
Info: PERIODIC CELL BASIS 3  0 0 36.583
Info: PERIODIC CELL CENTER   0 0 0
Info: WRAPPING WATERS AROUND PERIODIC BOUNDARIES ON OUTPUT.
Info: WRAPPING ALL CLUSTERS AROUND PERIODIC BOUNDARIES ON OUTPUT.
Info: FIRST LDB TIMESTEP     50
Info: LAST LDB TIMESTEP     -1
Info: HOM BACKGROUND SCALING 1
Info: PME BACKGROUND SCALING 1
Info: MIN ATOMS PER PATCH    40
Info: EMPTY PATCH LOAD       40 ATOMS
Info: INITIAL TEMPERATURE    300
Info: CENTER OF MASS MOVING INITIALLY? NO
Info: DIELECTRIC             1
Info: EXCLUDE                SCALED ONE-FOUR
Info: 1-4 ELECTROSTATICS SCALED BY 0.833333
Info: MODIFIED 1-4 VDW PARAMETERS WILL BE USED
Info: DCD FILENAME           mobley_1849020_equil.dcd
Info: DCD FREQUENCY          100000
Info: DCD FIRST STEP         100000
Info: DCD FILE WILL CONTAIN UNIT CELL DATA
Info: XST FILENAME           mobley_1849020_equil.xst
Info: XST FREQUENCY          100000
Info: NO VELOCITY DCD OUTPUT
Info: NO FORCE DCD OUTPUT
Info: OUTPUT FILENAME        mobley_1849020_equil
Info: BINARY OUTPUT FILES WILL BE USED
Info: RESTART FILENAME       mobley_1849020_equil.restart
Info: RESTART FREQUENCY      100000
Info: BINARY RESTART FILES WILL BE USED
Info: CUTOFF                 9
Info: PAIRLIST DISTANCE      11
Info: PAIRLIST SHRINK RATE   0.01
Info: PAIRLIST GROW RATE     0.01
Info: PAIRLIST TRIGGER       0.3
Info: PAIRLISTS PER CYCLE    2
Info: PAIRLISTS ENABLED
Info: MARGIN                 8
Info: HYDROGEN GROUP CUTOFF  2.5
Info: PATCH DIMENSION        21.5
Info: ENERGY OUTPUT STEPS    100000
Info: ENERGY EVALUATION STEPS    100000
Info: OUTPUT ENERGY PRECISION 4
Info: CROSSTERM ENERGY INCLUDED IN DIHEDRAL
Info: TIMING OUTPUT STEPS    1000000
Info: PRESSURE OUTPUT STEPS  100000
Info: LANGEVIN DYNAMICS ACTIVE
Info: LANGEVIN TEMPERATURE   30
Info: LANGEVIN USING BBK INTEGRATOR
Info: LANGEVIN DAMPING COEFFICIENT IS 1 INVERSE PS
Info: LANGEVIN DYNAMICS APPLIED TO HYDROGENS
Info: LANGEVIN PISTON PRESSURE CONTROL ACTIVE
Info:        TARGET PRESSURE IS 1.01325 BAR
Info:     OSCILLATION PERIOD IS 50 FS
Info:             DECAY TIME IS 25 FS
Info:     PISTON TEMPERATURE IS 300 K
Info:       PRESSURE CONTROL IS GROUP-BASED
Info:    INITIAL STRAIN RATE IS 0 0 0
Info:       CELL FLUCTUATION IS ISOTROPIC
Info: PARTICLE MESH EWALD (PME) ACTIVE
Info: PME TOLERANCE               1e-06
Info: PME EWALD COEFFICIENT       0.348832
Info: PME INTERPOLATION ORDER     4
Info: PME GRID DIMENSIONS         36 36 40
Info: PME MAXIMUM GRID SPACING    1
Info: FULL ELECTROSTATIC EVALUATION FREQUENCY      2
Info: USING VERLET I (r-RESPA) MTS SCHEME.
Info: C1 SPLITTING OF LONG RANGE ELECTROSTATICS
Info: PLACING ATOMS IN PATCHES BY HYDROGEN GROUPS
Info: RIGID BONDS TO HYDROGEN : ALL
Info:         ERROR TOLERANCE : 1e-08
Info:          MAX ITERATIONS : 100
Info: RIGID WATER USING SETTLE ALGORITHM
Info: RANDOM NUMBER SEED     1743264855
Info: USE HYDROGEN BONDS?    NO
Info: Using AMBER format force field!
Info: AMBER PARM FILE        mobley_1849020.prmtop
Info: COORDINATE PDB         mobley_1849020.pdb
Info: Exclusions will be read from PARM file!
Info: SCNB (VDW SCALING)     2
Info: USING ARITHMETIC MEAN TO COMBINE L-J SIGMA PARAMETERS
Info: BINARY COORDINATES     mobley_1849020_min.coor
Info: SUMMARY OF PARAMETERS:
Info: 15 BONDS
Info: 20 ANGLES
Info:   20 HARMONIC
Info:   0 COSINE-BASED
Info: 13 DIHEDRAL
Info: 0 IMPROPER
Info: 0 CROSSTERM
Info: 0 VDW
Info: 78 VDW_PAIRS
Info: 0 NBTHOLE_PAIRS
Info: STRUCTURE SUMMARY:
Info: 2902 ATOMS
Info: 2902 BONDS
Info: 58 ANGLES
Info: 81 DIHEDRALS
Info: 0 IMPROPERS
Info: 0 CROSSTERMS
Info: 3022 EXCLUSIONS
Info: 2884 RIGID BONDS
Info: 5822 DEGREES OF FREEDOM
Info: 974 HYDROGEN GROUPS
Info: 4 ATOMS IN LARGEST HYDROGEN GROUP
Info: 974 MIGRATION GROUPS
Info: 4 ATOMS IN LARGEST MIGRATION GROUP
Info: TOTAL MASS = 17566.1 amu
Info: TOTAL CHARGE = -5.96046e-08 e
Info: MASS DENSITY = 0.668355 g/cm^3
Info: ATOM DENSITY = 0.066492 atoms/A^3
Info: ADDED 0 IMPLICIT EXCLUSIONS
Info: NONBONDED TABLE R-SQUARED SPACING: 0.0625
Info: NONBONDED TABLE SIZE: 705 POINTS
Info: REMOVING COM VELOCITY -0.192884 -0.0190892 0.074984
TCL: Running for 100000 steps
ETITLE: TS BOND ANGLE DIHED IMPRP ELECT VDW BOUNDARY MISC KINETIC TOTAL TEMP POTENTIAL TOTAL3 TEMPAVG PRESSURE GPRESSURE VOLUME PRESSAVG GPRESSAVG
ENERGY: 0 0.2178 1.4871 32.4736 0.0000 -13398.2651 2346.1548 0.0000 0.0000 1675.4898 -9342.4420 289.6410 -11017.9318 -9342.1297 289.6410 422.2627 456.5035 43644.3458 422.2627 456.5035
ENERGY: 100000 0.8331 2.0273 32.8211 0.0000 -13998.1178 2451.6308 0.0000 0.0000 173.5866 -11337.2189 30.0078 -11510.8054 -11336.7409 30.8714 326.4820 390.4144 28351.9686 2.6419 2.6118
TCL: Running 100000 steps at 60 kelvin.
TCL: Setting parameter langevinTemp to 60
TCL: Running for 100000 steps
ETITLE: TS BOND ANGLE DIHED IMPRP ELECT VDW BOUNDARY MISC KINETIC TOTAL TEMP POTENTIAL TOTAL3 TEMPAVG PRESSURE GPRESSURE VOLUME PRESSAVG GPRESSAVG
ENERGY: 100000 0.8331 2.0273 32.8211 0.0000 -13998.1178 2451.6308 0.0000 0.0000 173.4996 -11337.3059 29.9928 -11510.8054 -11336.9593 29.9928 323.8112 390.0597 28351.9686 323.8112 390.0597
ENERGY: 200000 1.0422 4.3055 28.2258 0.0000 -13884.4615 2396.3183 0.0000 0.0000 341.8659 -11112.7039 59.0982 -11454.5698 -11111.9200 59.9605 285.1428 323.5839 28123.0534 3.8400 3.9037
TCL: Running 100000 steps at 90 kelvin.
TCL: Setting parameter langevinTemp to 90
TCL: Running for 100000 steps
ETITLE: TS BOND ANGLE DIHED IMPRP ELECT VDW BOUNDARY MISC KINETIC TOTAL TEMP POTENTIAL TOTAL3 TEMPAVG PRESSURE GPRESSURE VOLUME PRESSAVG GPRESSAVG
ENERGY: 200000 1.0422 4.3055 28.2258 0.0000 -13884.4615 2396.3183 0.0000 0.0000 341.6863 -11112.8835 59.0671 -11454.5698 -11112.2092 59.0671 282.5354 323.8454 28123.0534 282.5354 323.8454
ENERGY: 300000 1.8899 7.2751 28.3477 0.0000 -13808.0813 2431.1521 0.0000 0.0000 514.1004 -10825.3161 88.8722 -11339.4165 -10824.1583 90.0627 914.6209 969.7903 28135.4738 5.0791 5.0535
TCL: Running 100000 steps at 120 kelvin.
TCL: Setting parameter langevinTemp to 120
TCL: Running for 100000 steps
ETITLE: TS BOND ANGLE DIHED IMPRP ELECT VDW BOUNDARY MISC KINETIC TOTAL TEMP POTENTIAL TOTAL3 TEMPAVG PRESSURE GPRESSURE VOLUME PRESSAVG GPRESSAVG
ENERGY: 300000 1.8899 7.2751 28.3477 0.0000 -13808.0813 2431.1521 0.0000 0.0000 513.8521 -10825.5643 88.8293 -11339.4165 -10824.6432 88.8293 926.9968 969.5461 28135.4738 926.9968 969.5461
ENERGY: 400000 2.6840 7.0207 22.8516 0.0000 -13430.4460 2154.7807 0.0000 0.0000 706.6785 -10536.4304 122.1631 -11243.1090 -10534.8294 120.0677 -1168.3168 -1106.9483 28524.0862 3.6796 3.5271
TCL: Running 100000 steps at 150 kelvin.
TCL: Setting parameter langevinTemp to 150
TCL: Running for 100000 steps
ETITLE: TS BOND ANGLE DIHED IMPRP ELECT VDW BOUNDARY MISC KINETIC TOTAL TEMP POTENTIAL TOTAL3 TEMPAVG PRESSURE GPRESSURE VOLUME PRESSAVG GPRESSAVG
ENERGY: 400000 2.6840 7.0207 22.8516 0.0000 -13430.4460 2154.7807 0.0000 0.0000 706.3226 -10536.7863 122.1016 -11243.1090 -10535.1741 122.1016 -1157.5847 -1108.1921 28524.0862 -1157.5847 -1108.1921
ENERGY: 500000 3.0729 9.8560 22.5099 0.0000 -13170.7547 2096.1403 0.0000 0.0000 869.2791 -10169.8964 150.2718 -11039.1755 -10167.8428 149.9931 -810.6118 -786.5366 28608.5282 1.8605 1.9021
TCL: Running 100000 steps at 180 kelvin.
TCL: Setting parameter langevinTemp to 180
TCL: Running for 100000 steps
ETITLE: TS BOND ANGLE DIHED IMPRP ELECT VDW BOUNDARY MISC KINETIC TOTAL TEMP POTENTIAL TOTAL3 TEMPAVG PRESSURE GPRESSURE VOLUME PRESSAVG GPRESSAVG
ENERGY: 500000 3.0729 9.8560 22.5099 0.0000 -13170.7547 2096.1403 0.0000 0.0000 868.8733 -10170.3022 150.2016 -11039.1755 -10168.5379 150.2016 -834.5567 -786.1053 28608.5282 -834.5567 -786.1053
ENERGY: 600000 2.1281 10.6920 23.0153 0.0000 -12833.9249 1978.4320 0.0000 0.0000 1044.5237 -9775.1338 180.5662 -10819.6575 -9772.5884 180.0083 -457.2018 -373.3209 28191.3732 3.8942 3.7397
TCL: Running 100000 steps at 210 kelvin.
TCL: Setting parameter langevinTemp to 210
TCL: Running for 100000 steps
ETITLE: TS BOND ANGLE DIHED IMPRP ELECT VDW BOUNDARY MISC KINETIC TOTAL TEMP POTENTIAL TOTAL3 TEMPAVG PRESSURE GPRESSURE VOLUME PRESSAVG GPRESSAVG
ENERGY: 600000 2.1281 10.6920 23.0153 0.0000 -12833.9249 1978.4320 0.0000 0.0000 1044.0389 -9775.6186 180.4824 -10819.6575 -9773.4158 180.4824 -447.5241 -372.9440 28191.3732 -447.5241 -372.9440
ENERGY: 700000 5.3397 9.0167 26.7140 0.0000 -12146.8007 1817.8686 0.0000 0.0000 1217.1306 -9070.7311 210.4047 -10287.8617 -9068.5833 209.7658 -187.8192 -124.3219 28123.6691 1.8650 2.0317
TCL: Running 100000 steps at 240 kelvin.
TCL: Setting parameter langevinTemp to 240
TCL: Running for 100000 steps
ETITLE: TS BOND ANGLE DIHED IMPRP ELECT VDW BOUNDARY MISC KINETIC TOTAL TEMP POTENTIAL TOTAL3 TEMPAVG PRESSURE GPRESSURE VOLUME PRESSAVG GPRESSAVG
ENERGY: 700000 5.3397 9.0167 26.7140 0.0000 -12146.8007 1817.8686 0.0000 0.0000 1216.5346 -9071.3270 210.3016 -10287.8617 -9068.4306 210.3016 -214.4534 -125.5602 28123.6691 -214.4534 -125.5602
ENERGY: 800000 4.2450 12.2620 27.2458 0.0000 -11579.3157 1676.7872 0.0000 0.0000 1401.3803 -8457.3954 242.2558 -9858.7757 -8455.8516 239.4528 375.0868 449.9334 28365.7626 4.2807 4.2393
TCL: Running 100000 steps at 270 kelvin.
TCL: Setting parameter langevinTemp to 270
TCL: Running for 100000 steps
ETITLE: TS BOND ANGLE DIHED IMPRP ELECT VDW BOUNDARY MISC KINETIC TOTAL TEMP POTENTIAL TOTAL3 TEMPAVG PRESSURE GPRESSURE VOLUME PRESSAVG GPRESSAVG
ENERGY: 800000 4.2450 12.2620 27.2458 0.0000 -11579.3157 1676.7872 0.0000 0.0000 1400.7193 -8458.0564 242.1415 -9858.7757 -8455.0462 242.1415 353.5573 448.5921 28365.7626 353.5573 448.5921
ENERGY: 900000 3.8171 18.2402 23.4304 0.0000 -11025.5731 1520.9612 0.0000 0.0000 1570.1417 -7888.9825 271.4295 -9459.1242 -7887.8806 269.8550 41.0109 156.3725 29085.3714 4.0887 4.0021
TCL: Running 1000000 steps at 300 kelvin.
TCL: Setting parameter langevinTemp to 300
TCL: Running for 1000000 steps
ETITLE: TS BOND ANGLE DIHED IMPRP ELECT VDW BOUNDARY MISC KINETIC TOTAL TEMP POTENTIAL TOTAL3 TEMPAVG PRESSURE GPRESSURE VOLUME PRESSAVG GPRESSAVG
ENERGY: 900000 3.8171 18.2402 23.4304 0.0000 -11025.5731 1520.9612 0.0000 0.0000 1569.3832 -7889.7410 271.2984 -9459.1242 -7887.4143 271.2984 59.0363 152.3169 29085.3714 59.0363 152.3169
ENERGY: 1100000 6.8083 16.3892 26.3637 0.0000 -10565.9090 1423.0025 0.0000 0.0000 1707.8172 -7385.5282 295.2294 -9093.3453 -7382.6408 300.3167 127.7621 141.5943 30064.7603 3.6014 3.2791
ENERGY: 1300000 7.2270 16.7212 26.2408 0.0000 -10698.8581 1469.2911 0.0000 0.0000 1738.5764 -7440.8017 300.5467 -9179.3780 -7437.0928 300.3555 516.5127 623.8517 29393.7315 4.0077 3.9916
ENERGY: 1500000 4.5729 19.3601 26.2613 0.0000 -10464.8638 1375.0754 0.0000 0.0000 1726.8428 -7312.7513 298.5183 -9039.5941 -7311.6003 300.6890 -66.8909 29.6234 29903.9117 2.8724 2.7919
ENERGY: 1700000 5.4145 12.4780 27.3856 0.0000 -10467.3727 1392.7599 0.0000 0.0000 1714.9591 -7314.3755 296.4640 -9029.3345 -7310.1219 299.4818 82.2178 164.9299 30160.1312 3.7038 3.8133
ENERGY: 1900000 9.8549 13.6598 29.5551 0.0000 -10471.7786 1400.7713 0.0000 0.0000 1758.3225 -7259.6151 303.9602 -9017.9375 -7257.3148 300.1958 120.9357 178.6687 29977.7389 3.2936 3.2396
TCL: Exiting due to exit command.
