Info: SIMULATION PARAMETERS:
Info: TIMESTEP               2
Info: NUMBER OF STEPS        0
Info: STEPS PER CYCLE        10
Info: PERIODIC CELL BASIS 1  34.647 0 0
Info: PERIODIC CELL BASIS 2  0 34.26 0
Info: PERIODIC CELL BASIS 3  0 0 36.583
Info: PERIODIC CELL CENTER   0 0 0
Info: WRAPPING WATERS AROUND PERIODIC BOUNDARIES ON OUTPUT.
Info: WRAPPING ALL CLUSTERS AROUND PERIODIC BOUNDARIES ON OUTPUT.
Info: FIRST LDB TIMESTEP     50
Info: LAST LDB TIMESTEP     -1
Info: HOM BACKGROUND SCALING 1
Info: PME BACKGROUND SCALING 1
Info: MIN ATOMS PER PATCH    40
Info: EMPTY PATCH LOAD       40 ATOMS
Info: INITIAL TEMPERATURE    300
Info: CENTER OF MASS MOVING INITIALLY? NO
Info: DIELECTRIC             1
Info: EXCLUDE                SCALED ONE-FOUR
Info: 1-4 ELECTROSTATICS SCALED BY 0.833333
Info: MODIFIED 1-4 VDW PARAMETERS WILL BE USED
Info: DCD FILENAME           mobley_1903702_equil.dcd
Info: DCD FREQUENCY          100000
Info: DCD FIRST STEP         100000
Info: DCD FILE WILL CONTAIN UNIT CELL DATA
Info: XST FILENAME           mobley_1903702_equil.xst
Info: XST FREQUENCY          100000
Info: NO VELOCITY DCD OUTPUT
Info: NO FORCE DCD OUTPUT
Info: OUTPUT FILENAME        mobley_1903702_equil
Info: BINARY OUTPUT FILES WILL BE USED
Info: RESTART FILENAME       mobley_1903702_equil.restart
Info: RESTART FREQUENCY      100000
Info: BINARY RESTART FILES WILL BE USED
Info: CUTOFF                 9
Info: PAIRLIST DISTANCE      11
Info: PAIRLIST SHRINK RATE   0.01
Info: PAIRLIST GROW RATE     0.01
Info: PAIRLIST TRIGGER       0.3
Info: PAIRLISTS PER CYCLE    2
Info: PAIRLISTS ENABLED
Info: MARGIN                 8
Info: HYDROGEN GROUP CUTOFF  2.5
Info: PATCH DIMENSION        21.5
Info: ENERGY OUTPUT STEPS    100000
Info: ENERGY EVALUATION STEPS    100000
Info: OUTPUT ENERGY PRECISION 4
Info: CROSSTERM ENERGY INCLUDED IN DIHEDRAL
Info: TIMING OUTPUT STEPS    1000000
Info: PRESSURE OUTPUT STEPS  100000
Info: LANGEVIN DYNAMICS ACTIVE
Info: LANGEVIN TEMPERATURE   30
Info: LANGEVIN USING BBK INTEGRATOR
Info: LANGEVIN DAMPING COEFFICIENT IS 1 INVERSE PS
Info: LANGEVIN DYNAMICS APPLIED TO HYDROGENS
Info: LANGEVIN PISTON PRESSURE CONTROL ACTIVE
Info:        TARGET PRESSURE IS 1.01325 BAR
Info:     OSCILLATION PERIOD IS 50 FS
Info:             DECAY TIME IS 25 FS
Info:     PISTON TEMPERATURE IS 300 K
Info:       PRESSURE CONTROL IS GROUP-BASED
Info:    INITIAL STRAIN RATE IS 0 0 0
Info:       CELL FLUCTUATION IS ISOTROPIC
Info: PARTICLE MESH EWALD (PME) ACTIVE
Info: PME TOLERANCE               1e-06
Info: PME EWALD COEFFICIENT       0.348832
Info: PME INTERPOLATION ORDER     4
Info: PME GRID DIMENSIONS         36 36 40
Info: PME MAXIMUM GRID SPACING    1
Info: FULL ELECTROSTATIC EVALUATION FREQUENCY      2
Info: USING VERLET I (r-RESPA) MTS SCHEME.
Info: C1 SPLITTING OF LONG RANGE ELECTROSTATICS
Info: PLACING ATOMS IN PATCHES BY HYDROGEN GROUPS
Info: RIGID BONDS TO HYDROGEN : ALL
Info:         ERROR TOLERANCE : 1e-08
Info:          MAX ITERATIONS : 100
Info: RIGID WATER USING SETTLE ALGORITHM
Info: RANDOM NUMBER SEED     1743227753
Info: USE HYDROGEN BONDS?    NO
Info: Using AMBER format force field!
Info: AMBER PARM FILE        mobley_1903702.prmtop
Info: COORDINATE PDB         mobley_1903702.pdb
Info: Exclusions will be read from PARM file!
Info: SCNB (VDW SCALING)     2
Info: USING ARITHMETIC MEAN TO COMBINE L-J SIGMA PARAMETERS
Info: BINARY COORDINATES     mobley_1903702_min.coor
Info: SUMMARY OF PARAMETERS:
Info: 7 BONDS
Info: 7 ANGLES
Info:   7 HARMONIC
Info:   0 COSINE-BASED
Info: 9 DIHEDRAL
Info: 0 IMPROPER
Info: 0 CROSSTERM
Info: 0 VDW
Info: 21 VDW_PAIRS
Info: 0 NBTHOLE_PAIRS
Info: STRUCTURE SUMMARY:
Info: 2910 ATOMS
Info: 2909 BONDS
Info: 25 ANGLES
Info: 39 DIHEDRALS
Info: 0 IMPROPERS
Info: 0 CROSSTERMS
Info: 2964 EXCLUSIONS
Info: 2905 RIGID BONDS
Info: 5825 DEGREES OF FREEDOM
Info: 970 HYDROGEN GROUPS
Info: 4 ATOMS IN LARGEST HYDROGEN GROUP
Info: 970 MIGRATION GROUPS
Info: 4 ATOMS IN LARGEST MIGRATION GROUP
Info: TOTAL MASS = 17459.6 amu
Info: TOTAL CHARGE = 0.00010002 e
Info: MASS DENSITY = 0.667667 g/cm^3
Info: ATOM DENSITY = 0.0670132 atoms/A^3
Info: ADDED 0 IMPLICIT EXCLUSIONS
Info: NONBONDED TABLE R-SQUARED SPACING: 0.0625
Info: NONBONDED TABLE SIZE: 705 POINTS
Info: REMOVING COM VELOCITY 0.0211692 0.0507192 0.034737
TCL: Running for 100000 steps
ETITLE: TS BOND ANGLE DIHED IMPRP ELECT VDW BOUNDARY MISC KINETIC TOTAL TEMP POTENTIAL TOTAL3 TEMPAVG PRESSURE GPRESSURE VOLUME PRESSAVG GPRESSAVG
ENERGY: 0 0.0467 0.3071 2.2309 0.0000 -13445.5943 2363.3156 0.0000 0.0000 1698.1553 -9381.5388 293.4079 -11079.6940 -9381.2252 293.4079 577.4533 610.1026 43424.2485 577.4533 610.1026
ENERGY: 100000 0.5365 0.6385 2.3866 0.0000 -14015.1950 2448.9926 0.0000 0.0000 173.2943 -11389.3465 29.9419 -11562.6408 -11388.9265 30.8315 108.8712 161.9392 28553.8425 4.4733 4.4358
TCL: Running 100000 steps at 60 kelvin.
TCL: Setting parameter langevinTemp to 60
TCL: Running for 100000 steps
ETITLE: TS BOND ANGLE DIHED IMPRP ELECT VDW BOUNDARY MISC KINETIC TOTAL TEMP POTENTIAL TOTAL3 TEMPAVG PRESSURE GPRESSURE VOLUME PRESSAVG GPRESSAVG
ENERGY: 100000 0.5365 0.6385 2.3866 0.0000 -14015.1950 2448.9926 0.0000 0.0000 173.2101 -11389.4307 29.9273 -11562.6408 -11389.0203 29.9273 114.2697 161.9448 28553.8425 114.2697 161.9448
ENERGY: 200000 0.2276 1.2888 1.9622 0.0000 -14027.1212 2515.5930 0.0000 0.0000 347.1366 -11160.9132 59.9784 -11508.0498 -11160.3288 59.9535 1142.0589 1167.2578 28153.1235 3.6011 3.6633
TCL: Running 100000 steps at 90 kelvin.
TCL: Setting parameter langevinTemp to 90
TCL: Running for 100000 steps
ETITLE: TS BOND ANGLE DIHED IMPRP ELECT VDW BOUNDARY MISC KINETIC TOTAL TEMP POTENTIAL TOTAL3 TEMPAVG PRESSURE GPRESSURE VOLUME PRESSAVG GPRESSAVG
ENERGY: 200000 0.2276 1.2888 1.9622 0.0000 -14027.1212 2515.5930 0.0000 0.0000 346.9717 -11161.0781 59.9499 -11508.0498 -11160.3219 59.9499 1123.5011 1167.4037 28153.1235 1123.5011 1167.4037
ENERGY: 300000 0.6970 1.7078 2.2766 0.0000 -13746.5114 2332.3178 0.0000 0.0000 512.1944 -10897.3178 88.4971 -11409.5122 -10896.0312 89.9273 -221.0934 -167.3526 28355.7944 4.3893 4.3598
TCL: Running 100000 steps at 120 kelvin.
TCL: Setting parameter langevinTemp to 120
TCL: Running for 100000 steps
ETITLE: TS BOND ANGLE DIHED IMPRP ELECT VDW BOUNDARY MISC KINETIC TOTAL TEMP POTENTIAL TOTAL3 TEMPAVG PRESSURE GPRESSURE VOLUME PRESSAVG GPRESSAVG
ENERGY: 300000 0.6970 1.7078 2.2766 0.0000 -13746.5114 2332.3178 0.0000 0.0000 511.9402 -10897.5720 88.4532 -11409.5122 -10896.8324 88.4532 -226.2774 -166.5342 28355.7944 -226.2774 -166.5342
ENERGY: 400000 0.8664 3.2371 2.3643 0.0000 -13587.2897 2296.5048 0.0000 0.0000 701.9793 -10582.3379 121.2883 -11284.3172 -10580.2126 119.8947 -163.2203 -135.8921 28733.1199 3.1409 3.0541
TCL: Running 100000 steps at 150 kelvin.
TCL: Setting parameter langevinTemp to 150
TCL: Running for 100000 steps
ETITLE: TS BOND ANGLE DIHED IMPRP ELECT VDW BOUNDARY MISC KINETIC TOTAL TEMP POTENTIAL TOTAL3 TEMPAVG PRESSURE GPRESSURE VOLUME PRESSAVG GPRESSAVG
ENERGY: 400000 0.8664 3.2371 2.3643 0.0000 -13587.2897 2296.5048 0.0000 0.0000 701.6357 -10582.6815 121.2289 -11284.3172 -10581.3417 121.2289 -173.7103 -135.6893 28733.1199 -173.7103 -135.6893
ENERGY: 500000 0.8118 3.3971 2.3556 0.0000 -13290.7107 2171.1455 0.0000 0.0000 846.2747 -10266.7260 146.2197 -11113.0007 -10265.0864 149.8682 -566.4621 -522.9486 28779.3091 4.2980 4.3827
TCL: Running 100000 steps at 180 kelvin.
TCL: Setting parameter langevinTemp to 180
TCL: Running for 100000 steps
ETITLE: TS BOND ANGLE DIHED IMPRP ELECT VDW BOUNDARY MISC KINETIC TOTAL TEMP POTENTIAL TOTAL3 TEMPAVG PRESSURE GPRESSURE VOLUME PRESSAVG GPRESSAVG
ENERGY: 500000 0.8118 3.3971 2.3556 0.0000 -13290.7107 2171.1455 0.0000 0.0000 845.8342 -10267.1665 146.1436 -11113.0007 -10265.0852 146.1436 -577.0128 -523.5617 28779.3091 -577.0128 -523.5617
ENERGY: 600000 1.2016 3.7083 2.6600 0.0000 -12904.7291 2064.8838 0.0000 0.0000 1009.2095 -9823.0660 174.3716 -10832.2755 -9820.8176 179.5684 -299.2498 -204.3004 28556.7851 4.2944 4.1528
TCL: Running 100000 steps at 210 kelvin.
TCL: Setting parameter langevinTemp to 210
TCL: Running for 100000 steps
ETITLE: TS BOND ANGLE DIHED IMPRP ELECT VDW BOUNDARY MISC KINETIC TOTAL TEMP POTENTIAL TOTAL3 TEMPAVG PRESSURE GPRESSURE VOLUME PRESSAVG GPRESSAVG
ENERGY: 600000 1.2016 3.7083 2.6600 0.0000 -12904.7291 2064.8838 0.0000 0.0000 1008.6777 -9823.5978 174.2797 -10832.2755 -9822.0234 174.2797 -280.1696 -204.7699 28556.7851 -280.1696 -204.7699
ENERGY: 700000 0.5408 3.9245 3.1993 0.0000 -12185.4170 1804.3187 0.0000 0.0000 1206.7990 -9166.6348 208.5112 -10373.4338 -9163.0435 210.0621 -706.7091 -611.2612 28403.2902 1.2352 1.2619
TCL: Running 100000 steps at 240 kelvin.
TCL: Setting parameter langevinTemp to 240
TCL: Running for 100000 steps
ETITLE: TS BOND ANGLE DIHED IMPRP ELECT VDW BOUNDARY MISC KINETIC TOTAL TEMP POTENTIAL TOTAL3 TEMPAVG PRESSURE GPRESSURE VOLUME PRESSAVG GPRESSAVG
ENERGY: 700000 0.5408 3.9245 3.1993 0.0000 -12185.4170 1804.3187 0.0000 0.0000 1206.2170 -9167.2167 208.4107 -10373.4338 -9164.9275 208.4107 -680.8184 -611.0175 28403.2902 -680.8184 -611.0175
ENERGY: 800000 0.3708 5.0787 2.8245 0.0000 -11634.6708 1738.1648 0.0000 0.0000 1402.4817 -8485.7503 242.3213 -9888.2320 -8481.9387 240.0285 770.2644 848.9426 28338.8467 2.7650 2.8509
TCL: Running 100000 steps at 270 kelvin.
TCL: Setting parameter langevinTemp to 270
TCL: Running for 100000 steps
ETITLE: TS BOND ANGLE DIHED IMPRP ELECT VDW BOUNDARY MISC KINETIC TOTAL TEMP POTENTIAL TOTAL3 TEMPAVG PRESSURE GPRESSURE VOLUME PRESSAVG GPRESSAVG
ENERGY: 800000 0.3708 5.0787 2.8245 0.0000 -11634.6708 1738.1648 0.0000 0.0000 1401.8117 -8486.4203 242.2056 -9888.2320 -8483.9606 242.2056 768.6761 848.2197 28338.8467 768.6761 848.2197
ENERGY: 900000 0.9970 7.7961 2.9426 0.0000 -11103.5664 1572.7964 0.0000 0.0000 1561.1617 -7957.8726 269.7381 -9519.0343 -7953.7048 271.0399 78.2674 160.2193 29424.1080 1.9978 1.8370
TCL: Running 1000000 steps at 300 kelvin.
TCL: Setting parameter langevinTemp to 300
TCL: Running for 1000000 steps
ETITLE: TS BOND ANGLE DIHED IMPRP ELECT VDW BOUNDARY MISC KINETIC TOTAL TEMP POTENTIAL TOTAL3 TEMPAVG PRESSURE GPRESSURE VOLUME PRESSAVG GPRESSAVG
ENERGY: 900000 0.9970 7.7961 2.9426 0.0000 -11103.5664 1572.7964 0.0000 0.0000 1560.3567 -7958.6777 269.5990 -9519.0343 -7956.5819 269.5990 72.5694 161.1656 29424.1080 72.5694 161.1656
ENERGY: 1100000 1.1258 7.5313 3.0854 0.0000 -10535.8793 1385.7663 0.0000 0.0000 1737.0407 -7401.3298 300.1266 -9138.3705 -7399.3677 299.6980 -440.5473 -307.6564 30130.0363 2.2918 2.2039
ENERGY: 1300000 0.3254 4.4273 3.0133 0.0000 -10657.6804 1503.0874 0.0000 0.0000 1698.4355 -7448.3915 293.4563 -9146.8269 -7442.8016 299.9129 582.5659 592.5897 29906.1032 2.8235 2.7370
ENERGY: 1500000 0.6665 5.0020 2.8776 0.0000 -10545.9620 1449.3381 0.0000 0.0000 1681.4703 -7406.6075 290.5251 -9088.0778 -7403.5892 300.8216 351.4884 414.2339 29738.2762 3.9241 3.9610
ENERGY: 1700000 0.3933 4.0520 3.7080 0.0000 -10637.7750 1461.0856 0.0000 0.0000 1733.8771 -7434.6590 299.5800 -9168.5361 -7432.5245 300.1860 166.0017 269.8003 30053.7139 2.3348 2.2822
ENERGY: 1900000 0.8952 9.4974 3.5307 0.0000 -10517.3590 1408.2055 0.0000 0.0000 1736.7948 -7358.4353 300.0841 -9095.2301 -7358.0589 300.7280 260.1537 346.4730 29525.4595 4.0620 3.9181
TCL: Exiting due to exit command.
