Info: SIMULATION PARAMETERS:
Info: TIMESTEP               2
Info: NUMBER OF STEPS        0
Info: STEPS PER CYCLE        10
Info: PERIODIC CELL BASIS 1  36.281 0 0
Info: PERIODIC CELL BASIS 2  0 35.411 0
Info: PERIODIC CELL BASIS 3  0 0 34.68
Info: PERIODIC CELL CENTER   0 0 0
Info: WRAPPING WATERS AROUND PERIODIC BOUNDARIES ON OUTPUT.
Info: WRAPPING ALL CLUSTERS AROUND PERIODIC BOUNDARIES ON OUTPUT.
Info: FIRST LDB TIMESTEP     50
Info: LAST LDB TIMESTEP     -1
Info: HOM BACKGROUND SCALING 1
Info: PME BACKGROUND SCALING 1
Info: MIN ATOMS PER PATCH    40
Info: EMPTY PATCH LOAD       40 ATOMS
Info: INITIAL TEMPERATURE    300
Info: CENTER OF MASS MOVING INITIALLY? NO
Info: DIELECTRIC             1
Info: EXCLUDE                SCALED ONE-FOUR
Info: 1-4 ELECTROSTATICS SCALED BY 0.833333
Info: MODIFIED 1-4 VDW PARAMETERS WILL BE USED
Info: DCD FILENAME           mobley_9653690_equil.dcd
Info: DCD FREQUENCY          100000
Info: DCD FIRST STEP         100000
Info: DCD FILE WILL CONTAIN UNIT CELL DATA
Info: XST FILENAME           mobley_9653690_equil.xst
Info: XST FREQUENCY          100000
Info: NO VELOCITY DCD OUTPUT
Info: NO FORCE DCD OUTPUT
Info: OUTPUT FILENAME        mobley_9653690_equil
Info: BINARY OUTPUT FILES WILL BE USED
Info: RESTART FILENAME       mobley_9653690_equil.restart
Info: RESTART FREQUENCY      100000
Info: BINARY RESTART FILES WILL BE USED
Info: CUTOFF                 9
Info: PAIRLIST DISTANCE      11
Info: PAIRLIST SHRINK RATE   0.01
Info: PAIRLIST GROW RATE     0.01
Info: PAIRLIST TRIGGER       0.3
Info: PAIRLISTS PER CYCLE    2
Info: PAIRLISTS ENABLED
Info: MARGIN                 8
Info: HYDROGEN GROUP CUTOFF  2.5
Info: PATCH DIMENSION        21.5
Info: ENERGY OUTPUT STEPS    100000
Info: ENERGY EVALUATION STEPS    100000
Info: OUTPUT ENERGY PRECISION 4
Info: CROSSTERM ENERGY INCLUDED IN DIHEDRAL
Info: TIMING OUTPUT STEPS    1000000
Info: PRESSURE OUTPUT STEPS  100000
Info: LANGEVIN DYNAMICS ACTIVE
Info: LANGEVIN TEMPERATURE   30
Info: LANGEVIN USING BBK INTEGRATOR
Info: LANGEVIN DAMPING COEFFICIENT IS 1 INVERSE PS
Info: LANGEVIN DYNAMICS APPLIED TO HYDROGENS
Info: LANGEVIN PISTON PRESSURE CONTROL ACTIVE
Info:        TARGET PRESSURE IS 1.01325 BAR
Info:     OSCILLATION PERIOD IS 50 FS
Info:             DECAY TIME IS 25 FS
Info:     PISTON TEMPERATURE IS 300 K
Info:       PRESSURE CONTROL IS GROUP-BASED
Info:    INITIAL STRAIN RATE IS 0 0 0
Info:       CELL FLUCTUATION IS ISOTROPIC
Info: PARTICLE MESH EWALD (PME) ACTIVE
Info: PME TOLERANCE               1e-06
Info: PME EWALD COEFFICIENT       0.348832
Info: PME INTERPOLATION ORDER     4
Info: PME GRID DIMENSIONS         40 36 36
Info: PME MAXIMUM GRID SPACING    1
Info: FULL ELECTROSTATIC EVALUATION FREQUENCY      2
Info: USING VERLET I (r-RESPA) MTS SCHEME.
Info: C1 SPLITTING OF LONG RANGE ELECTROSTATICS
Info: PLACING ATOMS IN PATCHES BY HYDROGEN GROUPS
Info: RIGID BONDS TO HYDROGEN : ALL
Info:         ERROR TOLERANCE : 1e-08
Info:          MAX ITERATIONS : 100
Info: RIGID WATER USING SETTLE ALGORITHM
Info: RANDOM NUMBER SEED     1743237416
Info: USE HYDROGEN BONDS?    NO
Info: Using AMBER format force field!
Info: AMBER PARM FILE        mobley_9653690.prmtop
Info: COORDINATE PDB         mobley_9653690.pdb
Info: Exclusions will be read from PARM file!
Info: SCNB (VDW SCALING)     2
Info: USING ARITHMETIC MEAN TO COMBINE L-J SIGMA PARAMETERS
Info: BINARY COORDINATES     mobley_9653690_min.coor
Info: SUMMARY OF PARAMETERS:
Info: 10 BONDS
Info: 16 ANGLES
Info:   16 HARMONIC
Info:   0 COSINE-BASED
Info: 15 DIHEDRAL
Info: 0 IMPROPER
Info: 0 CROSSTERM
Info: 0 VDW
Info: 36 VDW_PAIRS
Info: 0 NBTHOLE_PAIRS
Info: STRUCTURE SUMMARY:
Info: 2916 ATOMS
Info: 2916 BONDS
Info: 49 ANGLES
Info: 97 DIHEDRALS
Info: 0 IMPROPERS
Info: 0 CROSSTERMS
Info: 3030 EXCLUSIONS
Info: 2905 RIGID BONDS
Info: 5843 DEGREES OF FREEDOM
Info: 974 HYDROGEN GROUPS
Info: 4 ATOMS IN LARGEST HYDROGEN GROUP
Info: 974 MIGRATION GROUPS
Info: 4 ATOMS IN LARGEST MIGRATION GROUP
Info: TOTAL MASS = 17501.6 amu
Info: TOTAL CHARGE = -3.72529e-09 e
Info: MASS DENSITY = 0.652291 g/cm^3
Info: ATOM DENSITY = 0.0654472 atoms/A^3
Info: ADDED 0 IMPLICIT EXCLUSIONS
Info: NONBONDED TABLE R-SQUARED SPACING: 0.0625
Info: NONBONDED TABLE SIZE: 705 POINTS
Info: REMOVING COM VELOCITY -0.250778 -0.0974883 0.114963
TCL: Running for 100000 steps
ETITLE: TS BOND ANGLE DIHED IMPRP ELECT VDW BOUNDARY MISC KINETIC TOTAL TEMP POTENTIAL TOTAL3 TEMPAVG PRESSURE GPRESSURE VOLUME PRESSAVG GPRESSAVG
ENERGY: 0 0.3255 1.1759 14.4824 0.0000 -13437.3280 2390.5103 0.0000 0.0000 1704.4117 -9326.4223 293.5817 -11030.8340 -9326.1112 293.5817 589.8964 619.6850 44555.0083 589.8964 619.6850
ENERGY: 100000 0.5522 1.7863 14.8119 0.0000 -13968.7424 2413.2606 0.0000 0.0000 174.3675 -11363.9638 30.0345 -11538.3313 -11363.4424 30.9181 -260.2061 -194.0654 28726.8759 5.1142 5.1371
TCL: Running 100000 steps at 60 kelvin.
TCL: Setting parameter langevinTemp to 60
TCL: Running for 100000 steps
ETITLE: TS BOND ANGLE DIHED IMPRP ELECT VDW BOUNDARY MISC KINETIC TOTAL TEMP POTENTIAL TOTAL3 TEMPAVG PRESSURE GPRESSURE VOLUME PRESSAVG GPRESSAVG
ENERGY: 100000 0.5522 1.7863 14.8119 0.0000 -13968.7424 2413.2606 0.0000 0.0000 174.2814 -11364.0499 30.0196 -11538.3313 -11363.6664 30.0196 -262.8193 -194.2359 28726.8759 -262.8193 -194.2359
ENERGY: 200000 1.0760 2.9797 15.6667 0.0000 -13948.3777 2447.5136 0.0000 0.0000 345.9529 -11135.1888 59.5897 -11481.1417 -11134.1303 59.9392 433.9389 502.8415 28478.4222 5.0933 5.1173
TCL: Running 100000 steps at 90 kelvin.
TCL: Setting parameter langevinTemp to 90
TCL: Running for 100000 steps
ETITLE: TS BOND ANGLE DIHED IMPRP ELECT VDW BOUNDARY MISC KINETIC TOTAL TEMP POTENTIAL TOTAL3 TEMPAVG PRESSURE GPRESSURE VOLUME PRESSAVG GPRESSAVG
ENERGY: 200000 1.0760 2.9797 15.6667 0.0000 -13948.3777 2447.5136 0.0000 0.0000 345.7765 -11135.3652 59.5594 -11481.1417 -11134.5212 59.5594 449.1079 502.8634 28478.4222 449.1079 502.8634
ENERGY: 300000 1.7242 4.2570 14.7017 0.0000 -13705.3636 2275.3476 0.0000 0.0000 539.5739 -10869.7592 92.9406 -11409.3331 -10867.5399 89.8252 -797.5679 -769.7906 28632.7956 2.7027 2.6607
TCL: Running 100000 steps at 120 kelvin.
TCL: Setting parameter langevinTemp to 120
TCL: Running for 100000 steps
ETITLE: TS BOND ANGLE DIHED IMPRP ELECT VDW BOUNDARY MISC KINETIC TOTAL TEMP POTENTIAL TOTAL3 TEMPAVG PRESSURE GPRESSURE VOLUME PRESSAVG GPRESSAVG
ENERGY: 300000 1.7242 4.2570 14.7017 0.0000 -13705.3636 2275.3476 0.0000 0.0000 539.3156 -10870.0175 92.8961 -11409.3331 -10868.7845 92.8961 -814.9184 -769.3129 28632.7956 -814.9184 -769.3129
ENERGY: 400000 1.6596 5.9189 15.4214 0.0000 -13659.9416 2364.6813 0.0000 0.0000 700.9417 -10571.3186 120.7359 -11272.2603 -10569.0951 119.7965 537.8603 617.2419 28264.2131 4.0740 4.0408
TCL: Running 100000 steps at 150 kelvin.
TCL: Setting parameter langevinTemp to 150
TCL: Running for 100000 steps
ETITLE: TS BOND ANGLE DIHED IMPRP ELECT VDW BOUNDARY MISC KINETIC TOTAL TEMP POTENTIAL TOTAL3 TEMPAVG PRESSURE GPRESSURE VOLUME PRESSAVG GPRESSAVG
ENERGY: 400000 1.6596 5.9189 15.4214 0.0000 -13659.9416 2364.6813 0.0000 0.0000 700.5990 -10571.6614 120.6769 -11272.2603 -10570.5540 120.6769 552.9695 617.6402 28264.2131 552.9695 617.6402
ENERGY: 500000 1.9665 6.9711 15.1849 0.0000 -13230.4622 2087.2468 0.0000 0.0000 857.0470 -10262.0458 147.6247 -11119.0929 -10259.7481 150.1399 -1094.7106 -1035.9805 28337.6572 4.5623 4.7311
TCL: Running 100000 steps at 180 kelvin.
TCL: Setting parameter langevinTemp to 180
TCL: Running for 100000 steps
ETITLE: TS BOND ANGLE DIHED IMPRP ELECT VDW BOUNDARY MISC KINETIC TOTAL TEMP POTENTIAL TOTAL3 TEMPAVG PRESSURE GPRESSURE VOLUME PRESSAVG GPRESSAVG
ENERGY: 500000 1.9665 6.9711 15.1849 0.0000 -13230.4622 2087.2468 0.0000 0.0000 856.6221 -10262.4707 147.5515 -11119.0929 -10260.7314 147.5515 -1099.4034 -1034.8986 28337.6572 -1099.4034 -1034.8986
ENERGY: 600000 2.6093 7.5210 17.0784 0.0000 -12943.7357 2136.4264 0.0000 0.0000 1032.2385 -9747.8620 177.8012 -10780.1006 -9745.8588 180.0731 668.4434 736.1964 28157.9697 3.2636 3.1755
TCL: Running 100000 steps at 210 kelvin.
TCL: Setting parameter langevinTemp to 210
TCL: Running for 100000 steps
ETITLE: TS BOND ANGLE DIHED IMPRP ELECT VDW BOUNDARY MISC KINETIC TOTAL TEMP POTENTIAL TOTAL3 TEMPAVG PRESSURE GPRESSURE VOLUME PRESSAVG GPRESSAVG
ENERGY: 600000 2.6093 7.5210 17.0784 0.0000 -12943.7357 2136.4264 0.0000 0.0000 1031.7227 -9748.3779 177.7123 -10780.1006 -9746.7523 177.7123 655.6109 736.7778 28157.9697 655.6109 736.7778
ENERGY: 700000 2.5635 10.8954 16.1348 0.0000 -12177.5210 1831.8285 0.0000 0.0000 1223.0011 -9093.0977 210.6596 -10316.0988 -9090.7302 209.8994 91.4600 142.1067 28162.5487 2.8933 3.0010
TCL: Running 100000 steps at 240 kelvin.
TCL: Setting parameter langevinTemp to 240
TCL: Running for 100000 steps
ETITLE: TS BOND ANGLE DIHED IMPRP ELECT VDW BOUNDARY MISC KINETIC TOTAL TEMP POTENTIAL TOTAL3 TEMPAVG PRESSURE GPRESSURE VOLUME PRESSAVG GPRESSAVG
ENERGY: 700000 2.5635 10.8954 16.1348 0.0000 -12177.5210 1831.8285 0.0000 0.0000 1222.3957 -9093.7031 210.5554 -10316.0988 -9091.3244 210.5554 59.9428 140.9039 28162.5487 59.9428 140.9039
ENERGY: 800000 0.7289 14.2765 17.8064 0.0000 -11582.6448 1687.0186 0.0000 0.0000 1403.2228 -8459.5916 241.7025 -9862.8144 -8456.7304 240.5031 -6.1674 60.8709 29017.8878 3.6379 3.5428
TCL: Running 100000 steps at 270 kelvin.
TCL: Setting parameter langevinTemp to 270
TCL: Running for 100000 steps
ETITLE: TS BOND ANGLE DIHED IMPRP ELECT VDW BOUNDARY MISC KINETIC TOTAL TEMP POTENTIAL TOTAL3 TEMPAVG PRESSURE GPRESSURE VOLUME PRESSAVG GPRESSAVG
ENERGY: 800000 0.7289 14.2765 17.8064 0.0000 -11582.6448 1687.0186 0.0000 0.0000 1402.5453 -8460.2691 241.5858 -9862.8144 -8458.1528 241.5858 -24.9842 59.6251 29017.8878 -24.9842 59.6251
ENERGY: 900000 8.3704 11.4006 18.8108 0.0000 -10885.3035 1455.4810 0.0000 0.0000 1574.7702 -7816.4704 271.2512 -9391.2406 -7811.6932 269.9361 -245.6171 -175.1990 29076.8394 4.0213 3.9156
TCL: Running 1000000 steps at 300 kelvin.
TCL: Setting parameter langevinTemp to 300
TCL: Running for 1000000 steps
ETITLE: TS BOND ANGLE DIHED IMPRP ELECT VDW BOUNDARY MISC KINETIC TOTAL TEMP POTENTIAL TOTAL3 TEMPAVG PRESSURE GPRESSURE VOLUME PRESSAVG GPRESSAVG
ENERGY: 900000 8.3704 11.4006 18.8108 0.0000 -10885.3035 1455.4810 0.0000 0.0000 1573.9967 -7817.2439 271.1180 -9391.2406 -7814.5998 271.1180 -261.8232 -174.3840 29076.8394 -261.8232 -174.3840
ENERGY: 1100000 2.5037 12.1729 18.2408 0.0000 -10585.0103 1483.5465 0.0000 0.0000 1738.4574 -7330.0890 299.4460 -9068.5464 -7325.9942 300.6664 854.3807 956.2067 29677.2883 2.7418 2.4760
ENERGY: 1300000 2.7687 14.8548 19.3593 0.0000 -10539.2869 1436.5185 0.0000 0.0000 1752.5914 -7313.1941 301.8806 -9065.7856 -7310.9217 300.2901 159.3377 292.0420 29964.0390 3.4600 3.4925
ENERGY: 1500000 3.8859 9.0768 19.1389 0.0000 -10632.2726 1510.5690 0.0000 0.0000 1694.2815 -7395.3204 291.8368 -9089.6019 -7392.9950 299.8488 1152.1741 1171.5593 29467.4803 3.9439 4.0115
ENERGY: 1700000 3.9592 12.8709 16.7753 0.0000 -10592.1984 1404.9277 0.0000 0.0000 1759.9108 -7393.7545 303.1413 -9153.6653 -7390.4413 300.1894 -195.5755 -64.9962 29931.3694 2.4637 2.4399
ENERGY: 1900000 3.6984 12.5579 17.5781 0.0000 -10538.7653 1492.3196 0.0000 0.0000 1788.4561 -7224.1553 308.0582 -9012.6113 -7222.8631 300.1080 768.5756 923.9118 29972.0019 2.5516 2.5255
TCL: Exiting due to exit command.
