Info: SIMULATION PARAMETERS:
Info: TIMESTEP               2
Info: NUMBER OF STEPS        0
Info: STEPS PER CYCLE        10
Info: PERIODIC CELL BASIS 1  32.265 0 0
Info: PERIODIC CELL BASIS 2  0 34.26 0
Info: PERIODIC CELL BASIS 3  0 0 39.119
Info: PERIODIC CELL CENTER   0 0 0
Info: WRAPPING WATERS AROUND PERIODIC BOUNDARIES ON OUTPUT.
Info: WRAPPING ALL CLUSTERS AROUND PERIODIC BOUNDARIES ON OUTPUT.
Info: FIRST LDB TIMESTEP     50
Info: LAST LDB TIMESTEP     -1
Info: HOM BACKGROUND SCALING 1
Info: PME BACKGROUND SCALING 1
Info: MIN ATOMS PER PATCH    40
Info: EMPTY PATCH LOAD       40 ATOMS
Info: INITIAL TEMPERATURE    300
Info: CENTER OF MASS MOVING INITIALLY? NO
Info: DIELECTRIC             1
Info: EXCLUDE                SCALED ONE-FOUR
Info: 1-4 ELECTROSTATICS SCALED BY 0.833333
Info: MODIFIED 1-4 VDW PARAMETERS WILL BE USED
Info: DCD FILENAME           mobley_9510785_equil.dcd
Info: DCD FREQUENCY          100000
Info: DCD FIRST STEP         100000
Info: DCD FILE WILL CONTAIN UNIT CELL DATA
Info: XST FILENAME           mobley_9510785_equil.xst
Info: XST FREQUENCY          100000
Info: NO VELOCITY DCD OUTPUT
Info: NO FORCE DCD OUTPUT
Info: OUTPUT FILENAME        mobley_9510785_equil
Info: BINARY OUTPUT FILES WILL BE USED
Info: RESTART FILENAME       mobley_9510785_equil.restart
Info: RESTART FREQUENCY      100000
Info: BINARY RESTART FILES WILL BE USED
Info: CUTOFF                 9
Info: PAIRLIST DISTANCE      11
Info: PAIRLIST SHRINK RATE   0.01
Info: PAIRLIST GROW RATE     0.01
Info: PAIRLIST TRIGGER       0.3
Info: PAIRLISTS PER CYCLE    2
Info: PAIRLISTS ENABLED
Info: MARGIN                 8
Info: HYDROGEN GROUP CUTOFF  2.5
Info: PATCH DIMENSION        21.5
Info: ENERGY OUTPUT STEPS    100000
Info: ENERGY EVALUATION STEPS    100000
Info: OUTPUT ENERGY PRECISION 4
Info: CROSSTERM ENERGY INCLUDED IN DIHEDRAL
Info: TIMING OUTPUT STEPS    1000000
Info: PRESSURE OUTPUT STEPS  100000
Info: LANGEVIN DYNAMICS ACTIVE
Info: LANGEVIN TEMPERATURE   30
Info: LANGEVIN USING BBK INTEGRATOR
Info: LANGEVIN DAMPING COEFFICIENT IS 1 INVERSE PS
Info: LANGEVIN DYNAMICS APPLIED TO HYDROGENS
Info: LANGEVIN PISTON PRESSURE CONTROL ACTIVE
Info:        TARGET PRESSURE IS 1.01325 BAR
Info:     OSCILLATION PERIOD IS 50 FS
Info:             DECAY TIME IS 25 FS
Info:     PISTON TEMPERATURE IS 300 K
Info:       PRESSURE CONTROL IS GROUP-BASED
Info:    INITIAL STRAIN RATE IS 0 0 0
Info:       CELL FLUCTUATION IS ISOTROPIC
Info: PARTICLE MESH EWALD (PME) ACTIVE
Info: PME TOLERANCE               1e-06
Info: PME EWALD COEFFICIENT       0.348832
Info: PME INTERPOLATION ORDER     4
Info: PME GRID DIMENSIONS         36 36 40
Info: PME MAXIMUM GRID SPACING    1
Info: FULL ELECTROSTATIC EVALUATION FREQUENCY      2
Info: USING VERLET I (r-RESPA) MTS SCHEME.
Info: C1 SPLITTING OF LONG RANGE ELECTROSTATICS
Info: PLACING ATOMS IN PATCHES BY HYDROGEN GROUPS
Info: RIGID BONDS TO HYDROGEN : ALL
Info:         ERROR TOLERANCE : 1e-08
Info:          MAX ITERATIONS : 100
Info: RIGID WATER USING SETTLE ALGORITHM
Info: RANDOM NUMBER SEED     1743235886
Info: USE HYDROGEN BONDS?    NO
Info: Using AMBER format force field!
Info: AMBER PARM FILE        mobley_9510785.prmtop
Info: COORDINATE PDB         mobley_9510785.pdb
Info: Exclusions will be read from PARM file!
Info: SCNB (VDW SCALING)     2
Info: USING ARITHMETIC MEAN TO COMBINE L-J SIGMA PARAMETERS
Info: BINARY COORDINATES     mobley_9510785_min.coor
Info: SUMMARY OF PARAMETERS:
Info: 7 BONDS
Info: 8 ANGLES
Info:   8 HARMONIC
Info:   0 COSINE-BASED
Info: 3 DIHEDRAL
Info: 0 IMPROPER
Info: 0 CROSSTERM
Info: 0 VDW
Info: 15 VDW_PAIRS
Info: 0 NBTHOLE_PAIRS
Info: STRUCTURE SUMMARY:
Info: 2917 ATOMS
Info: 2918 BONDS
Info: 36 ANGLES
Info: 64 DIHEDRALS
Info: 0 IMPROPERS
Info: 0 CROSSTERMS
Info: 3000 EXCLUSIONS
Info: 2901 RIGID BONDS
Info: 5850 DEGREES OF FREEDOM
Info: 981 HYDROGEN GROUPS
Info: 3 ATOMS IN LARGEST HYDROGEN GROUP
Info: 981 MIGRATION GROUPS
Info: 3 ATOMS IN LARGEST MIGRATION GROUP
Info: TOTAL MASS = 17677.4 amu
Info: TOTAL CHARGE = 5.02914e-08 e
Info: MASS DENSITY = 0.678846 g/cm^3
Info: ATOM DENSITY = 0.0674574 atoms/A^3
Info: ADDED 0 IMPLICIT EXCLUSIONS
Info: NONBONDED TABLE R-SQUARED SPACING: 0.0625
Info: NONBONDED TABLE SIZE: 705 POINTS
Info: REMOVING COM VELOCITY 0.00107346 0.14684 -0.0249646
TCL: Running for 100000 steps
ETITLE: TS BOND ANGLE DIHED IMPRP ELECT VDW BOUNDARY MISC KINETIC TOTAL TEMP POTENTIAL TOTAL3 TEMPAVG PRESSURE GPRESSURE VOLUME PRESSAVG GPRESSAVG
ENERGY: 0 0.4422 0.2297 6.2012 0.0000 -13403.8877 2348.0248 0.0000 0.0000 1739.6058 -9309.3841 299.2853 -11048.9899 -9309.0776 299.2853 418.3018 452.9459 43242.0996 418.3018 452.9459
ENERGY: 100000 1.0661 1.3025 5.8077 0.0000 -13787.1992 2291.2750 0.0000 0.0000 176.1190 -11311.6288 30.2999 -11487.7479 -11311.1165 30.8498 -903.0523 -848.1931 29157.3672 5.5060 5.5120
TCL: Running 100000 steps at 60 kelvin.
TCL: Setting parameter langevinTemp to 60
TCL: Running for 100000 steps
ETITLE: TS BOND ANGLE DIHED IMPRP ELECT VDW BOUNDARY MISC KINETIC TOTAL TEMP POTENTIAL TOTAL3 TEMPAVG PRESSURE GPRESSURE VOLUME PRESSAVG GPRESSAVG
ENERGY: 100000 1.0661 1.3025 5.8077 0.0000 -13787.1992 2291.2750 0.0000 0.0000 176.0350 -11311.7129 30.2854 -11487.7479 -11311.2758 30.2854 -908.7785 -848.1471 29157.3672 -908.7785 -848.1471
ENERGY: 200000 1.8105 0.6876 6.5897 0.0000 -13829.6858 2365.3308 0.0000 0.0000 348.4491 -11106.8181 59.9479 -11455.2672 -11106.0436 59.9938 -237.6607 -182.7821 29141.3569 4.2200 4.2668
TCL: Running 100000 steps at 90 kelvin.
TCL: Setting parameter langevinTemp to 90
TCL: Running for 100000 steps
ETITLE: TS BOND ANGLE DIHED IMPRP ELECT VDW BOUNDARY MISC KINETIC TOTAL TEMP POTENTIAL TOTAL3 TEMPAVG PRESSURE GPRESSURE VOLUME PRESSAVG GPRESSAVG
ENERGY: 200000 1.8105 0.6876 6.5897 0.0000 -13829.6858 2365.3308 0.0000 0.0000 348.2843 -11106.9829 59.9195 -11455.2672 -11106.1703 59.9195 -235.7353 -182.7222 29141.3569 -235.7353 -182.7222
ENERGY: 300000 2.4777 1.9939 5.6157 0.0000 -13756.6459 2369.8997 0.0000 0.0000 533.7384 -10842.9205 91.8254 -11376.6589 -10841.7759 89.8624 -5.9297 59.7504 29069.1982 4.3866 4.3278
TCL: Running 100000 steps at 120 kelvin.
TCL: Setting parameter langevinTemp to 120
TCL: Running for 100000 steps
ETITLE: TS BOND ANGLE DIHED IMPRP ELECT VDW BOUNDARY MISC KINETIC TOTAL TEMP POTENTIAL TOTAL3 TEMPAVG PRESSURE GPRESSURE VOLUME PRESSAVG GPRESSAVG
ENERGY: 300000 2.4777 1.9939 5.6157 0.0000 -13756.6459 2369.8997 0.0000 0.0000 533.4775 -10843.1814 91.7805 -11376.6589 -10841.9784 91.7805 12.1004 59.7447 29069.1982 12.1004 59.7447
ENERGY: 400000 1.4187 1.9825 6.4607 0.0000 -13584.1369 2353.5837 0.0000 0.0000 695.7466 -10524.9447 119.6976 -11220.6913 -10522.9069 120.0568 500.9895 546.9644 28976.3563 3.5832 3.4914
TCL: Running 100000 steps at 150 kelvin.
TCL: Setting parameter langevinTemp to 150
TCL: Running for 100000 steps
ETITLE: TS BOND ANGLE DIHED IMPRP ELECT VDW BOUNDARY MISC KINETIC TOTAL TEMP POTENTIAL TOTAL3 TEMPAVG PRESSURE GPRESSURE VOLUME PRESSAVG GPRESSAVG
ENERGY: 400000 1.4187 1.9825 6.4607 0.0000 -13584.1369 2353.5837 0.0000 0.0000 695.3931 -10525.2982 119.6368 -11220.6913 -10523.6591 119.6368 495.4839 547.5881 28976.3563 495.4839 547.5881
ENERGY: 500000 3.2963 1.2704 7.0012 0.0000 -13220.2907 2120.4931 0.0000 0.0000 853.0193 -10235.2103 146.7552 -11088.2297 -10232.3081 149.8264 -738.7764 -656.0755 28671.6116 3.9505 4.1409
TCL: Running 100000 steps at 180 kelvin.
TCL: Setting parameter langevinTemp to 180
TCL: Running for 100000 steps
ETITLE: TS BOND ANGLE DIHED IMPRP ELECT VDW BOUNDARY MISC KINETIC TOTAL TEMP POTENTIAL TOTAL3 TEMPAVG PRESSURE GPRESSURE VOLUME PRESSAVG GPRESSAVG
ENERGY: 500000 3.2963 1.2704 7.0012 0.0000 -13220.2907 2120.4931 0.0000 0.0000 852.5907 -10235.6390 146.6814 -11088.2297 -10233.4473 146.6814 -716.8106 -656.0586 28671.6116 -716.8106 -656.0586
ENERGY: 600000 4.5333 2.2587 8.9130 0.0000 -12961.0387 2128.1881 0.0000 0.0000 1057.1974 -9759.9483 181.8824 -10817.1457 -9756.6533 180.3868 771.7744 839.2886 28086.9316 4.1271 4.1233
TCL: Running 100000 steps at 210 kelvin.
TCL: Setting parameter langevinTemp to 210
TCL: Running for 100000 steps
ETITLE: TS BOND ANGLE DIHED IMPRP ELECT VDW BOUNDARY MISC KINETIC TOTAL TEMP POTENTIAL TOTAL3 TEMPAVG PRESSURE GPRESSURE VOLUME PRESSAVG GPRESSAVG
ENERGY: 600000 4.5333 2.2587 8.9130 0.0000 -12961.0387 2128.1881 0.0000 0.0000 1056.6595 -9760.4862 181.7898 -10817.1457 -9758.4663 181.7898 777.2798 841.5420 28086.9316 777.2798 841.5420
ENERGY: 700000 2.9203 6.9030 8.5152 0.0000 -12314.3230 1918.3742 0.0000 0.0000 1244.4699 -9133.1404 214.1011 -10377.6102 -9131.3363 209.9477 254.2106 316.2149 28519.1254 4.2129 4.2822
TCL: Running 100000 steps at 240 kelvin.
TCL: Setting parameter langevinTemp to 240
TCL: Running for 100000 steps
ETITLE: TS BOND ANGLE DIHED IMPRP ELECT VDW BOUNDARY MISC KINETIC TOTAL TEMP POTENTIAL TOTAL3 TEMPAVG PRESSURE GPRESSURE VOLUME PRESSAVG GPRESSAVG
ENERGY: 700000 2.9203 6.9030 8.5152 0.0000 -12314.3230 1918.3742 0.0000 0.0000 1243.8695 -9133.7408 213.9978 -10377.6102 -9131.7466 213.9978 250.6176 316.6332 28519.1254 250.6176 316.6332
ENERGY: 800000 3.1426 3.0699 10.2214 0.0000 -11757.8088 1711.1835 0.0000 0.0000 1406.5502 -8623.6413 241.9857 -10030.1914 -8620.9230 240.0983 -194.7192 -106.9107 28553.2493 3.0543 3.1959
TCL: Running 100000 steps at 270 kelvin.
TCL: Setting parameter langevinTemp to 270
TCL: Running for 100000 steps
ETITLE: TS BOND ANGLE DIHED IMPRP ELECT VDW BOUNDARY MISC KINETIC TOTAL TEMP POTENTIAL TOTAL3 TEMPAVG PRESSURE GPRESSURE VOLUME PRESSAVG GPRESSAVG
ENERGY: 800000 3.1426 3.0699 10.2214 0.0000 -11757.8088 1711.1835 0.0000 0.0000 1405.8703 -8624.3211 241.8688 -10030.1914 -8621.8403 241.8688 -192.4105 -108.7687 28553.2493 -192.4105 -108.7687
ENERGY: 900000 3.5469 5.8867 7.3018 0.0000 -11059.2784 1514.1018 0.0000 0.0000 1539.7312 -7988.7100 264.8985 -9528.4412 -7984.2256 270.2695 -114.6268 -10.6425 29265.5738 3.5821 3.6715
TCL: Running 1000000 steps at 300 kelvin.
TCL: Setting parameter langevinTemp to 300
TCL: Running for 1000000 steps
ETITLE: TS BOND ANGLE DIHED IMPRP ELECT VDW BOUNDARY MISC KINETIC TOTAL TEMP POTENTIAL TOTAL3 TEMPAVG PRESSURE GPRESSURE VOLUME PRESSAVG GPRESSAVG
ENERGY: 900000 3.5469 5.8867 7.3018 0.0000 -11059.2784 1514.1018 0.0000 0.0000 1538.9846 -7989.4566 264.7700 -9528.4412 -7986.5749 264.7700 -93.2076 -10.1926 29265.5738 -93.2076 -10.1926
ENERGY: 1100000 4.7897 6.2072 8.2382 0.0000 -10447.3969 1377.7053 0.0000 0.0000 1728.7459 -7321.7106 297.4169 -9050.4565 -7319.4269 300.4063 -168.6471 -20.8046 30230.8775 2.9982 3.1695
ENERGY: 1300000 8.4630 4.0449 8.5080 0.0000 -10469.1882 1332.9999 0.0000 0.0000 1729.4454 -7385.7271 297.5373 -9115.1724 -7383.0925 300.0479 -940.3628 -854.7588 30488.7998 2.5089 2.4351
ENERGY: 1500000 5.5939 4.3922 10.2646 0.0000 -10527.1357 1372.0349 0.0000 0.0000 1748.9306 -7385.9194 300.8895 -9134.8501 -7381.4991 300.0849 -439.9397 -363.6294 30130.2178 3.7113 3.9086
ENERGY: 1700000 8.2065 2.9503 9.8197 0.0000 -10639.4818 1477.8414 0.0000 0.0000 1712.9356 -7427.7284 294.6969 -9140.6640 -7425.7392 300.2888 325.0380 456.9796 30032.8299 3.3211 3.3539
ENERGY: 1900000 2.1252 3.3691 8.4751 0.0000 -10550.2651 1494.6357 0.0000 0.0000 1752.4063 -7289.2536 301.4875 -9041.6599 -7287.5786 299.6611 790.1292 828.4672 30519.4356 4.2719 4.1544
TCL: Exiting due to exit command.
