Info: SIMULATION PARAMETERS:
Info: TIMESTEP               2
Info: NUMBER OF STEPS        0
Info: STEPS PER CYCLE        10
Info: PERIODIC CELL BASIS 1  32.955 0 0
Info: PERIODIC CELL BASIS 2  0 33.542 0
Info: PERIODIC CELL BASIS 3  0 0 38.379
Info: PERIODIC CELL CENTER   0 0 0
Info: WRAPPING WATERS AROUND PERIODIC BOUNDARIES ON OUTPUT.
Info: WRAPPING ALL CLUSTERS AROUND PERIODIC BOUNDARIES ON OUTPUT.
Info: FIRST LDB TIMESTEP     50
Info: LAST LDB TIMESTEP     -1
Info: HOM BACKGROUND SCALING 1
Info: PME BACKGROUND SCALING 1
Info: MIN ATOMS PER PATCH    40
Info: EMPTY PATCH LOAD       40 ATOMS
Info: INITIAL TEMPERATURE    300
Info: CENTER OF MASS MOVING INITIALLY? NO
Info: DIELECTRIC             1
Info: EXCLUDE                SCALED ONE-FOUR
Info: 1-4 ELECTROSTATICS SCALED BY 0.833333
Info: MODIFIED 1-4 VDW PARAMETERS WILL BE USED
Info: DCD FILENAME           mobley_2659552_equil.dcd
Info: DCD FREQUENCY          100000
Info: DCD FIRST STEP         100000
Info: DCD FILE WILL CONTAIN UNIT CELL DATA
Info: XST FILENAME           mobley_2659552_equil.xst
Info: XST FREQUENCY          100000
Info: NO VELOCITY DCD OUTPUT
Info: NO FORCE DCD OUTPUT
Info: OUTPUT FILENAME        mobley_2659552_equil
Info: BINARY OUTPUT FILES WILL BE USED
Info: RESTART FILENAME       mobley_2659552_equil.restart
Info: RESTART FREQUENCY      100000
Info: BINARY RESTART FILES WILL BE USED
Info: CUTOFF                 9
Info: PAIRLIST DISTANCE      11
Info: PAIRLIST SHRINK RATE   0.01
Info: PAIRLIST GROW RATE     0.01
Info: PAIRLIST TRIGGER       0.3
Info: PAIRLISTS PER CYCLE    2
Info: PAIRLISTS ENABLED
Info: MARGIN                 8
Info: HYDROGEN GROUP CUTOFF  2.5
Info: PATCH DIMENSION        21.5
Info: ENERGY OUTPUT STEPS    100000
Info: ENERGY EVALUATION STEPS    100000
Info: OUTPUT ENERGY PRECISION 4
Info: CROSSTERM ENERGY INCLUDED IN DIHEDRAL
Info: TIMING OUTPUT STEPS    1000000
Info: PRESSURE OUTPUT STEPS  100000
Info: LANGEVIN DYNAMICS ACTIVE
Info: LANGEVIN TEMPERATURE   30
Info: LANGEVIN USING BBK INTEGRATOR
Info: LANGEVIN DAMPING COEFFICIENT IS 1 INVERSE PS
Info: LANGEVIN DYNAMICS APPLIED TO HYDROGENS
Info: LANGEVIN PISTON PRESSURE CONTROL ACTIVE
Info:        TARGET PRESSURE IS 1.01325 BAR
Info:     OSCILLATION PERIOD IS 50 FS
Info:             DECAY TIME IS 25 FS
Info:     PISTON TEMPERATURE IS 300 K
Info:       PRESSURE CONTROL IS GROUP-BASED
Info:    INITIAL STRAIN RATE IS 0 0 0
Info:       CELL FLUCTUATION IS ISOTROPIC
Info: PARTICLE MESH EWALD (PME) ACTIVE
Info: PME TOLERANCE               1e-06
Info: PME EWALD COEFFICIENT       0.348832
Info: PME INTERPOLATION ORDER     4
Info: PME GRID DIMENSIONS         36 36 40
Info: PME MAXIMUM GRID SPACING    1
Info: FULL ELECTROSTATIC EVALUATION FREQUENCY      2
Info: USING VERLET I (r-RESPA) MTS SCHEME.
Info: C1 SPLITTING OF LONG RANGE ELECTROSTATICS
Info: PLACING ATOMS IN PATCHES BY HYDROGEN GROUPS
Info: RIGID BONDS TO HYDROGEN : ALL
Info:         ERROR TOLERANCE : 1e-08
Info:          MAX ITERATIONS : 100
Info: RIGID WATER USING SETTLE ALGORITHM
Info: RANDOM NUMBER SEED     1743237031
Info: USE HYDROGEN BONDS?    NO
Info: Using AMBER format force field!
Info: AMBER PARM FILE        mobley_2659552.prmtop
Info: COORDINATE PDB         mobley_2659552.pdb
Info: Exclusions will be read from PARM file!
Info: SCNB (VDW SCALING)     2
Info: USING ARITHMETIC MEAN TO COMBINE L-J SIGMA PARAMETERS
Info: BINARY COORDINATES     mobley_2659552_min.coor
Info: SUMMARY OF PARAMETERS:
Info: 11 BONDS
Info: 13 ANGLES
Info:   13 HARMONIC
Info:   0 COSINE-BASED
Info: 6 DIHEDRAL
Info: 0 IMPROPER
Info: 0 CROSSTERM
Info: 0 VDW
Info: 45 VDW_PAIRS
Info: 0 NBTHOLE_PAIRS
Info: STRUCTURE SUMMARY:
Info: 2941 ATOMS
Info: 2941 BONDS
Info: 42 ANGLES
Info: 58 DIHEDRALS
Info: 0 IMPROPERS
Info: 0 CROSSTERMS
Info: 3030 EXCLUSIONS
Info: 2929 RIGID BONDS
Info: 5894 DEGREES OF FREEDOM
Info: 984 HYDROGEN GROUPS
Info: 4 ATOMS IN LARGEST HYDROGEN GROUP
Info: 984 MIGRATION GROUPS
Info: 4 ATOMS IN LARGEST MIGRATION GROUP
Info: TOTAL MASS = 17674.8 amu
Info: TOTAL CHARGE = -0.0002001 e
Info: MASS DENSITY = 0.691845 g/cm^3
Info: ATOM DENSITY = 0.0693252 atoms/A^3
Info: ADDED 0 IMPLICIT EXCLUSIONS
Info: NONBONDED TABLE R-SQUARED SPACING: 0.0625
Info: NONBONDED TABLE SIZE: 705 POINTS
Info: REMOVING COM VELOCITY 0.0468444 0.109736 0.0380565
TCL: Running for 100000 steps
ETITLE: TS BOND ANGLE DIHED IMPRP ELECT VDW BOUNDARY MISC KINETIC TOTAL TEMP POTENTIAL TOTAL3 TEMPAVG PRESSURE GPRESSURE VOLUME PRESSAVG GPRESSAVG
ENERGY: 0 0.3966 0.7548 6.4745 0.0000 -13489.3577 2329.5323 0.0000 0.0000 1761.3723 -9390.8271 300.7679 -11152.1994 -9390.4624 300.7679 52.3999 85.3929 42423.2489 52.3999 85.3929
ENERGY: 100000 0.8532 2.0689 5.5161 0.0000 -13982.5209 2341.3128 0.0000 0.0000 174.3917 -11458.3784 29.7787 -11632.7701 -11457.7111 30.9903 -830.5563 -792.5375 28944.4858 4.5337 4.5248
TCL: Running 100000 steps at 60 kelvin.
TCL: Setting parameter langevinTemp to 60
TCL: Running for 100000 steps
ETITLE: TS BOND ANGLE DIHED IMPRP ELECT VDW BOUNDARY MISC KINETIC TOTAL TEMP POTENTIAL TOTAL3 TEMPAVG PRESSURE GPRESSURE VOLUME PRESSAVG GPRESSAVG
ENERGY: 100000 0.8532 2.0689 5.5161 0.0000 -13982.5209 2341.3128 0.0000 0.0000 174.3021 -11458.4680 29.7634 -11632.7701 -11458.0089 29.7634 -843.6630 -792.3601 28944.4858 -843.6630 -792.3601
ENERGY: 200000 1.3806 2.9574 5.9505 0.0000 -14077.0551 2508.0902 0.0000 0.0000 346.4851 -11212.1913 59.1650 -11558.6764 -11211.6687 59.9171 950.2025 1014.2585 28548.5907 4.4824 4.6111
TCL: Running 100000 steps at 90 kelvin.
TCL: Setting parameter langevinTemp to 90
TCL: Running for 100000 steps
ETITLE: TS BOND ANGLE DIHED IMPRP ELECT VDW BOUNDARY MISC KINETIC TOTAL TEMP POTENTIAL TOTAL3 TEMPAVG PRESSURE GPRESSURE VOLUME PRESSAVG GPRESSAVG
ENERGY: 200000 1.3806 2.9574 5.9505 0.0000 -14077.0551 2508.0902 0.0000 0.0000 346.3083 -11212.3681 59.1348 -11558.6764 -11211.6986 59.1348 942.5685 1013.8932 28548.5907 942.5685 1013.8932
ENERGY: 300000 2.7537 4.1704 5.7854 0.0000 -13817.9706 2361.1379 0.0000 0.0000 530.1543 -10913.9688 90.5279 -11444.1231 -10912.0192 90.2046 58.4483 122.3167 28853.1676 3.7611 3.7526
TCL: Running 100000 steps at 120 kelvin.
TCL: Setting parameter langevinTemp to 120
TCL: Running for 100000 steps
ETITLE: TS BOND ANGLE DIHED IMPRP ELECT VDW BOUNDARY MISC KINETIC TOTAL TEMP POTENTIAL TOTAL3 TEMPAVG PRESSURE GPRESSURE VOLUME PRESSAVG GPRESSAVG
ENERGY: 300000 2.7537 4.1704 5.7854 0.0000 -13817.9706 2361.1379 0.0000 0.0000 529.8912 -10914.2319 90.4830 -11444.1231 -10913.0420 90.4830 73.7836 122.9947 28853.1676 73.7836 122.9947
ENERGY: 400000 4.2057 5.9426 3.7890 0.0000 -13631.8719 2260.5781 0.0000 0.0000 716.1929 -10641.1635 122.2954 -11357.3565 -10639.2386 120.0705 -630.6006 -571.4862 28873.4525 4.6862 4.7063
TCL: Running 100000 steps at 150 kelvin.
TCL: Setting parameter langevinTemp to 150
TCL: Running for 100000 steps
ETITLE: TS BOND ANGLE DIHED IMPRP ELECT VDW BOUNDARY MISC KINETIC TOTAL TEMP POTENTIAL TOTAL3 TEMPAVG PRESSURE GPRESSURE VOLUME PRESSAVG GPRESSAVG
ENERGY: 400000 4.2057 5.9426 3.7890 0.0000 -13631.8719 2260.5781 0.0000 0.0000 715.8507 -10641.5057 122.2370 -11357.3565 -10639.8514 122.2370 -615.5198 -571.2603 28873.4525 -615.5198 -571.2603
ENERGY: 500000 1.5089 6.5167 6.8022 0.0000 -13495.0381 2307.5575 0.0000 0.0000 863.3740 -10309.2788 147.4277 -11172.6527 -10307.6632 149.9754 681.2736 707.2465 28735.0289 5.0974 5.1313
TCL: Running 100000 steps at 180 kelvin.
TCL: Setting parameter langevinTemp to 180
TCL: Running for 100000 steps
ETITLE: TS BOND ANGLE DIHED IMPRP ELECT VDW BOUNDARY MISC KINETIC TOTAL TEMP POTENTIAL TOTAL3 TEMPAVG PRESSURE GPRESSURE VOLUME PRESSAVG GPRESSAVG
ENERGY: 500000 1.5089 6.5167 6.8022 0.0000 -13495.0381 2307.5575 0.0000 0.0000 862.9201 -10309.7327 147.3502 -11172.6527 -10308.6046 147.3502 661.5102 707.1324 28735.0289 661.5102 707.1324
ENERGY: 600000 5.1389 4.5461 8.8306 0.0000 -12914.4967 2001.1174 0.0000 0.0000 1087.8848 -9806.9789 185.7647 -10894.8636 -9803.9134 179.8567 -1005.6947 -892.0573 28881.8148 3.8416 3.7796
TCL: Running 100000 steps at 210 kelvin.
TCL: Setting parameter langevinTemp to 210
TCL: Running for 100000 steps
ETITLE: TS BOND ANGLE DIHED IMPRP ELECT VDW BOUNDARY MISC KINETIC TOTAL TEMP POTENTIAL TOTAL3 TEMPAVG PRESSURE GPRESSURE VOLUME PRESSAVG GPRESSAVG
ENERGY: 600000 5.1389 4.5461 8.8306 0.0000 -12914.4967 2001.1174 0.0000 0.0000 1087.3796 -9807.4840 185.6784 -10894.8636 -9805.2603 185.6784 -947.7480 -892.0956 28881.8148 -947.7480 -892.0956
ENERGY: 700000 5.3365 8.5228 7.8942 0.0000 -12271.1669 1821.7402 0.0000 0.0000 1190.7269 -9236.9463 203.3258 -10427.6732 -9236.1912 210.2069 -759.0396 -623.7253 28557.7877 2.8831 2.9118
TCL: Running 100000 steps at 240 kelvin.
TCL: Setting parameter langevinTemp to 240
TCL: Running for 100000 steps
ETITLE: TS BOND ANGLE DIHED IMPRP ELECT VDW BOUNDARY MISC KINETIC TOTAL TEMP POTENTIAL TOTAL3 TEMPAVG PRESSURE GPRESSURE VOLUME PRESSAVG GPRESSAVG
ENERGY: 700000 5.3365 8.5228 7.8942 0.0000 -12271.1669 1821.7402 0.0000 0.0000 1190.1377 -9237.5355 203.2252 -10427.6732 -9235.5149 203.2252 -710.4728 -623.8095 28557.7877 -710.4728 -623.8095
ENERGY: 800000 2.2427 8.6125 9.4981 0.0000 -11653.3544 1672.8517 0.0000 0.0000 1425.6568 -8534.4925 243.4419 -9960.1493 -8529.5911 240.0974 -222.4095 -204.5021 29313.0677 4.0559 3.9590
TCL: Running 100000 steps at 270 kelvin.
TCL: Setting parameter langevinTemp to 270
TCL: Running for 100000 steps
ETITLE: TS BOND ANGLE DIHED IMPRP ELECT VDW BOUNDARY MISC KINETIC TOTAL TEMP POTENTIAL TOTAL3 TEMPAVG PRESSURE GPRESSURE VOLUME PRESSAVG GPRESSAVG
ENERGY: 800000 2.2427 8.6125 9.4981 0.0000 -11653.3544 1672.8517 0.0000 0.0000 1424.9474 -8535.2020 243.3207 -9960.1493 -8532.8566 243.3207 -293.4039 -202.5790 29313.0677 -293.4039 -202.5790
ENERGY: 900000 2.4804 6.4570 8.2628 0.0000 -11163.6009 1604.1730 0.0000 0.0000 1637.6119 -7904.6157 279.6348 -9542.2276 -7901.6133 269.6889 626.0617 720.7924 29440.8879 4.6138 4.3904
TCL: Running 1000000 steps at 300 kelvin.
TCL: Setting parameter langevinTemp to 300
TCL: Running for 1000000 steps
ETITLE: TS BOND ANGLE DIHED IMPRP ELECT VDW BOUNDARY MISC KINETIC TOTAL TEMP POTENTIAL TOTAL3 TEMPAVG PRESSURE GPRESSURE VOLUME PRESSAVG GPRESSAVG
ENERGY: 900000 2.4804 6.4570 8.2628 0.0000 -11163.6009 1604.1730 0.0000 0.0000 1636.8412 -7905.3864 279.5032 -9542.2276 -7902.7759 279.5032 633.1543 720.8620 29440.8879 633.1543 720.8620
ENERGY: 1100000 3.1738 11.2901 11.9835 0.0000 -10594.1083 1394.6066 0.0000 0.0000 1740.0372 -7433.0172 297.1247 -9173.0544 -7429.0155 300.5734 -31.3504 93.0768 29728.6423 3.5328 3.3870
ENERGY: 1300000 8.2437 9.7711 7.0492 0.0000 -10651.7802 1495.9487 0.0000 0.0000 1738.3521 -7392.4154 296.8370 -9130.7674 -7389.9356 300.6363 242.7888 359.2879 30466.6806 3.1739 3.0892
ENERGY: 1500000 7.1335 12.6647 9.7656 0.0000 -10705.6968 1503.3289 0.0000 0.0000 1762.9595 -7409.8446 301.0389 -9172.8041 -7405.8611 300.5571 673.2171 763.0822 30003.5125 4.8576 4.9606
ENERGY: 1700000 5.0025 7.0425 10.3481 0.0000 -10598.0082 1379.1972 0.0000 0.0000 1775.6615 -7420.7564 303.2078 -9196.4179 -7414.7611 299.8881 -475.7553 -426.6133 30216.8145 3.6831 3.9046
ENERGY: 1900000 4.1864 9.0743 9.8214 0.0000 -10577.0681 1336.5731 0.0000 0.0000 1767.1422 -7450.2708 301.7531 -9217.4129 -7446.1101 300.9163 -1298.5146 -1156.1910 30798.6200 3.0959 2.9628
TCL: Exiting due to exit command.
