Info: SIMULATION PARAMETERS:
Info: TIMESTEP               2
Info: NUMBER OF STEPS        0
Info: STEPS PER CYCLE        10
Info: PERIODIC CELL BASIS 1  34.986 0 0
Info: PERIODIC CELL BASIS 2  0 33.314 0
Info: PERIODIC CELL BASIS 3  0 0 37.451
Info: PERIODIC CELL CENTER   0 0 0
Info: WRAPPING WATERS AROUND PERIODIC BOUNDARIES ON OUTPUT.
Info: WRAPPING ALL CLUSTERS AROUND PERIODIC BOUNDARIES ON OUTPUT.
Info: FIRST LDB TIMESTEP     50
Info: LAST LDB TIMESTEP     -1
Info: HOM BACKGROUND SCALING 1
Info: PME BACKGROUND SCALING 1
Info: MIN ATOMS PER PATCH    40
Info: EMPTY PATCH LOAD       40 ATOMS
Info: INITIAL TEMPERATURE    300
Info: CENTER OF MASS MOVING INITIALLY? NO
Info: DIELECTRIC             1
Info: EXCLUDE                SCALED ONE-FOUR
Info: 1-4 ELECTROSTATICS SCALED BY 0.833333
Info: MODIFIED 1-4 VDW PARAMETERS WILL BE USED
Info: DCD FILENAME           mobley_7599023_equil.dcd
Info: DCD FREQUENCY          100000
Info: DCD FIRST STEP         100000
Info: DCD FILE WILL CONTAIN UNIT CELL DATA
Info: XST FILENAME           mobley_7599023_equil.xst
Info: XST FREQUENCY          100000
Info: NO VELOCITY DCD OUTPUT
Info: NO FORCE DCD OUTPUT
Info: OUTPUT FILENAME        mobley_7599023_equil
Info: BINARY OUTPUT FILES WILL BE USED
Info: RESTART FILENAME       mobley_7599023_equil.restart
Info: RESTART FREQUENCY      100000
Info: BINARY RESTART FILES WILL BE USED
Info: CUTOFF                 9
Info: PAIRLIST DISTANCE      11
Info: PAIRLIST SHRINK RATE   0.01
Info: PAIRLIST GROW RATE     0.01
Info: PAIRLIST TRIGGER       0.3
Info: PAIRLISTS PER CYCLE    2
Info: PAIRLISTS ENABLED
Info: MARGIN                 8
Info: HYDROGEN GROUP CUTOFF  2.5
Info: PATCH DIMENSION        21.5
Info: ENERGY OUTPUT STEPS    100000
Info: ENERGY EVALUATION STEPS    100000
Info: OUTPUT ENERGY PRECISION 4
Info: CROSSTERM ENERGY INCLUDED IN DIHEDRAL
Info: TIMING OUTPUT STEPS    1000000
Info: PRESSURE OUTPUT STEPS  100000
Info: LANGEVIN DYNAMICS ACTIVE
Info: LANGEVIN TEMPERATURE   30
Info: LANGEVIN USING BBK INTEGRATOR
Info: LANGEVIN DAMPING COEFFICIENT IS 1 INVERSE PS
Info: LANGEVIN DYNAMICS APPLIED TO HYDROGENS
Info: LANGEVIN PISTON PRESSURE CONTROL ACTIVE
Info:        TARGET PRESSURE IS 1.01325 BAR
Info:     OSCILLATION PERIOD IS 50 FS
Info:             DECAY TIME IS 25 FS
Info:     PISTON TEMPERATURE IS 300 K
Info:       PRESSURE CONTROL IS GROUP-BASED
Info:    INITIAL STRAIN RATE IS 0 0 0
Info:       CELL FLUCTUATION IS ISOTROPIC
Info: PARTICLE MESH EWALD (PME) ACTIVE
Info: PME TOLERANCE               1e-06
Info: PME EWALD COEFFICIENT       0.348832
Info: PME INTERPOLATION ORDER     4
Info: PME GRID DIMENSIONS         36 36 40
Info: PME MAXIMUM GRID SPACING    1
Info: FULL ELECTROSTATIC EVALUATION FREQUENCY      2
Info: USING VERLET I (r-RESPA) MTS SCHEME.
Info: C1 SPLITTING OF LONG RANGE ELECTROSTATICS
Info: PLACING ATOMS IN PATCHES BY HYDROGEN GROUPS
Info: RIGID BONDS TO HYDROGEN : ALL
Info:         ERROR TOLERANCE : 1e-08
Info:          MAX ITERATIONS : 100
Info: RIGID WATER USING SETTLE ALGORITHM
Info: RANDOM NUMBER SEED     1743164147
Info: USE HYDROGEN BONDS?    NO
Info: Using AMBER format force field!
Info: AMBER PARM FILE        mobley_7599023.prmtop
Info: COORDINATE PDB         mobley_7599023.pdb
Info: Exclusions will be read from PARM file!
Info: SCNB (VDW SCALING)     2
Info: USING ARITHMETIC MEAN TO COMBINE L-J SIGMA PARAMETERS
Info: BINARY COORDINATES     mobley_7599023_min.coor
Info: SUMMARY OF PARAMETERS:
Info: 5 BONDS
Info: 3 ANGLES
Info:   3 HARMONIC
Info:   0 COSINE-BASED
Info: 2 DIHEDRAL
Info: 0 IMPROPER
Info: 0 CROSSTERM
Info: 0 VDW
Info: 15 VDW_PAIRS
Info: 0 NBTHOLE_PAIRS
Info: STRUCTURE SUMMARY:
Info: 2925 ATOMS
Info: 2925 BONDS
Info: 18 ANGLES
Info: 30 DIHEDRALS
Info: 0 IMPROPERS
Info: 0 CROSSTERMS
Info: 2964 EXCLUSIONS
Info: 2918 RIGID BONDS
Info: 5857 DEGREES OF FREEDOM
Info: 978 HYDROGEN GROUPS
Info: 3 ATOMS IN LARGEST HYDROGEN GROUP
Info: 978 MIGRATION GROUPS
Info: 3 ATOMS IN LARGEST MIGRATION GROUP
Info: TOTAL MASS = 17650.5 amu
Info: TOTAL CHARGE = -5.58794e-09 e
Info: MASS DENSITY = 0.671479 g/cm^3
Info: ATOM DENSITY = 0.0670103 atoms/A^3
Info: ADDED 0 IMPLICIT EXCLUSIONS
Info: NONBONDED TABLE R-SQUARED SPACING: 0.0625
Info: NONBONDED TABLE SIZE: 705 POINTS
Info: REMOVING COM VELOCITY -0.109241 -0.155486 -0.0690883
TCL: Running for 100000 steps
ETITLE: TS BOND ANGLE DIHED IMPRP ELECT VDW BOUNDARY MISC KINETIC TOTAL TEMP POTENTIAL TOTAL3 TEMPAVG PRESSURE GPRESSURE VOLUME PRESSAVG GPRESSAVG
ENERGY: 0 0.1251 0.0251 0.0125 0.0000 -13526.4023 2396.3648 0.0000 0.0000 1798.6359 -9331.2390 309.0711 -11129.8748 -9330.8835 309.0711 506.7473 541.2651 43650.0245 506.7473 541.2651
ENERGY: 100000 0.3794 0.3633 0.2698 0.0000 -13986.1129 2349.5879 0.0000 0.0000 174.6943 -11460.8182 30.0188 -11635.5125 -11460.2739 31.0182 -1028.3414 -969.2359 28586.4264 4.9141 4.9398
TCL: Running 100000 steps at 60 kelvin.
TCL: Setting parameter langevinTemp to 60
TCL: Running for 100000 steps
ETITLE: TS BOND ANGLE DIHED IMPRP ELECT VDW BOUNDARY MISC KINETIC TOTAL TEMP POTENTIAL TOTAL3 TEMPAVG PRESSURE GPRESSURE VOLUME PRESSAVG GPRESSAVG
ENERGY: 100000 0.3794 0.3633 0.2698 0.0000 -13986.1129 2349.5879 0.0000 0.0000 174.6121 -11460.9004 30.0047 -11635.5125 -11460.5647 30.0047 -1039.8493 -969.1442 28586.4264 -1039.8493 -969.1442
ENERGY: 200000 0.6359 0.4921 0.5168 0.0000 -13930.9782 2356.0120 0.0000 0.0000 359.2828 -11214.0386 61.7379 -11573.3213 -11212.7437 60.0880 -497.1591 -422.6370 28482.6920 2.9153 2.9437
TCL: Running 100000 steps at 90 kelvin.
TCL: Setting parameter langevinTemp to 90
TCL: Running for 100000 steps
ETITLE: TS BOND ANGLE DIHED IMPRP ELECT VDW BOUNDARY MISC KINETIC TOTAL TEMP POTENTIAL TOTAL3 TEMPAVG PRESSURE GPRESSURE VOLUME PRESSAVG GPRESSAVG
ENERGY: 200000 0.6359 0.4921 0.5168 0.0000 -13930.9782 2356.0120 0.0000 0.0000 359.1173 -11214.2040 61.7094 -11573.3213 -11213.6614 61.7094 -487.8044 -422.1219 28482.6920 -487.8044 -422.1219
ENERGY: 300000 1.9340 0.8445 0.8525 0.0000 -13808.2814 2314.8026 0.0000 0.0000 518.3427 -10971.5051 89.0701 -11489.8478 -10970.4342 89.8269 -468.0985 -437.1052 28222.7288 2.0403 1.9898
TCL: Running 100000 steps at 120 kelvin.
TCL: Setting parameter langevinTemp to 120
TCL: Running for 100000 steps
ETITLE: TS BOND ANGLE DIHED IMPRP ELECT VDW BOUNDARY MISC KINETIC TOTAL TEMP POTENTIAL TOTAL3 TEMPAVG PRESSURE GPRESSURE VOLUME PRESSAVG GPRESSAVG
ENERGY: 300000 1.9340 0.8445 0.8525 0.0000 -13808.2814 2314.8026 0.0000 0.0000 518.0776 -10971.7702 89.0246 -11489.8478 -10970.6552 89.0246 -490.7873 -437.7655 28222.7288 -490.7873 -437.7655
ENERGY: 400000 0.7231 1.7916 0.6811 0.0000 -13617.0426 2250.9259 0.0000 0.0000 711.3812 -10651.5396 122.2412 -11362.9209 -10649.1537 119.9086 -582.0982 -529.1588 28431.5758 4.1225 4.1642
TCL: Running 100000 steps at 150 kelvin.
TCL: Setting parameter langevinTemp to 150
TCL: Running for 100000 steps
ETITLE: TS BOND ANGLE DIHED IMPRP ELECT VDW BOUNDARY MISC KINETIC TOTAL TEMP POTENTIAL TOTAL3 TEMPAVG PRESSURE GPRESSURE VOLUME PRESSAVG GPRESSAVG
ENERGY: 400000 0.7231 1.7916 0.6811 0.0000 -13617.0426 2250.9259 0.0000 0.0000 711.0317 -10651.8891 122.1811 -11362.9209 -10650.3761 122.1811 -567.8152 -528.7600 28431.5758 -567.8152 -528.7600
ENERGY: 500000 0.3676 0.6304 2.3558 0.0000 -13504.2783 2318.2054 0.0000 0.0000 896.1646 -10286.5545 153.9937 -11182.7191 -10283.8753 149.5225 697.1672 805.9972 28315.2971 2.9897 3.0430
TCL: Running 100000 steps at 180 kelvin.
TCL: Setting parameter langevinTemp to 180
TCL: Running for 100000 steps
ETITLE: TS BOND ANGLE DIHED IMPRP ELECT VDW BOUNDARY MISC KINETIC TOTAL TEMP POTENTIAL TOTAL3 TEMPAVG PRESSURE GPRESSURE VOLUME PRESSAVG GPRESSAVG
ENERGY: 500000 0.3676 0.6304 2.3558 0.0000 -13504.2783 2318.2054 0.0000 0.0000 895.7359 -10286.9832 153.9200 -11182.7191 -10285.4396 153.9200 764.9414 807.6544 28315.2971 764.9414 807.6544
ENERGY: 600000 1.5586 0.7412 1.1621 0.0000 -13042.2395 2137.1797 0.0000 0.0000 1063.5982 -9837.9997 182.7649 -10901.5979 -9835.3250 179.8695 -85.5164 -2.7337 29059.9915 4.2661 4.1926
TCL: Running 100000 steps at 210 kelvin.
TCL: Setting parameter langevinTemp to 210
TCL: Running for 100000 steps
ETITLE: TS BOND ANGLE DIHED IMPRP ELECT VDW BOUNDARY MISC KINETIC TOTAL TEMP POTENTIAL TOTAL3 TEMPAVG PRESSURE GPRESSURE VOLUME PRESSAVG GPRESSAVG
ENERGY: 600000 1.5586 0.7412 1.1621 0.0000 -13042.2395 2137.1797 0.0000 0.0000 1063.0916 -9838.5063 182.6778 -10901.5979 -9836.7478 182.6778 -65.5600 -2.6995 29059.9915 -65.5600 -2.6995
ENERGY: 700000 1.6632 0.6746 2.3253 0.0000 -12285.9586 1859.5271 0.0000 0.0000 1260.4288 -9161.3395 216.5875 -10421.7683 -9157.8067 209.7091 -554.7784 -456.9040 29212.6961 4.7001 4.9670
TCL: Running 100000 steps at 240 kelvin.
TCL: Setting parameter langevinTemp to 240
TCL: Running for 100000 steps
ETITLE: TS BOND ANGLE DIHED IMPRP ELECT VDW BOUNDARY MISC KINETIC TOTAL TEMP POTENTIAL TOTAL3 TEMPAVG PRESSURE GPRESSURE VOLUME PRESSAVG GPRESSAVG
ENERGY: 700000 1.6632 0.6746 2.3253 0.0000 -12285.9586 1859.5271 0.0000 0.0000 1259.8124 -9161.9559 216.4816 -10421.7683 -9159.3466 216.4816 -537.7044 -456.8726 29212.6961 -537.7044 -456.8726
ENERGY: 800000 0.6970 0.9397 3.3224 0.0000 -11740.3317 1723.6100 0.0000 0.0000 1370.1471 -8641.6156 235.4411 -10011.7627 -8638.0361 239.8662 76.9221 134.0219 28731.7676 3.4941 3.5418
TCL: Running 100000 steps at 270 kelvin.
TCL: Setting parameter langevinTemp to 270
TCL: Running for 100000 steps
ETITLE: TS BOND ANGLE DIHED IMPRP ELECT VDW BOUNDARY MISC KINETIC TOTAL TEMP POTENTIAL TOTAL3 TEMPAVG PRESSURE GPRESSURE VOLUME PRESSAVG GPRESSAVG
ENERGY: 800000 0.6970 0.9397 3.3224 0.0000 -11740.3317 1723.6100 0.0000 0.0000 1369.4401 -8642.3226 235.3197 -10011.7627 -8639.4683 235.3197 53.0034 133.4225 28731.7676 53.0034 133.4225
ENERGY: 900000 3.6060 2.7668 4.3221 0.0000 -10996.8672 1471.0470 0.0000 0.0000 1568.6599 -7946.4654 269.5529 -9515.1253 -7942.6035 269.6205 -337.8347 -260.5252 29229.4307 2.8086 2.8791
TCL: Running 1000000 steps at 300 kelvin.
TCL: Setting parameter langevinTemp to 300
TCL: Running for 1000000 steps
ETITLE: TS BOND ANGLE DIHED IMPRP ELECT VDW BOUNDARY MISC KINETIC TOTAL TEMP POTENTIAL TOTAL3 TEMPAVG PRESSURE GPRESSURE VOLUME PRESSAVG GPRESSAVG
ENERGY: 900000 3.6060 2.7668 4.3221 0.0000 -10996.8672 1471.0470 0.0000 0.0000 1567.8828 -7947.2425 269.4193 -9515.1253 -7945.6394 269.4193 -346.8342 -259.5380 29229.4307 -346.8342 -259.5380
ENERGY: 1100000 1.4684 2.2359 2.5211 0.0000 -10608.1468 1417.7756 0.0000 0.0000 1730.5604 -7453.5854 297.3733 -9184.1458 -7452.1333 300.5512 -193.1620 -56.4419 30164.3741 2.3874 2.3704
ENERGY: 1300000 1.5098 0.4603 1.9477 0.0000 -10613.8486 1430.0035 0.0000 0.0000 1694.2881 -7485.6392 291.1404 -9179.9273 -7482.7202 300.8582 86.3014 134.6120 29878.4890 3.6146 3.8946
ENERGY: 1500000 1.9180 3.5073 3.5169 0.0000 -10637.9750 1482.2827 0.0000 0.0000 1779.0002 -7367.7499 305.6970 -9146.7501 -7364.0352 299.9891 644.1965 680.1099 29895.5627 3.5579 3.6386
ENERGY: 1700000 1.1890 1.7414 0.7377 0.0000 -10599.8268 1403.0062 0.0000 0.0000 1745.5692 -7447.5834 299.9523 -9193.1525 -7441.1338 299.9797 -397.7837 -287.7289 30263.3390 3.3234 3.3767
ENERGY: 1900000 1.7014 3.4082 2.2545 0.0000 -10747.5515 1482.7094 0.0000 0.0000 1772.0525 -7485.4255 304.5031 -9257.4780 -7480.1851 299.7481 512.5655 566.5783 29966.3510 3.4538 3.3735
TCL: Exiting due to exit command.
