Info: SIMULATION PARAMETERS:
Info: TIMESTEP               2
Info: NUMBER OF STEPS        0
Info: STEPS PER CYCLE        10
Info: PERIODIC CELL BASIS 1  34.207 0 0
Info: PERIODIC CELL BASIS 2  0 33.542 0
Info: PERIODIC CELL BASIS 3  0 0 37.451
Info: PERIODIC CELL CENTER   0 0 0
Info: WRAPPING WATERS AROUND PERIODIC BOUNDARIES ON OUTPUT.
Info: WRAPPING ALL CLUSTERS AROUND PERIODIC BOUNDARIES ON OUTPUT.
Info: FIRST LDB TIMESTEP     50
Info: LAST LDB TIMESTEP     -1
Info: HOM BACKGROUND SCALING 1
Info: PME BACKGROUND SCALING 1
Info: MIN ATOMS PER PATCH    40
Info: EMPTY PATCH LOAD       40 ATOMS
Info: INITIAL TEMPERATURE    300
Info: CENTER OF MASS MOVING INITIALLY? NO
Info: DIELECTRIC             1
Info: EXCLUDE                SCALED ONE-FOUR
Info: 1-4 ELECTROSTATICS SCALED BY 0.833333
Info: MODIFIED 1-4 VDW PARAMETERS WILL BE USED
Info: DCD FILENAME           mobley_4603202_equil.dcd
Info: DCD FREQUENCY          100000
Info: DCD FIRST STEP         100000
Info: DCD FILE WILL CONTAIN UNIT CELL DATA
Info: XST FILENAME           mobley_4603202_equil.xst
Info: XST FREQUENCY          100000
Info: NO VELOCITY DCD OUTPUT
Info: NO FORCE DCD OUTPUT
Info: OUTPUT FILENAME        mobley_4603202_equil
Info: BINARY OUTPUT FILES WILL BE USED
Info: RESTART FILENAME       mobley_4603202_equil.restart
Info: RESTART FREQUENCY      100000
Info: BINARY RESTART FILES WILL BE USED
Info: CUTOFF                 9
Info: PAIRLIST DISTANCE      11
Info: PAIRLIST SHRINK RATE   0.01
Info: PAIRLIST GROW RATE     0.01
Info: PAIRLIST TRIGGER       0.3
Info: PAIRLISTS PER CYCLE    2
Info: PAIRLISTS ENABLED
Info: MARGIN                 8
Info: HYDROGEN GROUP CUTOFF  2.5
Info: PATCH DIMENSION        21.5
Info: ENERGY OUTPUT STEPS    100000
Info: ENERGY EVALUATION STEPS    100000
Info: OUTPUT ENERGY PRECISION 4
Info: CROSSTERM ENERGY INCLUDED IN DIHEDRAL
Info: TIMING OUTPUT STEPS    1000000
Info: PRESSURE OUTPUT STEPS  100000
Info: LANGEVIN DYNAMICS ACTIVE
Info: LANGEVIN TEMPERATURE   30
Info: LANGEVIN USING BBK INTEGRATOR
Info: LANGEVIN DAMPING COEFFICIENT IS 1 INVERSE PS
Info: LANGEVIN DYNAMICS APPLIED TO HYDROGENS
Info: LANGEVIN PISTON PRESSURE CONTROL ACTIVE
Info:        TARGET PRESSURE IS 1.01325 BAR
Info:     OSCILLATION PERIOD IS 50 FS
Info:             DECAY TIME IS 25 FS
Info:     PISTON TEMPERATURE IS 300 K
Info:       PRESSURE CONTROL IS GROUP-BASED
Info:    INITIAL STRAIN RATE IS 0 0 0
Info:       CELL FLUCTUATION IS ISOTROPIC
Info: PARTICLE MESH EWALD (PME) ACTIVE
Info: PME TOLERANCE               1e-06
Info: PME EWALD COEFFICIENT       0.348832
Info: PME INTERPOLATION ORDER     4
Info: PME GRID DIMENSIONS         36 36 40
Info: PME MAXIMUM GRID SPACING    1
Info: FULL ELECTROSTATIC EVALUATION FREQUENCY      2
Info: USING VERLET I (r-RESPA) MTS SCHEME.
Info: C1 SPLITTING OF LONG RANGE ELECTROSTATICS
Info: PLACING ATOMS IN PATCHES BY HYDROGEN GROUPS
Info: RIGID BONDS TO HYDROGEN : ALL
Info:         ERROR TOLERANCE : 1e-08
Info:          MAX ITERATIONS : 100
Info: RIGID WATER USING SETTLE ALGORITHM
Info: RANDOM NUMBER SEED     1743253380
Info: USE HYDROGEN BONDS?    NO
Info: Using AMBER format force field!
Info: AMBER PARM FILE        mobley_4603202.prmtop
Info: COORDINATE PDB         mobley_4603202.pdb
Info: Exclusions will be read from PARM file!
Info: SCNB (VDW SCALING)     2
Info: USING ARITHMETIC MEAN TO COMBINE L-J SIGMA PARAMETERS
Info: BINARY COORDINATES     mobley_4603202_min.coor
Info: SUMMARY OF PARAMETERS:
Info: 6 BONDS
Info: 7 ANGLES
Info: 6 DIHEDRAL
Info: 0 IMPROPER
Info: 0 CROSSTERM
Info: 0 VDW
Info: 21 VDW_PAIRS
Info: 0 NBTHOLE_PAIRS
Info: STRUCTURE SUMMARY:
Info: 2952 ATOMS
Info: 2951 BONDS
Info: 25 ANGLES
Info: 34 DIHEDRALS
Info: 0 IMPROPERS
Info: 0 CROSSTERMS
Info: 3000 EXCLUSIONS
Info: 2945 RIGID BONDS
Info: 5911 DEGREES OF FREEDOM
Info: 986 HYDROGEN GROUPS
Info: 3 ATOMS IN LARGEST HYDROGEN GROUP
Info: 986 MIGRATION GROUPS
Info: 3 ATOMS IN LARGEST MIGRATION GROUP
Info: TOTAL MASS = 17780.7 amu
Info: TOTAL CHARGE = 9.99905e-05 e
Info: MASS DENSITY = 0.687132 g/cm^3
Info: ATOM DENSITY = 0.0686988 atoms/A^3
Info: ADDED 0 IMPLICIT EXCLUSIONS
Info: NONBONDED TABLE R-SQUARED SPACING: 0.0625
Info: NONBONDED TABLE SIZE: 705 POINTS
Info: REMOVING COM VELOCITY -0.0892087 -0.181398 0.205199
TCL: Running for 100000 steps
ETITLE: TS BOND ANGLE DIHED IMPRP ELECT VDW BOUNDARY MISC KINETIC TOTAL TEMP POTENTIAL TOTAL3 TEMPAVG PRESSURE GPRESSURE VOLUME PRESSAVG GPRESSAVG
ENERGY: 0 0.0807 0.3507 1.7936 0.0000 -13670.7083 2388.1020 0.0000 0.0000 1828.7641 -9451.6172 311.3774 -11280.3813 -9451.2628 311.3774 271.6096 312.9697 42970.1986 271.6096 312.9697
ENERGY: 100000 0.3904 0.6017 2.4848 0.0000 -14055.4482 2301.5860 0.0000 0.0000 177.4969 -11572.8884 30.2218 -11750.3853 -11572.4693 30.9424 -1586.4538 -1535.4736 29186.6682 3.8412 3.8702
TCL: Running 100000 steps at 60 kelvin.
TCL: Setting parameter langevinTemp to 60
TCL: Running for 100000 steps
ETITLE: TS BOND ANGLE DIHED IMPRP ELECT VDW BOUNDARY MISC KINETIC TOTAL TEMP POTENTIAL TOTAL3 TEMPAVG PRESSURE GPRESSURE VOLUME PRESSAVG GPRESSAVG
ENERGY: 100000 0.3904 0.6017 2.4848 0.0000 -14055.4482 2301.5860 0.0000 0.0000 177.4099 -11572.9754 30.2070 -11750.3853 -11572.5327 30.2070 -1589.1392 -1535.7944 29186.6682 -1589.1392 -1535.7944
ENERGY: 200000 0.3485 1.7205 1.9019 0.0000 -14118.9610 2434.8008 0.0000 0.0000 360.6620 -11319.5273 61.4087 -11680.1893 -11318.4726 59.8404 -33.4196 6.9532 28714.2076 5.1103 4.9547
TCL: Running 100000 steps at 90 kelvin.
TCL: Setting parameter langevinTemp to 90
TCL: Running for 100000 steps
ETITLE: TS BOND ANGLE DIHED IMPRP ELECT VDW BOUNDARY MISC KINETIC TOTAL TEMP POTENTIAL TOTAL3 TEMPAVG PRESSURE GPRESSURE VOLUME PRESSAVG GPRESSAVG
ENERGY: 200000 0.3485 1.7205 1.9019 0.0000 -14118.9610 2434.8008 0.0000 0.0000 360.4852 -11319.7042 61.3786 -11680.1893 -11318.9436 61.3786 -35.5698 7.1438 28714.2076 -35.5698 7.1438
ENERGY: 300000 0.4045 2.1520 2.2414 0.0000 -14090.8335 2475.5285 0.0000 0.0000 524.9022 -11085.6049 89.3733 -11610.5071 -11084.5030 90.0959 944.2467 974.7283 28202.1051 4.4453 4.4806
TCL: Running 100000 steps at 120 kelvin.
TCL: Setting parameter langevinTemp to 120
TCL: Running for 100000 steps
ETITLE: TS BOND ANGLE DIHED IMPRP ELECT VDW BOUNDARY MISC KINETIC TOTAL TEMP POTENTIAL TOTAL3 TEMPAVG PRESSURE GPRESSURE VOLUME PRESSAVG GPRESSAVG
ENERGY: 300000 0.4045 2.1520 2.2414 0.0000 -14090.8335 2475.5285 0.0000 0.0000 524.6456 -11085.8615 89.3296 -11610.5071 -11084.9665 89.3296 921.7379 974.7786 28202.1051 921.7379 974.7786
ENERGY: 400000 0.6408 3.2377 2.1501 0.0000 -13654.0812 2217.6905 0.0000 0.0000 702.6913 -10727.6708 119.6448 -11430.3621 -10725.5033 120.0627 -917.6128 -845.9471 28916.1091 3.7003 3.6357
TCL: Running 100000 steps at 150 kelvin.
TCL: Setting parameter langevinTemp to 150
TCL: Running for 100000 steps
ETITLE: TS BOND ANGLE DIHED IMPRP ELECT VDW BOUNDARY MISC KINETIC TOTAL TEMP POTENTIAL TOTAL3 TEMPAVG PRESSURE GPRESSURE VOLUME PRESSAVG GPRESSAVG
ENERGY: 400000 0.6408 3.2377 2.1501 0.0000 -13654.0812 2217.6905 0.0000 0.0000 702.3356 -10728.0265 119.5843 -11430.3621 -10726.5033 119.5843 -896.9192 -845.8776 28916.1091 -896.9192 -845.8776
ENERGY: 500000 0.6590 4.9764 3.5290 0.0000 -13547.4165 2291.3575 0.0000 0.0000 896.2571 -10350.6375 152.6026 -11246.8946 -10349.2184 150.1899 390.3571 425.5299 28838.5167 3.7465 3.6953
TCL: Running 100000 steps at 180 kelvin.
TCL: Setting parameter langevinTemp to 180
TCL: Running for 100000 steps
ETITLE: TS BOND ANGLE DIHED IMPRP ELECT VDW BOUNDARY MISC KINETIC TOTAL TEMP POTENTIAL TOTAL3 TEMPAVG PRESSURE GPRESSURE VOLUME PRESSAVG GPRESSAVG
ENERGY: 500000 0.6590 4.9764 3.5290 0.0000 -13547.4165 2291.3575 0.0000 0.0000 895.8144 -10351.0802 152.5273 -11246.8946 -10349.3434 152.5273 377.0369 424.6350 28838.5167 377.0369 424.6350
ENERGY: 600000 1.3156 3.7651 1.5624 0.0000 -13160.3523 2151.6275 0.0000 0.0000 1074.3909 -9927.6909 182.9329 -11002.0817 -9925.7391 180.2105 188.7419 247.2592 28841.1783 4.4720 4.4600
TCL: Running 100000 steps at 210 kelvin.
TCL: Setting parameter langevinTemp to 210
TCL: Running for 100000 steps
ETITLE: TS BOND ANGLE DIHED IMPRP ELECT VDW BOUNDARY MISC KINETIC TOTAL TEMP POTENTIAL TOTAL3 TEMPAVG PRESSURE GPRESSURE VOLUME PRESSAVG GPRESSAVG
ENERGY: 600000 1.3156 3.7651 1.5624 0.0000 -13160.3523 2151.6275 0.0000 0.0000 1073.8706 -9928.2111 182.8443 -11002.0817 -9925.9171 182.8443 173.5194 245.8911 28841.1783 173.5194 245.8911
ENERGY: 700000 2.0583 4.9399 3.5216 0.0000 -12453.6872 1946.6559 0.0000 0.0000 1191.8343 -9304.6773 202.9296 -10496.5116 -9300.9931 209.7808 285.0333 402.4469 28850.1925 3.3566 3.3940
TCL: Running 100000 steps at 240 kelvin.
TCL: Setting parameter langevinTemp to 240
TCL: Running for 100000 steps
ETITLE: TS BOND ANGLE DIHED IMPRP ELECT VDW BOUNDARY MISC KINETIC TOTAL TEMP POTENTIAL TOTAL3 TEMPAVG PRESSURE GPRESSURE VOLUME PRESSAVG GPRESSAVG
ENERGY: 700000 2.0583 4.9399 3.5216 0.0000 -12453.6872 1946.6559 0.0000 0.0000 1191.2280 -9305.2836 202.8263 -10496.5116 -9303.6053 202.8263 320.7087 405.1430 28850.1925 320.7087 405.1430
ENERGY: 800000 2.3157 5.2768 2.0557 0.0000 -11829.2900 1770.0042 0.0000 0.0000 1394.0578 -8655.5799 237.3615 -10049.6377 -8652.5072 239.7496 528.7036 657.8721 28951.7784 3.4923 3.3239
TCL: Running 100000 steps at 270 kelvin.
TCL: Setting parameter langevinTemp to 270
TCL: Running for 100000 steps
ETITLE: TS BOND ANGLE DIHED IMPRP ELECT VDW BOUNDARY MISC KINETIC TOTAL TEMP POTENTIAL TOTAL3 TEMPAVG PRESSURE GPRESSURE VOLUME PRESSAVG GPRESSAVG
ENERGY: 800000 2.3157 5.2768 2.0557 0.0000 -11829.2900 1770.0042 0.0000 0.0000 1393.3809 -8656.2568 237.2462 -10049.6377 -8654.2819 237.2462 569.8693 658.2479 28951.7784 569.8693 658.2479
ENERGY: 900000 3.8362 7.6866 3.1141 0.0000 -11195.0480 1561.3817 0.0000 0.0000 1539.3682 -8079.6612 262.1030 -9619.0294 -8075.4436 269.8929 -118.8743 -31.6654 29586.1809 2.6506 2.5410
TCL: Running 1000000 steps at 300 kelvin.
TCL: Setting parameter langevinTemp to 300
TCL: Running for 1000000 steps
ETITLE: TS BOND ANGLE DIHED IMPRP ELECT VDW BOUNDARY MISC KINETIC TOTAL TEMP POTENTIAL TOTAL3 TEMPAVG PRESSURE GPRESSURE VOLUME PRESSAVG GPRESSAVG
ENERGY: 900000 3.8362 7.6866 3.1141 0.0000 -11195.0480 1561.3817 0.0000 0.0000 1538.6007 -8080.4287 261.9723 -9619.0294 -8077.9726 261.9723 -123.1915 -31.9320 29586.1809 -123.1915 -31.9320
ENERGY: 1100000 1.9672 5.6652 4.4993 0.0000 -10788.9293 1500.6815 0.0000 0.0000 1797.7181 -7478.3981 306.0913 -9276.1162 -7474.9931 299.9751 585.4131 644.7040 30210.3671 2.3036 2.2333
ENERGY: 1300000 2.7241 6.3822 2.7897 0.0000 -10673.1601 1367.1857 0.0000 0.0000 1716.7738 -7577.3047 292.3092 -9294.0784 -7573.7539 299.6697 -662.2281 -579.1172 30250.3091 4.3427 4.5433
ENERGY: 1500000 1.1029 3.5889 6.3009 0.0000 -10740.4772 1463.2966 0.0000 0.0000 1727.0633 -7539.1247 294.0612 -9266.1880 -7537.1991 299.5202 83.2031 80.9554 30332.0079 4.4873 4.5371
ENERGY: 1700000 2.6391 4.0159 4.6055 0.0000 -10735.7602 1438.0322 0.0000 0.0000 1821.9055 -7464.5619 310.2096 -9286.4674 -7459.4903 299.7991 -238.3479 -98.2568 30516.2459 2.1040 1.9466
ENERGY: 1900000 4.5212 4.7597 3.5976 0.0000 -10630.3421 1407.7653 0.0000 0.0000 1759.0856 -7450.6126 299.5135 -9209.6983 -7446.9067 300.0726 7.1748 85.8961 30226.3288 2.7154 2.6770
TCL: Exiting due to exit command.
