Info: SIMULATION PARAMETERS:
Info: TIMESTEP               2
Info: NUMBER OF STEPS        0
Info: STEPS PER CYCLE        10
Info: PERIODIC CELL BASIS 1  36.281 0 0
Info: PERIODIC CELL BASIS 2  0 35.847 0
Info: PERIODIC CELL BASIS 3  0 0 34.68
Info: PERIODIC CELL CENTER   0 0 0
Info: WRAPPING WATERS AROUND PERIODIC BOUNDARIES ON OUTPUT.
Info: WRAPPING ALL CLUSTERS AROUND PERIODIC BOUNDARIES ON OUTPUT.
Info: FIRST LDB TIMESTEP     50
Info: LAST LDB TIMESTEP     -1
Info: HOM BACKGROUND SCALING 1
Info: PME BACKGROUND SCALING 1
Info: MIN ATOMS PER PATCH    40
Info: EMPTY PATCH LOAD       40 ATOMS
Info: INITIAL TEMPERATURE    300
Info: CENTER OF MASS MOVING INITIALLY? NO
Info: DIELECTRIC             1
Info: EXCLUDE                SCALED ONE-FOUR
Info: 1-4 ELECTROSTATICS SCALED BY 0.833333
Info: MODIFIED 1-4 VDW PARAMETERS WILL BE USED
Info: DCD FILENAME           mobley_8885088_equil.dcd
Info: DCD FREQUENCY          100000
Info: DCD FIRST STEP         100000
Info: DCD FILE WILL CONTAIN UNIT CELL DATA
Info: XST FILENAME           mobley_8885088_equil.xst
Info: XST FREQUENCY          100000
Info: NO VELOCITY DCD OUTPUT
Info: NO FORCE DCD OUTPUT
Info: OUTPUT FILENAME        mobley_8885088_equil
Info: BINARY OUTPUT FILES WILL BE USED
Info: RESTART FILENAME       mobley_8885088_equil.restart
Info: RESTART FREQUENCY      100000
Info: BINARY RESTART FILES WILL BE USED
Info: CUTOFF                 9
Info: PAIRLIST DISTANCE      11
Info: PAIRLIST SHRINK RATE   0.01
Info: PAIRLIST GROW RATE     0.01
Info: PAIRLIST TRIGGER       0.3
Info: PAIRLISTS PER CYCLE    2
Info: PAIRLISTS ENABLED
Info: MARGIN                 8
Info: HYDROGEN GROUP CUTOFF  2.5
Info: PATCH DIMENSION        21.5
Info: ENERGY OUTPUT STEPS    100000
Info: ENERGY EVALUATION STEPS    100000
Info: OUTPUT ENERGY PRECISION 4
Info: CROSSTERM ENERGY INCLUDED IN DIHEDRAL
Info: TIMING OUTPUT STEPS    1000000
Info: PRESSURE OUTPUT STEPS  100000
Info: LANGEVIN DYNAMICS ACTIVE
Info: LANGEVIN TEMPERATURE   30
Info: LANGEVIN USING BBK INTEGRATOR
Info: LANGEVIN DAMPING COEFFICIENT IS 1 INVERSE PS
Info: LANGEVIN DYNAMICS APPLIED TO HYDROGENS
Info: LANGEVIN PISTON PRESSURE CONTROL ACTIVE
Info:        TARGET PRESSURE IS 1.01325 BAR
Info:     OSCILLATION PERIOD IS 50 FS
Info:             DECAY TIME IS 25 FS
Info:     PISTON TEMPERATURE IS 300 K
Info:       PRESSURE CONTROL IS GROUP-BASED
Info:    INITIAL STRAIN RATE IS 0 0 0
Info:       CELL FLUCTUATION IS ISOTROPIC
Info: PARTICLE MESH EWALD (PME) ACTIVE
Info: PME TOLERANCE               1e-06
Info: PME EWALD COEFFICIENT       0.348832
Info: PME INTERPOLATION ORDER     4
Info: PME GRID DIMENSIONS         40 36 36
Info: PME MAXIMUM GRID SPACING    1
Info: FULL ELECTROSTATIC EVALUATION FREQUENCY      2
Info: USING VERLET I (r-RESPA) MTS SCHEME.
Info: C1 SPLITTING OF LONG RANGE ELECTROSTATICS
Info: PLACING ATOMS IN PATCHES BY HYDROGEN GROUPS
Info: RIGID BONDS TO HYDROGEN : ALL
Info:         ERROR TOLERANCE : 1e-08
Info:          MAX ITERATIONS : 100
Info: RIGID WATER USING SETTLE ALGORITHM
Info: RANDOM NUMBER SEED     1743208920
Info: USE HYDROGEN BONDS?    NO
Info: Using AMBER format force field!
Info: AMBER PARM FILE        mobley_8885088.prmtop
Info: COORDINATE PDB         mobley_8885088.pdb
Info: Exclusions will be read from PARM file!
Info: SCNB (VDW SCALING)     2
Info: USING ARITHMETIC MEAN TO COMBINE L-J SIGMA PARAMETERS
Info: BINARY COORDINATES     mobley_8885088_min.coor
Info: SUMMARY OF PARAMETERS:
Info: 7 BONDS
Info: 8 ANGLES
Info:   8 HARMONIC
Info:   0 COSINE-BASED
Info: 9 DIHEDRAL
Info: 0 IMPROPER
Info: 0 CROSSTERM
Info: 0 VDW
Info: 21 VDW_PAIRS
Info: 0 NBTHOLE_PAIRS
Info: STRUCTURE SUMMARY:
Info: 2959 ATOMS
Info: 2959 BONDS
Info: 24 ANGLES
Info: 45 DIHEDRALS
Info: 0 IMPROPERS
Info: 0 CROSSTERMS
Info: 3012 EXCLUSIONS
Info: 2954 RIGID BONDS
Info: 5923 DEGREES OF FREEDOM
Info: 987 HYDROGEN GROUPS
Info: 3 ATOMS IN LARGEST HYDROGEN GROUP
Info: 987 MIGRATION GROUPS
Info: 3 ATOMS IN LARGEST MIGRATION GROUP
Info: TOTAL MASS = 17759.8 amu
Info: TOTAL CHARGE = -0.000200003 e
Info: MASS DENSITY = 0.653863 g/cm^3
Info: ATOM DENSITY = 0.0656045 atoms/A^3
Info: ADDED 0 IMPLICIT EXCLUSIONS
Info: NONBONDED TABLE R-SQUARED SPACING: 0.0625
Info: NONBONDED TABLE SIZE: 705 POINTS
Info: REMOVING COM VELOCITY 0.162629 -0.074041 -0.0387699
TCL: Running for 100000 steps
ETITLE: TS BOND ANGLE DIHED IMPRP ELECT VDW BOUNDARY MISC KINETIC TOTAL TEMP POTENTIAL TOTAL3 TEMPAVG PRESSURE GPRESSURE VOLUME PRESSAVG GPRESSAVG
ENERGY: 0 0.1705 9.5146 7.7117 0.0000 -13676.7560 2430.7423 0.0000 0.0000 1766.4524 -9462.1646 300.1585 -11228.6169 -9461.8025 300.1585 597.8091 633.1424 45103.5944 597.8091 633.1424
ENERGY: 100000 0.2298 10.4429 7.8071 0.0000 -14314.5343 2513.2273 0.0000 0.0000 183.0531 -11599.7740 31.1047 -11782.8271 -11599.4146 30.9189 204.8219 253.9969 28973.1021 4.4708 4.4308
TCL: Running 100000 steps at 60 kelvin.
TCL: Setting parameter langevinTemp to 60
TCL: Running for 100000 steps
ETITLE: TS BOND ANGLE DIHED IMPRP ELECT VDW BOUNDARY MISC KINETIC TOTAL TEMP POTENTIAL TOTAL3 TEMPAVG PRESSURE GPRESSURE VOLUME PRESSAVG GPRESSAVG
ENERGY: 100000 0.2298 10.4429 7.8071 0.0000 -14314.5343 2513.2273 0.0000 0.0000 182.9654 -11599.8617 31.0898 -11782.8271 -11599.4847 31.0898 198.1425 253.9644 28973.1021 198.1425 253.9644
ENERGY: 200000 0.2934 10.4439 7.9373 0.0000 -14086.0261 2345.0550 0.0000 0.0000 346.9736 -11375.3229 58.9583 -11722.2965 -11374.3333 59.9752 -884.4674 -828.8251 28589.2389 5.1490 5.1432
TCL: Running 100000 steps at 90 kelvin.
TCL: Setting parameter langevinTemp to 90
TCL: Running for 100000 steps
ETITLE: TS BOND ANGLE DIHED IMPRP ELECT VDW BOUNDARY MISC KINETIC TOTAL TEMP POTENTIAL TOTAL3 TEMPAVG PRESSURE GPRESSURE VOLUME PRESSAVG GPRESSAVG
ENERGY: 200000 0.2934 10.4439 7.9373 0.0000 -14086.0261 2345.0550 0.0000 0.0000 346.8042 -11375.4922 58.9295 -11722.2965 -11374.5576 58.9295 -880.7421 -829.0063 28589.2389 -880.7421 -829.0063
ENERGY: 300000 0.1164 11.0960 8.5821 0.0000 -14083.7818 2462.3316 0.0000 0.0000 500.3089 -11101.3470 85.0133 -11601.6559 -11100.5207 90.0389 845.6493 871.1796 28206.4838 4.5738 4.5725
TCL: Running 100000 steps at 120 kelvin.
TCL: Setting parameter langevinTemp to 120
TCL: Running for 100000 steps
ETITLE: TS BOND ANGLE DIHED IMPRP ELECT VDW BOUNDARY MISC KINETIC TOTAL TEMP POTENTIAL TOTAL3 TEMPAVG PRESSURE GPRESSURE VOLUME PRESSAVG GPRESSAVG
ENERGY: 300000 0.1164 11.0960 8.5821 0.0000 -14083.7818 2462.3316 0.0000 0.0000 500.0518 -11101.6041 84.9696 -11601.6559 -11100.7257 84.9696 818.1605 870.8188 28206.4838 818.1605 870.8188
ENERGY: 400000 0.6822 10.7912 7.9745 0.0000 -14010.3972 2487.3190 0.0000 0.0000 703.2640 -10800.3663 119.4998 -11503.6303 -10798.2728 120.0816 1206.3161 1263.3721 28554.3413 3.6696 3.6395
TCL: Running 100000 steps at 150 kelvin.
TCL: Setting parameter langevinTemp to 150
TCL: Running for 100000 steps
ETITLE: TS BOND ANGLE DIHED IMPRP ELECT VDW BOUNDARY MISC KINETIC TOTAL TEMP POTENTIAL TOTAL3 TEMPAVG PRESSURE GPRESSURE VOLUME PRESSAVG GPRESSAVG
ENERGY: 400000 0.6822 10.7912 7.9745 0.0000 -14010.3972 2487.3190 0.0000 0.0000 702.9101 -10800.7202 119.4396 -11503.6303 -10799.1594 119.4396 1214.3725 1263.0634 28554.3413 1214.3725 1263.0634
ENERGY: 500000 1.8171 12.9201 7.7124 0.0000 -13585.7978 2253.2054 0.0000 0.0000 874.5912 -10435.5516 148.6120 -11310.1428 -10433.3382 150.2097 -224.5716 -177.7919 28765.2729 3.8080 3.6867
TCL: Running 100000 steps at 180 kelvin.
TCL: Setting parameter langevinTemp to 180
TCL: Running for 100000 steps
ETITLE: TS BOND ANGLE DIHED IMPRP ELECT VDW BOUNDARY MISC KINETIC TOTAL TEMP POTENTIAL TOTAL3 TEMPAVG PRESSURE GPRESSURE VOLUME PRESSAVG GPRESSAVG
ENERGY: 500000 1.8171 12.9201 7.7124 0.0000 -13585.7978 2253.2054 0.0000 0.0000 874.1494 -10435.9934 148.5369 -11310.1428 -10434.3327 148.5369 -230.0278 -177.4721 28765.2729 -230.0278 -177.4721
ENERGY: 600000 0.9352 14.6645 8.4773 0.0000 -13118.3184 2129.4677 0.0000 0.0000 1084.8800 -9879.8936 184.3446 -10964.7736 -9878.1385 179.9333 260.5678 304.0254 28694.9721 3.7813 3.8338
TCL: Running 100000 steps at 210 kelvin.
TCL: Setting parameter langevinTemp to 210
TCL: Running for 100000 steps
ETITLE: TS BOND ANGLE DIHED IMPRP ELECT VDW BOUNDARY MISC KINETIC TOTAL TEMP POTENTIAL TOTAL3 TEMPAVG PRESSURE GPRESSURE VOLUME PRESSAVG GPRESSAVG
ENERGY: 600000 0.9352 14.6645 8.4773 0.0000 -13118.3184 2129.4677 0.0000 0.0000 1084.3494 -9880.4242 184.2544 -10964.7736 -9878.3656 184.2544 239.5378 302.8001 28694.9721 239.5378 302.8001
ENERGY: 700000 0.4924 13.6481 7.7547 0.0000 -12359.6494 1791.1794 0.0000 0.0000 1224.8232 -9321.7517 208.1239 -10546.5749 -9319.2824 210.1375 -1142.1223 -1050.0860 29199.0781 3.0045 3.1432
TCL: Running 100000 steps at 240 kelvin.
TCL: Setting parameter langevinTemp to 240
TCL: Running for 100000 steps
ETITLE: TS BOND ANGLE DIHED IMPRP ELECT VDW BOUNDARY MISC KINETIC TOTAL TEMP POTENTIAL TOTAL3 TEMPAVG PRESSURE GPRESSURE VOLUME PRESSAVG GPRESSAVG
ENERGY: 700000 0.4924 13.6481 7.7547 0.0000 -12359.6494 1791.1794 0.0000 0.0000 1224.2161 -9322.3588 208.0208 -10546.5749 -9319.6172 208.0208 -1121.6475 -1050.9748 29199.0781 -1121.6475 -1050.9748
ENERGY: 800000 0.3713 13.0587 8.6799 0.0000 -11760.4254 1617.0636 0.0000 0.0000 1405.8308 -8715.4212 238.8811 -10121.2520 -8711.8906 239.1648 -998.8736 -947.8264 29456.1622 3.4777 3.4168
TCL: Running 100000 steps at 270 kelvin.
TCL: Setting parameter langevinTemp to 270
TCL: Running for 100000 steps
ETITLE: TS BOND ANGLE DIHED IMPRP ELECT VDW BOUNDARY MISC KINETIC TOTAL TEMP POTENTIAL TOTAL3 TEMPAVG PRESSURE GPRESSURE VOLUME PRESSAVG GPRESSAVG
ENERGY: 800000 0.3713 13.0587 8.6799 0.0000 -11760.4254 1617.0636 0.0000 0.0000 1405.1125 -8716.1395 238.7590 -10121.2520 -8713.5612 238.7590 -1032.6629 -945.7538 29456.1622 -1032.6629 -945.7538
ENERGY: 900000 2.5431 13.5884 9.6788 0.0000 -11390.9761 1605.5716 0.0000 0.0000 1628.2220 -8131.3722 276.6701 -9759.5942 -8130.5132 269.7180 -13.5254 45.2068 29642.7977 4.6752 4.6206
TCL: Running 1000000 steps at 300 kelvin.
TCL: Setting parameter langevinTemp to 300
TCL: Running for 1000000 steps
ETITLE: TS BOND ANGLE DIHED IMPRP ELECT VDW BOUNDARY MISC KINETIC TOTAL TEMP POTENTIAL TOTAL3 TEMPAVG PRESSURE GPRESSURE VOLUME PRESSAVG GPRESSAVG
ENERGY: 900000 2.5431 13.5884 9.6788 0.0000 -11390.9761 1605.5716 0.0000 0.0000 1627.4617 -8132.1325 276.5409 -9759.5942 -8129.7190 276.5409 -38.4963 44.1679 29642.7977 -38.4963 44.1679
ENERGY: 1100000 2.2145 11.4828 9.0113 0.0000 -10671.7022 1437.1140 0.0000 0.0000 1762.6729 -7449.2068 299.5162 -9211.8796 -7445.7029 300.2226 135.2856 217.0316 30569.7830 3.0507 3.1064
ENERGY: 1300000 0.2706 16.2351 6.7393 0.0000 -10814.0112 1495.6211 0.0000 0.0000 1747.9943 -7547.1509 297.0220 -9295.1452 -7545.5264 300.5027 308.9020 425.2893 30226.4259 2.5475 2.3669
ENERGY: 1500000 2.5188 16.8990 7.6627 0.0000 -10816.0786 1569.3116 0.0000 0.0000 1784.4222 -7435.2643 303.2119 -9219.6865 -7434.3972 300.2456 1224.9315 1319.5138 30211.5636 2.4317 2.4266
ENERGY: 1700000 0.2851 14.2234 7.4570 0.0000 -10560.0339 1346.1692 0.0000 0.0000 1771.5168 -7420.3825 301.0190 -9191.8993 -7418.0893 300.0830 -729.0397 -650.6171 30976.7470 2.5638 2.5821
ENERGY: 1900000 2.7960 15.7754 9.3533 0.0000 -10831.6228 1481.5142 0.0000 0.0000 1767.2170 -7554.9669 300.2884 -9322.1839 -7550.4629 300.5685 327.5475 360.1802 29885.8690 3.4943 3.6006
TCL: Exiting due to exit command.
