Info: SIMULATION PARAMETERS:
Info: TIMESTEP               2
Info: NUMBER OF STEPS        0
Info: STEPS PER CYCLE        10
Info: PERIODIC CELL BASIS 1  36.281 0 0
Info: PERIODIC CELL BASIS 2  0 34.26 0
Info: PERIODIC CELL BASIS 3  0 0 35.856
Info: PERIODIC CELL CENTER   0 0 0
Info: WRAPPING WATERS AROUND PERIODIC BOUNDARIES ON OUTPUT.
Info: WRAPPING ALL CLUSTERS AROUND PERIODIC BOUNDARIES ON OUTPUT.
Info: FIRST LDB TIMESTEP     50
Info: LAST LDB TIMESTEP     -1
Info: HOM BACKGROUND SCALING 1
Info: PME BACKGROUND SCALING 1
Info: MIN ATOMS PER PATCH    40
Info: EMPTY PATCH LOAD       40 ATOMS
Info: INITIAL TEMPERATURE    300
Info: CENTER OF MASS MOVING INITIALLY? NO
Info: DIELECTRIC             1
Info: EXCLUDE                SCALED ONE-FOUR
Info: 1-4 ELECTROSTATICS SCALED BY 0.833333
Info: MODIFIED 1-4 VDW PARAMETERS WILL BE USED
Info: DCD FILENAME           mobley_3589456_equil.dcd
Info: DCD FREQUENCY          100000
Info: DCD FIRST STEP         100000
Info: DCD FILE WILL CONTAIN UNIT CELL DATA
Info: XST FILENAME           mobley_3589456_equil.xst
Info: XST FREQUENCY          100000
Info: NO VELOCITY DCD OUTPUT
Info: NO FORCE DCD OUTPUT
Info: OUTPUT FILENAME        mobley_3589456_equil
Info: BINARY OUTPUT FILES WILL BE USED
Info: RESTART FILENAME       mobley_3589456_equil.restart
Info: RESTART FREQUENCY      100000
Info: BINARY RESTART FILES WILL BE USED
Info: CUTOFF                 9
Info: PAIRLIST DISTANCE      11
Info: PAIRLIST SHRINK RATE   0.01
Info: PAIRLIST GROW RATE     0.01
Info: PAIRLIST TRIGGER       0.3
Info: PAIRLISTS PER CYCLE    2
Info: PAIRLISTS ENABLED
Info: MARGIN                 8
Info: HYDROGEN GROUP CUTOFF  2.5
Info: PATCH DIMENSION        21.5
Info: ENERGY OUTPUT STEPS    100000
Info: ENERGY EVALUATION STEPS    100000
Info: OUTPUT ENERGY PRECISION 4
Info: CROSSTERM ENERGY INCLUDED IN DIHEDRAL
Info: TIMING OUTPUT STEPS    1000000
Info: PRESSURE OUTPUT STEPS  100000
Info: LANGEVIN DYNAMICS ACTIVE
Info: LANGEVIN TEMPERATURE   30
Info: LANGEVIN USING BBK INTEGRATOR
Info: LANGEVIN DAMPING COEFFICIENT IS 1 INVERSE PS
Info: LANGEVIN DYNAMICS APPLIED TO HYDROGENS
Info: LANGEVIN PISTON PRESSURE CONTROL ACTIVE
Info:        TARGET PRESSURE IS 1.01325 BAR
Info:     OSCILLATION PERIOD IS 50 FS
Info:             DECAY TIME IS 25 FS
Info:     PISTON TEMPERATURE IS 300 K
Info:       PRESSURE CONTROL IS GROUP-BASED
Info:    INITIAL STRAIN RATE IS 0 0 0
Info:       CELL FLUCTUATION IS ISOTROPIC
Info: PARTICLE MESH EWALD (PME) ACTIVE
Info: PME TOLERANCE               1e-06
Info: PME EWALD COEFFICIENT       0.348832
Info: PME INTERPOLATION ORDER     4
Info: PME GRID DIMENSIONS         40 36 36
Info: PME MAXIMUM GRID SPACING    1
Info: FULL ELECTROSTATIC EVALUATION FREQUENCY      2
Info: USING VERLET I (r-RESPA) MTS SCHEME.
Info: C1 SPLITTING OF LONG RANGE ELECTROSTATICS
Info: PLACING ATOMS IN PATCHES BY HYDROGEN GROUPS
Info: RIGID BONDS TO HYDROGEN : ALL
Info:         ERROR TOLERANCE : 1e-08
Info:          MAX ITERATIONS : 100
Info: RIGID WATER USING SETTLE ALGORITHM
Info: RANDOM NUMBER SEED     1743254014
Info: USE HYDROGEN BONDS?    NO
Info: Using AMBER format force field!
Info: AMBER PARM FILE        mobley_3589456.prmtop
Info: COORDINATE PDB         mobley_3589456.pdb
Info: Exclusions will be read from PARM file!
Info: SCNB (VDW SCALING)     2
Info: USING ARITHMETIC MEAN TO COMBINE L-J SIGMA PARAMETERS
Info: BINARY COORDINATES     mobley_3589456_min.coor
Info: SUMMARY OF PARAMETERS:
Info: 6 BONDS
Info: 8 ANGLES
Info:   8 HARMONIC
Info:   0 COSINE-BASED
Info: 9 DIHEDRAL
Info: 0 IMPROPER
Info: 0 CROSSTERM
Info: 0 VDW
Info: 21 VDW_PAIRS
Info: 0 NBTHOLE_PAIRS
Info: STRUCTURE SUMMARY:
Info: 2960 ATOMS
Info: 2959 BONDS
Info: 33 ANGLES
Info: 48 DIHEDRALS
Info: 0 IMPROPERS
Info: 0 CROSSTERMS
Info: 3019 EXCLUSIONS
Info: 2951 RIGID BONDS
Info: 5929 DEGREES OF FREEDOM
Info: 989 HYDROGEN GROUPS
Info: 4 ATOMS IN LARGEST HYDROGEN GROUP
Info: 989 MIGRATION GROUPS
Info: 4 ATOMS IN LARGEST MIGRATION GROUP
Info: TOTAL MASS = 17810.3 amu
Info: TOTAL CHARGE = -0.000200033 e
Info: MASS DENSITY = 0.663592 g/cm^3
Info: ATOM DENSITY = 0.0664146 atoms/A^3
Info: ADDED 0 IMPLICIT EXCLUSIONS
Info: NONBONDED TABLE R-SQUARED SPACING: 0.0625
Info: NONBONDED TABLE SIZE: 705 POINTS
Info: REMOVING COM VELOCITY 0.130631 0.016895 0.164506
TCL: Running for 100000 steps
ETITLE: TS BOND ANGLE DIHED IMPRP ELECT VDW BOUNDARY MISC KINETIC TOTAL TEMP POTENTIAL TOTAL3 TEMPAVG PRESSURE GPRESSURE VOLUME PRESSAVG GPRESSAVG
ENERGY: 0 0.2071 2.0874 14.6188 0.0000 -13705.5889 2413.6386 0.0000 0.0000 1858.3682 -9416.6687 315.4574 -11275.0369 -9416.2665 315.4574 485.0265 518.6790 44568.5440 485.0265 518.6790
ENERGY: 100000 0.4498 2.7989 14.5524 0.0000 -14263.9905 2449.4162 0.0000 0.0000 175.9712 -11620.8019 29.8711 -11796.7731 -11620.3168 30.9984 14.5898 67.1967 28040.1505 5.3335 5.3536
TCL: Running 100000 steps at 60 kelvin.
TCL: Setting parameter langevinTemp to 60
TCL: Running for 100000 steps
ETITLE: TS BOND ANGLE DIHED IMPRP ELECT VDW BOUNDARY MISC KINETIC TOTAL TEMP POTENTIAL TOTAL3 TEMPAVG PRESSURE GPRESSURE VOLUME PRESSAVG GPRESSAVG
ENERGY: 100000 0.4498 2.7989 14.5524 0.0000 -14263.9905 2449.4162 0.0000 0.0000 175.8812 -11620.8919 29.8558 -11796.7731 -11620.4444 29.8558 14.9543 67.1909 28040.1505 14.9543 67.1909
ENERGY: 200000 0.4794 3.8543 14.7503 0.0000 -14115.8417 2410.3288 0.0000 0.0000 351.8320 -11334.5968 59.7234 -11686.4288 -11333.4323 59.8989 -42.6330 56.2658 28349.3571 5.0387 5.0646
TCL: Running 100000 steps at 90 kelvin.
TCL: Setting parameter langevinTemp to 90
TCL: Running for 100000 steps
ETITLE: TS BOND ANGLE DIHED IMPRP ELECT VDW BOUNDARY MISC KINETIC TOTAL TEMP POTENTIAL TOTAL3 TEMPAVG PRESSURE GPRESSURE VOLUME PRESSAVG GPRESSAVG
ENERGY: 200000 0.4794 3.8543 14.7503 0.0000 -14115.8417 2410.3288 0.0000 0.0000 351.6617 -11334.7671 59.6945 -11686.4288 -11333.9339 59.6945 -24.7970 56.0689 28349.3571 -24.7970 56.0689
ENERGY: 300000 1.9382 6.0062 14.5846 0.0000 -13971.0585 2327.4533 0.0000 0.0000 544.1281 -11076.9482 92.3656 -11621.0763 -11075.4554 89.9518 -735.3796 -661.4441 28875.9982 4.2188 4.1920
TCL: Running 100000 steps at 120 kelvin.
TCL: Setting parameter langevinTemp to 120
TCL: Running for 100000 steps
ETITLE: TS BOND ANGLE DIHED IMPRP ELECT VDW BOUNDARY MISC KINETIC TOTAL TEMP POTENTIAL TOTAL3 TEMPAVG PRESSURE GPRESSURE VOLUME PRESSAVG GPRESSAVG
ENERGY: 300000 1.9382 6.0062 14.5846 0.0000 -13971.0585 2327.4533 0.0000 0.0000 543.8685 -11077.2078 92.3215 -11621.0763 -11076.0061 92.3215 -727.4316 -660.9343 28875.9982 -727.4316 -660.9343
ENERGY: 400000 0.9811 5.0987 14.6758 0.0000 -13863.5352 2360.9860 0.0000 0.0000 676.1698 -10805.6237 114.7796 -11481.7935 -10803.4458 120.0472 281.6801 327.2906 28651.6404 2.9004 2.8108
TCL: Running 100000 steps at 150 kelvin.
TCL: Setting parameter langevinTemp to 150
TCL: Running for 100000 steps
ETITLE: TS BOND ANGLE DIHED IMPRP ELECT VDW BOUNDARY MISC KINETIC TOTAL TEMP POTENTIAL TOTAL3 TEMPAVG PRESSURE GPRESSURE VOLUME PRESSAVG GPRESSAVG
ENERGY: 400000 0.9811 5.0987 14.6758 0.0000 -13863.5352 2360.9860 0.0000 0.0000 675.8178 -10805.9757 114.7199 -11481.7935 -10804.5069 114.7199 287.9257 328.0517 28651.6404 287.9257 328.0517
ENERGY: 500000 1.3652 7.2470 14.4353 0.0000 -13555.5431 2258.5822 0.0000 0.0000 853.5408 -10420.3726 144.8883 -11273.9134 -10418.9478 150.2034 219.6692 250.4768 28740.8045 4.5372 4.4730
TCL: Running 100000 steps at 180 kelvin.
TCL: Setting parameter langevinTemp to 180
TCL: Running for 100000 steps
ETITLE: TS BOND ANGLE DIHED IMPRP ELECT VDW BOUNDARY MISC KINETIC TOTAL TEMP POTENTIAL TOTAL3 TEMPAVG PRESSURE GPRESSURE VOLUME PRESSAVG GPRESSAVG
ENERGY: 500000 1.3652 7.2470 14.4353 0.0000 -13555.5431 2258.5822 0.0000 0.0000 853.1045 -10420.8089 144.8142 -11273.9134 -10419.5210 144.8142 191.1377 249.2504 28740.8045 191.1377 249.2504
ENERGY: 600000 2.8832 6.8275 15.3127 0.0000 -13139.4340 2080.0834 0.0000 0.0000 1049.9253 -9984.4019 178.2245 -11034.3272 -9980.2643 180.0298 -287.7789 -274.1607 28704.0029 2.5067 2.4037
TCL: Running 100000 steps at 210 kelvin.
TCL: Setting parameter langevinTemp to 210
TCL: Running for 100000 steps
ETITLE: TS BOND ANGLE DIHED IMPRP ELECT VDW BOUNDARY MISC KINETIC TOTAL TEMP POTENTIAL TOTAL3 TEMPAVG PRESSURE GPRESSURE VOLUME PRESSAVG GPRESSAVG
ENERGY: 600000 2.8832 6.8275 15.3127 0.0000 -13139.4340 2080.0834 0.0000 0.0000 1049.4115 -9984.9157 178.1373 -11034.3272 -9982.7970 178.1373 -336.7188 -273.0038 28704.0029 -336.7188 -273.0038
ENERGY: 700000 2.1353 8.7971 14.8048 0.0000 -12455.7300 1885.1842 0.0000 0.0000 1269.5565 -9275.2521 215.5068 -10544.8086 -9272.8826 209.6663 145.4108 283.3326 28537.1191 4.4357 4.4859
TCL: Running 100000 steps at 240 kelvin.
TCL: Setting parameter langevinTemp to 240
TCL: Running for 100000 steps
ETITLE: TS BOND ANGLE DIHED IMPRP ELECT VDW BOUNDARY MISC KINETIC TOTAL TEMP POTENTIAL TOTAL3 TEMPAVG PRESSURE GPRESSURE VOLUME PRESSAVG GPRESSAVG
ENERGY: 700000 2.1353 8.7971 14.8048 0.0000 -12455.7300 1885.1842 0.0000 0.0000 1268.9287 -9275.8799 215.4002 -10544.8086 -9273.1050 215.4002 198.5793 281.8889 28537.1191 198.5793 281.8889
ENERGY: 800000 1.9181 6.8085 15.6748 0.0000 -11708.5396 1633.2992 0.0000 0.0000 1408.8624 -8641.9766 239.1539 -10050.8390 -8636.9184 240.1444 -585.9020 -486.2342 29122.9001 2.8407 2.6078
TCL: Running 100000 steps at 270 kelvin.
TCL: Setting parameter langevinTemp to 270
TCL: Running for 100000 steps
ETITLE: TS BOND ANGLE DIHED IMPRP ELECT VDW BOUNDARY MISC KINETIC TOTAL TEMP POTENTIAL TOTAL3 TEMPAVG PRESSURE GPRESSURE VOLUME PRESSAVG GPRESSAVG
ENERGY: 800000 1.9181 6.8085 15.6748 0.0000 -11708.5396 1633.2992 0.0000 0.0000 1408.1633 -8642.6756 239.0353 -10050.8390 -8640.1345 239.0353 -574.0715 -484.4799 29122.9001 -574.0715 -484.4799
ENERGY: 900000 3.7126 4.6442 15.4436 0.0000 -11234.8619 1577.5476 0.0000 0.0000 1612.6183 -8020.8956 273.7414 -9633.5139 -8017.0233 270.4788 191.2785 292.1780 29435.1437 3.2598 3.2248
TCL: Running 1000000 steps at 300 kelvin.
TCL: Setting parameter langevinTemp to 300
TCL: Running for 1000000 steps
ETITLE: TS BOND ANGLE DIHED IMPRP ELECT VDW BOUNDARY MISC KINETIC TOTAL TEMP POTENTIAL TOTAL3 TEMPAVG PRESSURE GPRESSURE VOLUME PRESSAVG GPRESSAVG
ENERGY: 900000 3.7126 4.6442 15.4436 0.0000 -11234.8619 1577.5476 0.0000 0.0000 1611.8614 -8021.6525 273.6129 -9633.5139 -8019.5527 273.6129 204.0570 294.1322 29435.1437 204.0570 294.1322
ENERGY: 1100000 2.8636 10.1929 14.7648 0.0000 -10681.8752 1387.7700 0.0000 0.0000 1762.1067 -7504.1772 299.1170 -9266.2839 -7500.1725 299.8067 -443.2693 -251.5009 30180.0908 3.7155 3.4738
ENERGY: 1300000 1.9260 7.6809 15.3264 0.0000 -10705.1301 1443.9804 0.0000 0.0000 1788.5126 -7447.7039 303.5994 -9236.2164 -7445.3760 300.1386 22.5002 73.2347 30714.5936 2.4551 2.4201
ENERGY: 1500000 2.6697 8.3949 14.8785 0.0000 -10811.9500 1429.4785 0.0000 0.0000 1760.2978 -7596.2305 298.8100 -9356.5284 -7591.6388 300.9579 -257.5583 -225.2698 30268.8220 4.2439 4.1042
ENERGY: 1700000 2.6200 9.2975 14.7640 0.0000 -10760.5258 1468.0284 0.0000 0.0000 1756.0486 -7509.7673 298.0887 -9265.8159 -7506.2767 300.2800 -51.1381 69.0269 30797.6837 4.8594 4.9087
ENERGY: 1900000 3.0977 8.3167 16.0324 0.0000 -10842.5819 1456.3626 0.0000 0.0000 1760.4727 -7598.2998 298.8397 -9358.7725 -7592.5946 299.9673 -154.1941 -98.4686 30661.7626 1.8932 1.8464
TCL: Exiting due to exit command.
