Info: SIMULATION PARAMETERS:
Info: TIMESTEP               2
Info: NUMBER OF STEPS        0
Info: STEPS PER CYCLE        10
Info: PERIODIC CELL BASIS 1  34.986 0 0
Info: PERIODIC CELL BASIS 2  0 35.779 0
Info: PERIODIC CELL BASIS 3  0 0 35.644
Info: PERIODIC CELL CENTER   0 0 0
Info: WRAPPING WATERS AROUND PERIODIC BOUNDARIES ON OUTPUT.
Info: WRAPPING ALL CLUSTERS AROUND PERIODIC BOUNDARIES ON OUTPUT.
Info: FIRST LDB TIMESTEP     50
Info: LAST LDB TIMESTEP     -1
Info: HOM BACKGROUND SCALING 1
Info: PME BACKGROUND SCALING 1
Info: MIN ATOMS PER PATCH    40
Info: EMPTY PATCH LOAD       40 ATOMS
Info: INITIAL TEMPERATURE    300
Info: CENTER OF MASS MOVING INITIALLY? NO
Info: DIELECTRIC             1
Info: EXCLUDE                SCALED ONE-FOUR
Info: 1-4 ELECTROSTATICS SCALED BY 0.833333
Info: MODIFIED 1-4 VDW PARAMETERS WILL BE USED
Info: DCD FILENAME           mobley_9733743_equil.dcd
Info: DCD FREQUENCY          100000
Info: DCD FIRST STEP         100000
Info: DCD FILE WILL CONTAIN UNIT CELL DATA
Info: XST FILENAME           mobley_9733743_equil.xst
Info: XST FREQUENCY          100000
Info: NO VELOCITY DCD OUTPUT
Info: NO FORCE DCD OUTPUT
Info: OUTPUT FILENAME        mobley_9733743_equil
Info: BINARY OUTPUT FILES WILL BE USED
Info: RESTART FILENAME       mobley_9733743_equil.restart
Info: RESTART FREQUENCY      100000
Info: BINARY RESTART FILES WILL BE USED
Info: CUTOFF                 9
Info: PAIRLIST DISTANCE      11
Info: PAIRLIST SHRINK RATE   0.01
Info: PAIRLIST GROW RATE     0.01
Info: PAIRLIST TRIGGER       0.3
Info: PAIRLISTS PER CYCLE    2
Info: PAIRLISTS ENABLED
Info: MARGIN                 8
Info: HYDROGEN GROUP CUTOFF  2.5
Info: PATCH DIMENSION        21.5
Info: ENERGY OUTPUT STEPS    100000
Info: ENERGY EVALUATION STEPS    100000
Info: OUTPUT ENERGY PRECISION 4
Info: CROSSTERM ENERGY INCLUDED IN DIHEDRAL
Info: TIMING OUTPUT STEPS    1000000
Info: PRESSURE OUTPUT STEPS  100000
Info: LANGEVIN DYNAMICS ACTIVE
Info: LANGEVIN TEMPERATURE   30
Info: LANGEVIN USING BBK INTEGRATOR
Info: LANGEVIN DAMPING COEFFICIENT IS 1 INVERSE PS
Info: LANGEVIN DYNAMICS APPLIED TO HYDROGENS
Info: LANGEVIN PISTON PRESSURE CONTROL ACTIVE
Info:        TARGET PRESSURE IS 1.01325 BAR
Info:     OSCILLATION PERIOD IS 50 FS
Info:             DECAY TIME IS 25 FS
Info:     PISTON TEMPERATURE IS 300 K
Info:       PRESSURE CONTROL IS GROUP-BASED
Info:    INITIAL STRAIN RATE IS 0 0 0
Info:       CELL FLUCTUATION IS ISOTROPIC
Info: PARTICLE MESH EWALD (PME) ACTIVE
Info: PME TOLERANCE               1e-06
Info: PME EWALD COEFFICIENT       0.348832
Info: PME INTERPOLATION ORDER     4
Info: PME GRID DIMENSIONS         36 36 36
Info: PME MAXIMUM GRID SPACING    1
Info: FULL ELECTROSTATIC EVALUATION FREQUENCY      2
Info: USING VERLET I (r-RESPA) MTS SCHEME.
Info: C1 SPLITTING OF LONG RANGE ELECTROSTATICS
Info: PLACING ATOMS IN PATCHES BY HYDROGEN GROUPS
Info: RIGID BONDS TO HYDROGEN : ALL
Info:         ERROR TOLERANCE : 1e-08
Info:          MAX ITERATIONS : 100
Info: RIGID WATER USING SETTLE ALGORITHM
Info: RANDOM NUMBER SEED     1743240989
Info: USE HYDROGEN BONDS?    NO
Info: Using AMBER format force field!
Info: AMBER PARM FILE        mobley_9733743.prmtop
Info: COORDINATE PDB         mobley_9733743.pdb
Info: Exclusions will be read from PARM file!
Info: SCNB (VDW SCALING)     2
Info: USING ARITHMETIC MEAN TO COMBINE L-J SIGMA PARAMETERS
Info: BINARY COORDINATES     mobley_9733743_min.coor
Info: SUMMARY OF PARAMETERS:
Info: 7 BONDS
Info: 9 ANGLES
Info: 7 DIHEDRAL
Info: 0 IMPROPER
Info: 0 CROSSTERM
Info: 0 VDW
Info: 28 VDW_PAIRS
Info: 0 NBTHOLE_PAIRS
Info: STRUCTURE SUMMARY:
Info: 2929 ATOMS
Info: 2928 BONDS
Info: 27 ANGLES
Info: 35 DIHEDRALS
Info: 0 IMPROPERS
Info: 0 CROSSTERMS
Info: 2988 EXCLUSIONS
Info: 2924 RIGID BONDS
Info: 5863 DEGREES OF FREEDOM
Info: 976 HYDROGEN GROUPS
Info: 4 ATOMS IN LARGEST HYDROGEN GROUP
Info: 976 MIGRATION GROUPS
Info: 4 ATOMS IN LARGEST MIGRATION GROUP
Info: TOTAL MASS = 17566.7 amu
Info: TOTAL CHARGE = -0.000200044 e
Info: MASS DENSITY = 0.653792 g/cm^3
Info: ATOM DENSITY = 0.0656463 atoms/A^3
Info: ADDED 0 IMPLICIT EXCLUSIONS
Info: NONBONDED TABLE R-SQUARED SPACING: 0.0625
Info: NONBONDED TABLE SIZE: 705 POINTS
Info: REMOVING COM VELOCITY 0.00434024 0.00751427 -0.110838
TCL: Running for 100000 steps
ETITLE: TS BOND ANGLE DIHED IMPRP ELECT VDW BOUNDARY MISC KINETIC TOTAL TEMP POTENTIAL TOTAL3 TEMPAVG PRESSURE GPRESSURE VOLUME PRESSAVG GPRESSAVG
ENERGY: 0 0.0333 0.1799 0.5805 0.0000 -13621.1521 2451.2172 0.0000 0.0000 1789.4446 -9379.6967 307.1770 -11169.1412 -9379.3576 307.1770 729.0382 762.0430 44617.8794 729.0382 762.0430
ENERGY: 100000 0.0889 0.6918 0.5981 0.0000 -14083.6016 2431.4490 0.0000 0.0000 176.5844 -11474.1895 30.3126 -11650.7739 -11473.7898 30.9182 -229.8257 -164.9025 28510.6116 4.5166 4.5553
TCL: Running 100000 steps at 60 kelvin.
TCL: Setting parameter langevinTemp to 60
TCL: Running for 100000 steps
ETITLE: TS BOND ANGLE DIHED IMPRP ELECT VDW BOUNDARY MISC KINETIC TOTAL TEMP POTENTIAL TOTAL3 TEMPAVG PRESSURE GPRESSURE VOLUME PRESSAVG GPRESSAVG
ENERGY: 100000 0.0889 0.6918 0.5981 0.0000 -14083.6016 2431.4490 0.0000 0.0000 176.4978 -11474.2761 30.2977 -11650.7739 -11473.9889 30.2977 -212.1623 -164.8340 28510.6116 -212.1623 -164.8340
ENERGY: 200000 0.6615 2.0332 1.4032 0.0000 -13966.8073 2386.7496 0.0000 0.0000 360.4161 -11215.5437 61.8692 -11575.9598 -11214.5622 59.9834 -290.0679 -248.6545 28460.1597 3.3774 3.4304
TCL: Running 100000 steps at 90 kelvin.
TCL: Setting parameter langevinTemp to 90
TCL: Running for 100000 steps
ETITLE: TS BOND ANGLE DIHED IMPRP ELECT VDW BOUNDARY MISC KINETIC TOTAL TEMP POTENTIAL TOTAL3 TEMPAVG PRESSURE GPRESSURE VOLUME PRESSAVG GPRESSAVG
ENERGY: 200000 0.6615 2.0332 1.4032 0.0000 -13966.8073 2386.7496 0.0000 0.0000 360.2512 -11215.7086 61.8409 -11575.9598 -11214.8081 61.8409 -296.5239 -248.4174 28460.1597 -296.5239 -248.4174
ENERGY: 300000 1.3416 1.9470 0.9384 0.0000 -13826.5099 2329.8556 0.0000 0.0000 526.7995 -10965.6277 90.4307 -11492.4272 -10964.3775 90.1644 -487.1413 -467.5184 28788.3360 6.1499 6.0536
TCL: Running 100000 steps at 120 kelvin.
TCL: Setting parameter langevinTemp to 120
TCL: Running for 100000 steps
ETITLE: TS BOND ANGLE DIHED IMPRP ELECT VDW BOUNDARY MISC KINETIC TOTAL TEMP POTENTIAL TOTAL3 TEMPAVG PRESSURE GPRESSURE VOLUME PRESSAVG GPRESSAVG
ENERGY: 300000 1.3416 1.9470 0.9384 0.0000 -13826.5099 2329.8556 0.0000 0.0000 526.5463 -10965.8809 90.3872 -11492.4272 -10964.7453 90.3872 -522.1769 -467.2489 28788.3360 -522.1769 -467.2489
ENERGY: 400000 0.4608 4.0009 0.9093 0.0000 -13563.2909 2211.4114 0.0000 0.0000 707.2219 -10639.2867 121.4021 -11346.5086 -10637.5571 120.0713 -865.2699 -844.5532 28879.0973 4.2349 4.3203
TCL: Running 100000 steps at 150 kelvin.
TCL: Setting parameter langevinTemp to 150
TCL: Running for 100000 steps
ETITLE: TS BOND ANGLE DIHED IMPRP ELECT VDW BOUNDARY MISC KINETIC TOTAL TEMP POTENTIAL TOTAL3 TEMPAVG PRESSURE GPRESSURE VOLUME PRESSAVG GPRESSAVG
ENERGY: 400000 0.4608 4.0009 0.9093 0.0000 -13563.2909 2211.4114 0.0000 0.0000 706.8758 -10639.6328 121.3427 -11346.5086 -10637.9238 121.3427 -881.7845 -844.9850 28879.0973 -881.7845 -844.9850
ENERGY: 500000 0.3138 7.5451 0.7794 0.0000 -13439.8275 2245.4323 0.0000 0.0000 898.7318 -10287.0252 154.2768 -11185.7570 -10284.3564 149.8878 -110.5764 -67.8316 28818.7877 4.4205 4.3868
TCL: Running 100000 steps at 180 kelvin.
TCL: Setting parameter langevinTemp to 180
TCL: Running for 100000 steps
ETITLE: TS BOND ANGLE DIHED IMPRP ELECT VDW BOUNDARY MISC KINETIC TOTAL TEMP POTENTIAL TOTAL3 TEMPAVG PRESSURE GPRESSURE VOLUME PRESSAVG GPRESSAVG
ENERGY: 500000 0.3138 7.5451 0.7794 0.0000 -13439.8275 2245.4323 0.0000 0.0000 898.2991 -10287.4580 154.2025 -11185.7570 -10286.0546 154.2025 -127.5101 -67.3083 28818.7877 -127.5101 -67.3083
ENERGY: 600000 0.4253 3.8517 1.5721 0.0000 -13235.4667 2337.2791 0.0000 0.0000 1055.8947 -9836.4440 181.2555 -10892.3386 -9835.1362 180.0208 2114.0658 2177.1003 28172.8038 3.1028 3.0976
TCL: Running 100000 steps at 210 kelvin.
TCL: Setting parameter langevinTemp to 210
TCL: Running for 100000 steps
ETITLE: TS BOND ANGLE DIHED IMPRP ELECT VDW BOUNDARY MISC KINETIC TOTAL TEMP POTENTIAL TOTAL3 TEMPAVG PRESSURE GPRESSURE VOLUME PRESSAVG GPRESSAVG
ENERGY: 600000 0.4253 3.8517 1.5721 0.0000 -13235.4667 2337.2791 0.0000 0.0000 1055.3838 -9836.9548 181.1678 -10892.3386 -9835.1102 181.1678 2105.1400 2176.2760 28172.8038 2105.1400 2176.2760
ENERGY: 700000 0.4632 3.7159 1.0758 0.0000 -12406.1341 1904.7528 0.0000 0.0000 1235.7521 -9260.3743 212.1299 -10496.1264 -9257.0789 209.4109 -88.2133 -50.9540 28503.2591 3.3789 3.3305
TCL: Running 100000 steps at 240 kelvin.
TCL: Setting parameter langevinTemp to 240
TCL: Running for 100000 steps
ETITLE: TS BOND ANGLE DIHED IMPRP ELECT VDW BOUNDARY MISC KINETIC TOTAL TEMP POTENTIAL TOTAL3 TEMPAVG PRESSURE GPRESSURE VOLUME PRESSAVG GPRESSAVG
ENERGY: 700000 0.4632 3.7159 1.0758 0.0000 -12406.1341 1904.7528 0.0000 0.0000 1235.1378 -9260.9886 212.0244 -10496.1264 -9258.8030 212.0244 -123.8331 -50.7619 28503.2591 -123.8331 -50.7619
ENERGY: 800000 0.5590 5.0269 1.1162 0.0000 -11615.0582 1627.3219 0.0000 0.0000 1410.6537 -8570.3806 242.1536 -9981.0343 -8566.3071 239.9454 -548.2461 -512.9438 28989.9220 3.5822 3.5826
TCL: Running 100000 steps at 270 kelvin.
TCL: Setting parameter langevinTemp to 270
TCL: Running for 100000 steps
ETITLE: TS BOND ANGLE DIHED IMPRP ELECT VDW BOUNDARY MISC KINETIC TOTAL TEMP POTENTIAL TOTAL3 TEMPAVG PRESSURE GPRESSURE VOLUME PRESSAVG GPRESSAVG
ENERGY: 800000 0.5590 5.0269 1.1162 0.0000 -11615.0582 1627.3219 0.0000 0.0000 1409.9437 -8571.0906 242.0317 -9981.0343 -8568.2308 242.0317 -579.0039 -513.3423 28989.9220 -579.0039 -513.3423
ENERGY: 900000 1.8922 8.0602 1.3593 0.0000 -11412.5125 1667.1622 0.0000 0.0000 1599.7262 -8134.3125 274.6099 -9734.0387 -8132.1462 269.7202 258.4280 360.6540 29490.6625 4.1821 4.1107
TCL: Running 1000000 steps at 300 kelvin.
TCL: Setting parameter langevinTemp to 300
TCL: Running for 1000000 steps
ETITLE: TS BOND ANGLE DIHED IMPRP ELECT VDW BOUNDARY MISC KINETIC TOTAL TEMP POTENTIAL TOTAL3 TEMPAVG PRESSURE GPRESSURE VOLUME PRESSAVG GPRESSAVG
ENERGY: 900000 1.8922 8.0602 1.3593 0.0000 -11412.5125 1667.1622 0.0000 0.0000 1598.9344 -8135.1042 274.4740 -9734.0387 -8132.5622 274.4740 266.6032 360.0686 29490.6625 266.6032 360.0686
ENERGY: 1100000 1.3320 7.3194 2.1905 0.0000 -10673.9657 1511.0169 0.0000 0.0000 1782.1100 -7369.9969 305.9180 -9152.1069 -7365.9874 300.4494 723.2072 855.5869 30202.3283 2.6134 2.7286
ENERGY: 1300000 1.0898 7.2733 1.2722 0.0000 -10588.0841 1393.7956 0.0000 0.0000 1747.2873 -7437.3659 299.9403 -9184.6532 -7433.3485 299.7155 -333.7666 -246.6185 30260.5241 2.3625 2.3020
ENERGY: 1500000 0.4485 7.6639 1.4448 0.0000 -10579.6799 1418.7838 0.0000 0.0000 1758.8377 -7392.5012 301.9230 -9151.3389 -7388.3287 299.9553 152.0587 193.9874 30115.7509 2.0842 2.1079
ENERGY: 1700000 1.0347 12.1548 2.4600 0.0000 -10624.2489 1474.1728 0.0000 0.0000 1732.8798 -7401.5468 297.4671 -9134.4266 -7398.6455 299.7364 564.5286 657.4864 30123.0477 2.8960 2.9940
ENERGY: 1900000 0.2077 6.4473 2.5325 0.0000 -10591.0860 1456.4461 0.0000 0.0000 1742.7395 -7382.7128 299.1596 -9125.4524 -7381.5358 300.3507 336.8902 430.4916 30517.9023 2.9629 3.0766
TCL: Exiting due to exit command.
