Info: SIMULATION PARAMETERS:
Info: TIMESTEP               2
Info: NUMBER OF STEPS        0
Info: STEPS PER CYCLE        10
Info: PERIODIC CELL BASIS 1  35.01 0 0
Info: PERIODIC CELL BASIS 2  0 35.779 0
Info: PERIODIC CELL BASIS 3  0 0 35.644
Info: PERIODIC CELL CENTER   0 0 0
Info: WRAPPING WATERS AROUND PERIODIC BOUNDARIES ON OUTPUT.
Info: WRAPPING ALL CLUSTERS AROUND PERIODIC BOUNDARIES ON OUTPUT.
Info: FIRST LDB TIMESTEP     50
Info: LAST LDB TIMESTEP     -1
Info: HOM BACKGROUND SCALING 1
Info: PME BACKGROUND SCALING 1
Info: MIN ATOMS PER PATCH    40
Info: EMPTY PATCH LOAD       40 ATOMS
Info: INITIAL TEMPERATURE    300
Info: CENTER OF MASS MOVING INITIALLY? NO
Info: DIELECTRIC             1
Info: EXCLUDE                SCALED ONE-FOUR
Info: 1-4 ELECTROSTATICS SCALED BY 0.833333
Info: MODIFIED 1-4 VDW PARAMETERS WILL BE USED
Info: DCD FILENAME           mobley_1923244_equil.dcd
Info: DCD FREQUENCY          100000
Info: DCD FIRST STEP         100000
Info: DCD FILE WILL CONTAIN UNIT CELL DATA
Info: XST FILENAME           mobley_1923244_equil.xst
Info: XST FREQUENCY          100000
Info: NO VELOCITY DCD OUTPUT
Info: NO FORCE DCD OUTPUT
Info: OUTPUT FILENAME        mobley_1923244_equil
Info: BINARY OUTPUT FILES WILL BE USED
Info: RESTART FILENAME       mobley_1923244_equil.restart
Info: RESTART FREQUENCY      100000
Info: BINARY RESTART FILES WILL BE USED
Info: CUTOFF                 9
Info: PAIRLIST DISTANCE      11
Info: PAIRLIST SHRINK RATE   0.01
Info: PAIRLIST GROW RATE     0.01
Info: PAIRLIST TRIGGER       0.3
Info: PAIRLISTS PER CYCLE    2
Info: PAIRLISTS ENABLED
Info: MARGIN                 8
Info: HYDROGEN GROUP CUTOFF  2.5
Info: PATCH DIMENSION        21.5
Info: ENERGY OUTPUT STEPS    100000
Info: ENERGY EVALUATION STEPS    100000
Info: OUTPUT ENERGY PRECISION 4
Info: CROSSTERM ENERGY INCLUDED IN DIHEDRAL
Info: TIMING OUTPUT STEPS    1000000
Info: PRESSURE OUTPUT STEPS  100000
Info: LANGEVIN DYNAMICS ACTIVE
Info: LANGEVIN TEMPERATURE   30
Info: LANGEVIN USING BBK INTEGRATOR
Info: LANGEVIN DAMPING COEFFICIENT IS 1 INVERSE PS
Info: LANGEVIN DYNAMICS APPLIED TO HYDROGENS
Info: LANGEVIN PISTON PRESSURE CONTROL ACTIVE
Info:        TARGET PRESSURE IS 1.01325 BAR
Info:     OSCILLATION PERIOD IS 50 FS
Info:             DECAY TIME IS 25 FS
Info:     PISTON TEMPERATURE IS 300 K
Info:       PRESSURE CONTROL IS GROUP-BASED
Info:    INITIAL STRAIN RATE IS 0 0 0
Info:       CELL FLUCTUATION IS ISOTROPIC
Info: PARTICLE MESH EWALD (PME) ACTIVE
Info: PME TOLERANCE               1e-06
Info: PME EWALD COEFFICIENT       0.348832
Info: PME INTERPOLATION ORDER     4
Info: PME GRID DIMENSIONS         36 36 36
Info: PME MAXIMUM GRID SPACING    1
Info: FULL ELECTROSTATIC EVALUATION FREQUENCY      2
Info: USING VERLET I (r-RESPA) MTS SCHEME.
Info: C1 SPLITTING OF LONG RANGE ELECTROSTATICS
Info: PLACING ATOMS IN PATCHES BY HYDROGEN GROUPS
Info: RIGID BONDS TO HYDROGEN : ALL
Info:         ERROR TOLERANCE : 1e-08
Info:          MAX ITERATIONS : 100
Info: RIGID WATER USING SETTLE ALGORITHM
Info: RANDOM NUMBER SEED     1743227407
Info: USE HYDROGEN BONDS?    NO
Info: Using AMBER format force field!
Info: AMBER PARM FILE        mobley_1923244.prmtop
Info: COORDINATE PDB         mobley_1923244.pdb
Info: Exclusions will be read from PARM file!
Info: SCNB (VDW SCALING)     2
Info: USING ARITHMETIC MEAN TO COMBINE L-J SIGMA PARAMETERS
Info: BINARY COORDINATES     mobley_1923244_min.coor
Info: SUMMARY OF PARAMETERS:
Info: 4 BONDS
Info: 3 ANGLES
Info:   3 HARMONIC
Info:   0 COSINE-BASED
Info: 5 DIHEDRAL
Info: 0 IMPROPER
Info: 0 CROSSTERM
Info: 0 VDW
Info: 10 VDW_PAIRS
Info: 0 NBTHOLE_PAIRS
Info: STRUCTURE SUMMARY:
Info: 2981 ATOMS
Info: 2980 BONDS
Info: 24 ANGLES
Info: 29 DIHEDRALS
Info: 0 IMPROPERS
Info: 0 CROSSTERMS
Info: 3031 EXCLUSIONS
Info: 2977 RIGID BONDS
Info: 5966 DEGREES OF FREEDOM
Info: 993 HYDROGEN GROUPS
Info: 4 ATOMS IN LARGEST HYDROGEN GROUP
Info: 993 MIGRATION GROUPS
Info: 4 ATOMS IN LARGEST MIGRATION GROUP
Info: TOTAL MASS = 17875.9 amu
Info: TOTAL CHARGE = 0.000200011 e
Info: MASS DENSITY = 0.664847 g/cm^3
Info: ATOM DENSITY = 0.066766 atoms/A^3
Info: ADDED 0 IMPLICIT EXCLUSIONS
Info: NONBONDED TABLE R-SQUARED SPACING: 0.0625
Info: NONBONDED TABLE SIZE: 705 POINTS
Info: REMOVING COM VELOCITY -0.0139713 0.257273 -0.246493
TCL: Running for 100000 steps
ETITLE: TS BOND ANGLE DIHED IMPRP ELECT VDW BOUNDARY MISC KINETIC TOTAL TEMP POTENTIAL TOTAL3 TEMPAVG PRESSURE GPRESSURE VOLUME PRESSAVG GPRESSAVG
ENERGY: 0 0.0319 0.1500 0.4124 0.0000 -13780.4358 2442.3001 0.0000 0.0000 1758.0355 -9579.5059 296.5752 -11337.5414 -9579.1832 296.5752 570.7200 604.7256 44648.4867 570.7200 604.7256
ENERGY: 100000 0.1134 1.1861 0.4662 0.0000 -14451.9063 2550.5591 0.0000 0.0000 177.8975 -11721.6841 30.0108 -11899.5816 -11721.2946 31.0015 560.0592 602.4027 28319.3688 4.5158 4.5316
TCL: Running 100000 steps at 60 kelvin.
TCL: Setting parameter langevinTemp to 60
TCL: Running for 100000 steps
ETITLE: TS BOND ANGLE DIHED IMPRP ELECT VDW BOUNDARY MISC KINETIC TOTAL TEMP POTENTIAL TOTAL3 TEMPAVG PRESSURE GPRESSURE VOLUME PRESSAVG GPRESSAVG
ENERGY: 100000 0.1134 1.1861 0.4662 0.0000 -14451.9063 2550.5591 0.0000 0.0000 177.8082 -11721.7734 29.9957 -11899.5816 -11721.3474 29.9957 560.5388 602.4172 28319.3688 560.5388 602.4172
ENERGY: 200000 0.2251 1.8624 0.7868 0.0000 -14332.1403 2473.8868 0.0000 0.0000 362.8983 -11492.4810 61.2198 -11855.3793 -11491.1916 59.9390 -115.3165 -60.2288 28659.4838 3.8901 3.9137
TCL: Running 100000 steps at 90 kelvin.
TCL: Setting parameter langevinTemp to 90
TCL: Running for 100000 steps
ETITLE: TS BOND ANGLE DIHED IMPRP ELECT VDW BOUNDARY MISC KINETIC TOTAL TEMP POTENTIAL TOTAL3 TEMPAVG PRESSURE GPRESSURE VOLUME PRESSAVG GPRESSAVG
ENERGY: 200000 0.2251 1.8624 0.7868 0.0000 -14332.1403 2473.8868 0.0000 0.0000 362.7239 -11492.6554 61.1904 -11855.3793 -11491.7352 61.1904 -109.3186 -60.0702 28659.4838 -109.3186 -60.0702
ENERGY: 300000 0.1720 2.3071 0.6647 0.0000 -14242.4323 2512.0601 0.0000 0.0000 535.0716 -11192.1567 90.2649 -11727.2284 -11190.3376 89.8970 713.1777 781.0812 28626.3887 4.4335 4.3747
TCL: Running 100000 steps at 120 kelvin.
TCL: Setting parameter langevinTemp to 120
TCL: Running for 100000 steps
ETITLE: TS BOND ANGLE DIHED IMPRP ELECT VDW BOUNDARY MISC KINETIC TOTAL TEMP POTENTIAL TOTAL3 TEMPAVG PRESSURE GPRESSURE VOLUME PRESSAVG GPRESSAVG
ENERGY: 300000 0.1720 2.3071 0.6647 0.0000 -14242.4323 2512.0601 0.0000 0.0000 534.8049 -11192.4235 90.2199 -11727.2284 -11191.2217 90.2199 719.8703 780.8913 28626.3887 719.8703 780.8913
ENERGY: 400000 0.4073 2.8862 0.4606 0.0000 -14013.3310 2417.8835 0.0000 0.0000 692.9697 -10898.7235 116.9019 -11591.6933 -10897.1023 119.7833 640.2920 694.6221 28553.5402 4.5811 4.5997
TCL: Running 100000 steps at 150 kelvin.
TCL: Setting parameter langevinTemp to 150
TCL: Running for 100000 steps
ETITLE: TS BOND ANGLE DIHED IMPRP ELECT VDW BOUNDARY MISC KINETIC TOTAL TEMP POTENTIAL TOTAL3 TEMPAVG PRESSURE GPRESSURE VOLUME PRESSAVG GPRESSAVG
ENERGY: 400000 0.4073 2.8862 0.4606 0.0000 -14013.3310 2417.8835 0.0000 0.0000 692.6110 -10899.0822 116.8413 -11591.6933 -10897.6887 116.8413 640.9798 694.8502 28553.5402 640.9798 694.8502
ENERGY: 500000 1.3896 2.8442 0.9857 0.0000 -13569.2015 2162.4089 0.0000 0.0000 909.6124 -10491.9606 153.4488 -11401.5731 -10488.7412 150.0038 -1028.7540 -959.3135 29167.2312 4.1395 4.1958
TCL: Running 100000 steps at 180 kelvin.
TCL: Setting parameter langevinTemp to 180
TCL: Running for 100000 steps
ETITLE: TS BOND ANGLE DIHED IMPRP ELECT VDW BOUNDARY MISC KINETIC TOTAL TEMP POTENTIAL TOTAL3 TEMPAVG PRESSURE GPRESSURE VOLUME PRESSAVG GPRESSAVG
ENERGY: 500000 1.3896 2.8442 0.9857 0.0000 -13569.2015 2162.4089 0.0000 0.0000 909.1506 -10492.4225 153.3709 -11401.5731 -10490.2550 153.3709 -1018.5554 -959.3937 29167.2312 -1018.5554 -959.3937
ENERGY: 600000 0.9203 4.9155 1.5031 0.0000 -13277.9899 2197.9002 0.0000 0.0000 1039.9584 -10032.7924 175.4378 -11072.7508 -10031.7326 180.4598 476.2921 548.4835 28964.5123 5.0410 5.0611
TCL: Running 100000 steps at 210 kelvin.
TCL: Setting parameter langevinTemp to 210
TCL: Running for 100000 steps
ETITLE: TS BOND ANGLE DIHED IMPRP ELECT VDW BOUNDARY MISC KINETIC TOTAL TEMP POTENTIAL TOTAL3 TEMPAVG PRESSURE GPRESSURE VOLUME PRESSAVG GPRESSAVG
ENERGY: 600000 0.9203 4.9155 1.5031 0.0000 -13277.9899 2197.9002 0.0000 0.0000 1039.4093 -10033.3414 175.3451 -11072.7508 -10030.8212 175.3451 477.9217 546.8870 28964.5123 477.9217 546.8870
ENERGY: 700000 0.3125 5.1219 0.7634 0.0000 -12465.5259 1874.9555 0.0000 0.0000 1295.2449 -9289.1276 218.5038 -10584.3726 -9286.5324 210.1584 -546.0892 -389.1742 29505.3388 4.7990 4.7405
TCL: Running 100000 steps at 240 kelvin.
TCL: Setting parameter langevinTemp to 240
TCL: Running for 100000 steps
ETITLE: TS BOND ANGLE DIHED IMPRP ELECT VDW BOUNDARY MISC KINETIC TOTAL TEMP POTENTIAL TOTAL3 TEMPAVG PRESSURE GPRESSURE VOLUME PRESSAVG GPRESSAVG
ENERGY: 700000 0.3125 5.1219 0.7634 0.0000 -12465.5259 1874.9555 0.0000 0.0000 1294.6251 -9289.7475 218.3993 -10584.3726 -9287.5346 218.3993 -454.4175 -388.7563 29505.3388 -454.4175 -388.7563
ENERGY: 800000 0.2574 5.0501 1.0221 0.0000 -11929.0053 1781.3012 0.0000 0.0000 1375.0043 -8766.3701 231.9590 -10141.3745 -8763.3815 240.2723 618.0792 649.5311 29309.5184 3.8892 4.0768
TCL: Running 100000 steps at 270 kelvin.
TCL: Setting parameter langevinTemp to 270
TCL: Running for 100000 steps
ETITLE: TS BOND ANGLE DIHED IMPRP ELECT VDW BOUNDARY MISC KINETIC TOTAL TEMP POTENTIAL TOTAL3 TEMPAVG PRESSURE GPRESSURE VOLUME PRESSAVG GPRESSAVG
ENERGY: 800000 0.2574 5.0501 1.0221 0.0000 -11929.0053 1781.3012 0.0000 0.0000 1374.3170 -8767.0574 231.8430 -10141.3745 -8765.1231 231.8430 572.1426 649.3352 29309.5184 572.1426 649.3352
ENERGY: 900000 0.5156 3.9971 0.8866 0.0000 -11268.6532 1580.8271 0.0000 0.0000 1619.1501 -8063.2767 273.1456 -9682.4268 -8058.7034 270.1264 11.8043 121.9616 30187.8010 3.1545 3.0334
TCL: Running 1000000 steps at 300 kelvin.
TCL: Setting parameter langevinTemp to 300
TCL: Running for 1000000 steps
ETITLE: TS BOND ANGLE DIHED IMPRP ELECT VDW BOUNDARY MISC KINETIC TOTAL TEMP POTENTIAL TOTAL3 TEMPAVG PRESSURE GPRESSURE VOLUME PRESSAVG GPRESSAVG
ENERGY: 900000 0.5156 3.9971 0.8866 0.0000 -11268.6532 1580.8271 0.0000 0.0000 1618.3836 -8064.0431 273.0163 -9682.4268 -8061.7306 273.0163 38.6820 125.6124 30187.8010 38.6820 125.6124
ENERGY: 1100000 0.7703 4.4220 0.8231 0.0000 -10747.4569 1405.7199 0.0000 0.0000 1759.1845 -7576.5370 296.7690 -9335.7215 -7572.5588 300.3142 -442.3030 -348.9748 30660.9181 2.8698 2.8645
ENERGY: 1300000 1.5837 5.5075 1.0306 0.0000 -10773.4905 1423.2916 0.0000 0.0000 1736.7660 -7605.3112 292.9871 -9342.0771 -7600.4669 300.5062 -484.2751 -389.4206 30729.1453 2.7221 2.5611
ENERGY: 1500000 0.9551 4.5178 1.2871 0.0000 -10678.0090 1351.3894 0.0000 0.0000 1784.9161 -7534.9435 301.1098 -9319.8596 -7529.8903 299.2285 -830.7522 -760.3449 30994.4810 2.3067 2.2049
ENERGY: 1700000 1.0983 6.4200 0.6468 0.0000 -10744.4683 1443.8509 0.0000 0.0000 1779.8473 -7512.6051 300.2547 -9292.4523 -7509.1577 300.6201 144.0518 197.1583 30571.7257 3.1982 3.0687
ENERGY: 1900000 0.4655 4.6605 0.7092 0.0000 -10566.0397 1276.8963 0.0000 0.0000 1778.9691 -7504.3390 300.1066 -9283.3081 -7499.1434 300.4089 -1417.4123 -1328.0552 31175.8937 2.6687 2.8189
TCL: Exiting due to exit command.
