Info: SIMULATION PARAMETERS:
Info: TIMESTEP               2
Info: NUMBER OF STEPS        0
Info: STEPS PER CYCLE        10
Info: PERIODIC CELL BASIS 1  35.01 0 0
Info: PERIODIC CELL BASIS 2  0 34.26 0
Info: PERIODIC CELL BASIS 3  0 0 36.199
Info: PERIODIC CELL CENTER   0 0 0
Info: WRAPPING WATERS AROUND PERIODIC BOUNDARIES ON OUTPUT.
Info: WRAPPING ALL CLUSTERS AROUND PERIODIC BOUNDARIES ON OUTPUT.
Info: FIRST LDB TIMESTEP     50
Info: LAST LDB TIMESTEP     -1
Info: HOM BACKGROUND SCALING 1
Info: PME BACKGROUND SCALING 1
Info: MIN ATOMS PER PATCH    40
Info: EMPTY PATCH LOAD       40 ATOMS
Info: INITIAL TEMPERATURE    300
Info: CENTER OF MASS MOVING INITIALLY? NO
Info: DIELECTRIC             1
Info: EXCLUDE                SCALED ONE-FOUR
Info: 1-4 ELECTROSTATICS SCALED BY 0.833333
Info: MODIFIED 1-4 VDW PARAMETERS WILL BE USED
Info: DCD FILENAME           mobley_5692472_equil.dcd
Info: DCD FREQUENCY          100000
Info: DCD FIRST STEP         100000
Info: DCD FILE WILL CONTAIN UNIT CELL DATA
Info: XST FILENAME           mobley_5692472_equil.xst
Info: XST FREQUENCY          100000
Info: NO VELOCITY DCD OUTPUT
Info: NO FORCE DCD OUTPUT
Info: OUTPUT FILENAME        mobley_5692472_equil
Info: BINARY OUTPUT FILES WILL BE USED
Info: RESTART FILENAME       mobley_5692472_equil.restart
Info: RESTART FREQUENCY      100000
Info: BINARY RESTART FILES WILL BE USED
Info: CUTOFF                 9
Info: PAIRLIST DISTANCE      11
Info: PAIRLIST SHRINK RATE   0.01
Info: PAIRLIST GROW RATE     0.01
Info: PAIRLIST TRIGGER       0.3
Info: PAIRLISTS PER CYCLE    2
Info: PAIRLISTS ENABLED
Info: MARGIN                 8
Info: HYDROGEN GROUP CUTOFF  2.5
Info: PATCH DIMENSION        21.5
Info: ENERGY OUTPUT STEPS    100000
Info: ENERGY EVALUATION STEPS    100000
Info: OUTPUT ENERGY PRECISION 4
Info: CROSSTERM ENERGY INCLUDED IN DIHEDRAL
Info: TIMING OUTPUT STEPS    1000000
Info: PRESSURE OUTPUT STEPS  100000
Info: LANGEVIN DYNAMICS ACTIVE
Info: LANGEVIN TEMPERATURE   30
Info: LANGEVIN USING BBK INTEGRATOR
Info: LANGEVIN DAMPING COEFFICIENT IS 1 INVERSE PS
Info: LANGEVIN DYNAMICS APPLIED TO HYDROGENS
Info: LANGEVIN PISTON PRESSURE CONTROL ACTIVE
Info:        TARGET PRESSURE IS 1.01325 BAR
Info:     OSCILLATION PERIOD IS 50 FS
Info:             DECAY TIME IS 25 FS
Info:     PISTON TEMPERATURE IS 300 K
Info:       PRESSURE CONTROL IS GROUP-BASED
Info:    INITIAL STRAIN RATE IS 0 0 0
Info:       CELL FLUCTUATION IS ISOTROPIC
Info: PARTICLE MESH EWALD (PME) ACTIVE
Info: PME TOLERANCE               1e-06
Info: PME EWALD COEFFICIENT       0.348832
Info: PME INTERPOLATION ORDER     4
Info: PME GRID DIMENSIONS         36 36 40
Info: PME MAXIMUM GRID SPACING    1
Info: FULL ELECTROSTATIC EVALUATION FREQUENCY      2
Info: USING VERLET I (r-RESPA) MTS SCHEME.
Info: C1 SPLITTING OF LONG RANGE ELECTROSTATICS
Info: PLACING ATOMS IN PATCHES BY HYDROGEN GROUPS
Info: RIGID BONDS TO HYDROGEN : ALL
Info:         ERROR TOLERANCE : 1e-08
Info:          MAX ITERATIONS : 100
Info: RIGID WATER USING SETTLE ALGORITHM
Info: RANDOM NUMBER SEED     1743160600
Info: USE HYDROGEN BONDS?    NO
Info: Using AMBER format force field!
Info: AMBER PARM FILE        mobley_5692472.prmtop
Info: COORDINATE PDB         mobley_5692472.pdb
Info: Exclusions will be read from PARM file!
Info: SCNB (VDW SCALING)     2
Info: USING ARITHMETIC MEAN TO COMBINE L-J SIGMA PARAMETERS
Info: BINARY COORDINATES     mobley_5692472_min.coor
Info: SUMMARY OF PARAMETERS:
Info: 5 BONDS
Info: 4 ANGLES
Info:   4 HARMONIC
Info:   0 COSINE-BASED
Info: 1 DIHEDRAL
Info: 0 IMPROPER
Info: 0 CROSSTERM
Info: 0 VDW
Info: 21 VDW_PAIRS
Info: 0 NBTHOLE_PAIRS
Info: STRUCTURE SUMMARY:
Info: 2941 ATOMS
Info: 2940 BONDS
Info: 15 ANGLES
Info: 12 DIHEDRALS
Info: 0 IMPROPERS
Info: 0 CROSSTERMS
Info: 2967 EXCLUSIONS
Info: 2938 RIGID BONDS
Info: 5885 DEGREES OF FREEDOM
Info: 980 HYDROGEN GROUPS
Info: 4 ATOMS IN LARGEST HYDROGEN GROUP
Info: 980 MIGRATION GROUPS
Info: 4 ATOMS IN LARGEST MIGRATION GROUP
Info: TOTAL MASS = 17646.7 amu
Info: TOTAL CHARGE = 7.45058e-09 e
Info: MASS DENSITY = 0.674912 g/cm^3
Info: ATOM DENSITY = 0.0677359 atoms/A^3
Info: ADDED 0 IMPLICIT EXCLUSIONS
Info: NONBONDED TABLE R-SQUARED SPACING: 0.0625
Info: NONBONDED TABLE SIZE: 705 POINTS
Info: REMOVING COM VELOCITY -0.112688 0.101785 0.0723422
TCL: Running for 100000 steps
ETITLE: TS BOND ANGLE DIHED IMPRP ELECT VDW BOUNDARY MISC KINETIC TOTAL TEMP POTENTIAL TOTAL3 TEMPAVG PRESSURE GPRESSURE VOLUME PRESSAVG GPRESSAVG
ENERGY: 0 0.0332 0.0837 0.0021 0.0000 -13663.7643 2421.1130 0.0000 0.0000 1713.1235 -9529.4089 292.9764 -11242.5324 -9529.0709 292.9764 482.6199 514.5322 43418.6227 482.6199 514.5322
ENERGY: 100000 0.0694 0.5433 0.0199 0.0000 -14113.9470 2421.6732 0.0000 0.0000 172.6228 -11519.0183 29.5218 -11691.6411 -11518.3434 30.8435 -483.2768 -429.0275 29309.4690 3.8086 3.7627
TCL: Running 100000 steps at 60 kelvin.
TCL: Setting parameter langevinTemp to 60
TCL: Running for 100000 steps
ETITLE: TS BOND ANGLE DIHED IMPRP ELECT VDW BOUNDARY MISC KINETIC TOTAL TEMP POTENTIAL TOTAL3 TEMPAVG PRESSURE GPRESSURE VOLUME PRESSAVG GPRESSAVG
ENERGY: 100000 0.0694 0.5433 0.0199 0.0000 -14113.9470 2421.6732 0.0000 0.0000 172.5371 -11519.1040 29.5071 -11691.6411 -11518.7535 29.5071 -482.5790 -429.1079 29309.4690 -482.5790 -429.1079
ENERGY: 200000 0.2577 1.0371 0.0269 0.0000 -13971.9091 2355.6230 0.0000 0.0000 343.5856 -11271.3788 58.7596 -11614.9645 -11270.2653 59.8050 -781.3977 -723.1351 29393.8729 4.5026 4.5088
TCL: Running 100000 steps at 90 kelvin.
TCL: Setting parameter langevinTemp to 90
TCL: Running for 100000 steps
ETITLE: TS BOND ANGLE DIHED IMPRP ELECT VDW BOUNDARY MISC KINETIC TOTAL TEMP POTENTIAL TOTAL3 TEMPAVG PRESSURE GPRESSURE VOLUME PRESSAVG GPRESSAVG
ENERGY: 200000 0.2577 1.0371 0.0269 0.0000 -13971.9091 2355.6230 0.0000 0.0000 343.4180 -11271.5465 58.7309 -11614.9645 -11270.8356 58.7309 -777.1028 -722.9988 29393.8729 -777.1028 -722.9988
ENERGY: 300000 0.2243 1.7317 0.1207 0.0000 -13773.9772 2215.8494 0.0000 0.0000 523.0798 -11032.9712 89.4565 -11556.0510 -11031.3898 90.0922 -1584.3713 -1533.5040 29142.1099 4.2214 4.2122
TCL: Running 100000 steps at 120 kelvin.
TCL: Setting parameter langevinTemp to 120
TCL: Running for 100000 steps
ETITLE: TS BOND ANGLE DIHED IMPRP ELECT VDW BOUNDARY MISC KINETIC TOTAL TEMP POTENTIAL TOTAL3 TEMPAVG PRESSURE GPRESSURE VOLUME PRESSAVG GPRESSAVG
ENERGY: 300000 0.2243 1.7317 0.1207 0.0000 -13773.9772 2215.8494 0.0000 0.0000 522.8118 -11033.2392 89.4107 -11556.0510 -11031.8821 89.4107 -1588.6304 -1533.4562 29142.1099 -1588.6304 -1533.4562
ENERGY: 400000 0.0440 3.2465 0.1602 0.0000 -13734.9970 2341.3795 0.0000 0.0000 713.1666 -10677.0002 121.9649 -11390.1668 -10675.5649 120.2237 -29.8295 74.1794 29010.7829 4.0893 4.0502
TCL: Running 100000 steps at 150 kelvin.
TCL: Setting parameter langevinTemp to 150
TCL: Running for 100000 steps
ETITLE: TS BOND ANGLE DIHED IMPRP ELECT VDW BOUNDARY MISC KINETIC TOTAL TEMP POTENTIAL TOTAL3 TEMPAVG PRESSURE GPRESSURE VOLUME PRESSAVG GPRESSAVG
ENERGY: 400000 0.0440 3.2465 0.1602 0.0000 -13734.9970 2341.3795 0.0000 0.0000 712.8157 -10677.3511 121.9049 -11390.1668 -10676.3212 121.9049 4.3624 74.0186 29010.7829 4.3624 74.0186
ENERGY: 500000 0.1740 2.1982 0.4955 0.0000 -13465.5810 2255.6620 0.0000 0.0000 871.7527 -10335.2986 149.0861 -11207.0513 -10333.1128 149.8801 -7.4370 90.5074 28942.6348 5.4096 5.2939
TCL: Running 100000 steps at 180 kelvin.
TCL: Setting parameter langevinTemp to 180
TCL: Running for 100000 steps
ETITLE: TS BOND ANGLE DIHED IMPRP ELECT VDW BOUNDARY MISC KINETIC TOTAL TEMP POTENTIAL TOTAL3 TEMPAVG PRESSURE GPRESSURE VOLUME PRESSAVG GPRESSAVG
ENERGY: 500000 0.1740 2.1982 0.4955 0.0000 -13465.5810 2255.6620 0.0000 0.0000 871.3114 -10335.7399 149.0107 -11207.0513 -10334.3757 149.0107 37.1841 91.1662 28942.6348 37.1841 91.1662
ENERGY: 600000 0.5751 2.4903 0.0731 0.0000 -13094.3475 2130.8819 0.0000 0.0000 1046.5265 -9913.8006 178.9757 -10960.3271 -9912.0404 179.9466 -14.5210 69.7151 28670.7146 3.5134 3.5452
TCL: Running 100000 steps at 210 kelvin.
TCL: Setting parameter langevinTemp to 210
TCL: Running for 100000 steps
ETITLE: TS BOND ANGLE DIHED IMPRP ELECT VDW BOUNDARY MISC KINETIC TOTAL TEMP POTENTIAL TOTAL3 TEMPAVG PRESSURE GPRESSURE VOLUME PRESSAVG GPRESSAVG
ENERGY: 600000 0.5751 2.4903 0.0731 0.0000 -13094.3475 2130.8819 0.0000 0.0000 1045.9840 -9914.3431 178.8830 -10960.3271 -9912.0709 178.8830 14.0506 69.3248 28670.7146 14.0506 69.3248
ENERGY: 700000 0.4882 3.5509 0.3549 0.0000 -12460.3182 1894.7194 0.0000 0.0000 1222.0856 -9339.1192 208.9996 -10561.2048 -9337.0605 210.0728 -466.9982 -366.9833 28875.7620 3.5635 3.6922
TCL: Running 100000 steps at 240 kelvin.
TCL: Setting parameter langevinTemp to 240
TCL: Running for 100000 steps
ETITLE: TS BOND ANGLE DIHED IMPRP ELECT VDW BOUNDARY MISC KINETIC TOTAL TEMP POTENTIAL TOTAL3 TEMPAVG PRESSURE GPRESSURE VOLUME PRESSAVG GPRESSAVG
ENERGY: 700000 0.4882 3.5509 0.3549 0.0000 -12460.3182 1894.7194 0.0000 0.0000 1221.4553 -9339.7495 208.8918 -10561.2048 -9337.7885 208.8918 -445.7364 -367.3244 28875.7620 -445.7364 -367.3244
ENERGY: 800000 1.1308 1.8834 0.1156 0.0000 -11661.3815 1657.4793 0.0000 0.0000 1406.3806 -8594.3919 240.5176 -10000.7725 -8591.2340 239.6377 -408.3353 -314.7432 29278.0701 2.1287 2.2676
TCL: Running 100000 steps at 270 kelvin.
TCL: Setting parameter langevinTemp to 270
TCL: Running for 100000 steps
ETITLE: TS BOND ANGLE DIHED IMPRP ELECT VDW BOUNDARY MISC KINETIC TOTAL TEMP POTENTIAL TOTAL3 TEMPAVG PRESSURE GPRESSURE VOLUME PRESSAVG GPRESSAVG
ENERGY: 800000 1.1308 1.8834 0.1156 0.0000 -11661.3815 1657.4793 0.0000 0.0000 1405.6593 -8595.1131 240.3942 -10000.7725 -8592.7670 240.3942 -386.3694 -315.8239 29278.0701 -386.3694 -315.8239
ENERGY: 900000 0.5154 1.7131 0.4514 0.0000 -11115.9036 1508.0295 0.0000 0.0000 1598.6939 -8006.5003 273.4067 -9605.1942 -8004.4438 269.5839 -44.4966 55.2627 29101.2241 4.1796 4.0220
TCL: Running 1000000 steps at 300 kelvin.
TCL: Setting parameter langevinTemp to 300
TCL: Running for 1000000 steps
ETITLE: TS BOND ANGLE DIHED IMPRP ELECT VDW BOUNDARY MISC KINETIC TOTAL TEMP POTENTIAL TOTAL3 TEMPAVG PRESSURE GPRESSURE VOLUME PRESSAVG GPRESSAVG
ENERGY: 900000 0.5154 1.7131 0.4514 0.0000 -11115.9036 1508.0295 0.0000 0.0000 1597.9158 -8007.2784 273.2737 -9605.1942 -8004.8597 273.2737 -43.6420 54.0707 29101.2241 -43.6420 54.0707
ENERGY: 1100000 1.3039 2.1905 1.3079 0.0000 -10626.8370 1406.5233 0.0000 0.0000 1786.8601 -7428.6514 305.5867 -9215.5115 -7425.3142 300.0562 -298.4864 -234.3953 30381.1379 2.2925 2.1721
ENERGY: 1300000 0.1540 3.3430 0.2254 0.0000 -10642.4768 1384.0828 0.0000 0.0000 1704.3750 -7550.2967 291.4802 -9254.6717 -7547.4101 299.7982 -355.6486 -275.5607 29906.5340 3.0644 3.1958
ENERGY: 1500000 0.1801 6.1349 0.2263 0.0000 -10567.9172 1387.8639 0.0000 0.0000 1822.4418 -7351.0700 311.6719 -9173.5118 -7349.1418 300.4343 -262.1629 -184.8301 30618.6342 3.1834 3.0699
ENERGY: 1700000 0.7191 3.4548 0.3781 0.0000 -10613.4347 1392.4366 0.0000 0.0000 1733.7781 -7482.6680 296.5087 -9216.4461 -7481.6718 300.3789 -294.5773 -190.6514 30155.7668 4.1790 4.3963
ENERGY: 1900000 1.0634 5.5584 0.4266 0.0000 -10614.4207 1435.8349 0.0000 0.0000 1724.3567 -7447.1806 294.8975 -9171.5373 -7444.8318 299.9768 108.4668 251.2024 30379.9488 3.5847 3.6322
TCL: Exiting due to exit command.
