Info: SIMULATION PARAMETERS:
Info: TIMESTEP               2
Info: NUMBER OF STEPS        0
Info: STEPS PER CYCLE        10
Info: PERIODIC CELL BASIS 1  36.281 0 0
Info: PERIODIC CELL BASIS 2  0 35.779 0
Info: PERIODIC CELL BASIS 3  0 0 34.471
Info: PERIODIC CELL CENTER   0 0 0
Info: WRAPPING WATERS AROUND PERIODIC BOUNDARIES ON OUTPUT.
Info: WRAPPING ALL CLUSTERS AROUND PERIODIC BOUNDARIES ON OUTPUT.
Info: FIRST LDB TIMESTEP     50
Info: LAST LDB TIMESTEP     -1
Info: HOM BACKGROUND SCALING 1
Info: PME BACKGROUND SCALING 1
Info: MIN ATOMS PER PATCH    40
Info: EMPTY PATCH LOAD       40 ATOMS
Info: INITIAL TEMPERATURE    300
Info: CENTER OF MASS MOVING INITIALLY? NO
Info: DIELECTRIC             1
Info: EXCLUDE                SCALED ONE-FOUR
Info: 1-4 ELECTROSTATICS SCALED BY 0.833333
Info: MODIFIED 1-4 VDW PARAMETERS WILL BE USED
Info: DCD FILENAME           mobley_6091882_equil.dcd
Info: DCD FREQUENCY          100000
Info: DCD FIRST STEP         100000
Info: DCD FILE WILL CONTAIN UNIT CELL DATA
Info: XST FILENAME           mobley_6091882_equil.xst
Info: XST FREQUENCY          100000
Info: NO VELOCITY DCD OUTPUT
Info: NO FORCE DCD OUTPUT
Info: OUTPUT FILENAME        mobley_6091882_equil
Info: BINARY OUTPUT FILES WILL BE USED
Info: RESTART FILENAME       mobley_6091882_equil.restart
Info: RESTART FREQUENCY      100000
Info: BINARY RESTART FILES WILL BE USED
Info: CUTOFF                 9
Info: PAIRLIST DISTANCE      11
Info: PAIRLIST SHRINK RATE   0.01
Info: PAIRLIST GROW RATE     0.01
Info: PAIRLIST TRIGGER       0.3
Info: PAIRLISTS PER CYCLE    2
Info: PAIRLISTS ENABLED
Info: MARGIN                 8
Info: HYDROGEN GROUP CUTOFF  2.5
Info: PATCH DIMENSION        21.5
Info: ENERGY OUTPUT STEPS    100000
Info: ENERGY EVALUATION STEPS    100000
Info: OUTPUT ENERGY PRECISION 4
Info: CROSSTERM ENERGY INCLUDED IN DIHEDRAL
Info: TIMING OUTPUT STEPS    1000000
Info: PRESSURE OUTPUT STEPS  100000
Info: LANGEVIN DYNAMICS ACTIVE
Info: LANGEVIN TEMPERATURE   30
Info: LANGEVIN USING BBK INTEGRATOR
Info: LANGEVIN DAMPING COEFFICIENT IS 1 INVERSE PS
Info: LANGEVIN DYNAMICS APPLIED TO HYDROGENS
Info: LANGEVIN PISTON PRESSURE CONTROL ACTIVE
Info:        TARGET PRESSURE IS 1.01325 BAR
Info:     OSCILLATION PERIOD IS 50 FS
Info:             DECAY TIME IS 25 FS
Info:     PISTON TEMPERATURE IS 300 K
Info:       PRESSURE CONTROL IS GROUP-BASED
Info:    INITIAL STRAIN RATE IS 0 0 0
Info:       CELL FLUCTUATION IS ISOTROPIC
Info: PARTICLE MESH EWALD (PME) ACTIVE
Info: PME TOLERANCE               1e-06
Info: PME EWALD COEFFICIENT       0.348832
Info: PME INTERPOLATION ORDER     4
Info: PME GRID DIMENSIONS         40 36 36
Info: PME MAXIMUM GRID SPACING    1
Info: FULL ELECTROSTATIC EVALUATION FREQUENCY      2
Info: USING VERLET I (r-RESPA) MTS SCHEME.
Info: C1 SPLITTING OF LONG RANGE ELECTROSTATICS
Info: PLACING ATOMS IN PATCHES BY HYDROGEN GROUPS
Info: RIGID BONDS TO HYDROGEN : ALL
Info:         ERROR TOLERANCE : 1e-08
Info:          MAX ITERATIONS : 100
Info: RIGID WATER USING SETTLE ALGORITHM
Info: RANDOM NUMBER SEED     1743156118
Info: USE HYDROGEN BONDS?    NO
Info: Using AMBER format force field!
Info: AMBER PARM FILE        mobley_6091882.prmtop
Info: COORDINATE PDB         mobley_6091882.pdb
Info: Exclusions will be read from PARM file!
Info: SCNB (VDW SCALING)     2
Info: USING ARITHMETIC MEAN TO COMBINE L-J SIGMA PARAMETERS
Info: BINARY COORDINATES     mobley_6091882_min.coor
Info: SUMMARY OF PARAMETERS:
Info: 4 BONDS
Info: 2 ANGLES
Info:   2 HARMONIC
Info:   0 COSINE-BASED
Info: 2 DIHEDRAL
Info: 0 IMPROPER
Info: 0 CROSSTERM
Info: 0 VDW
Info: 10 VDW_PAIRS
Info: 0 NBTHOLE_PAIRS
Info: STRUCTURE SUMMARY:
Info: 2946 ATOMS
Info: 2945 BONDS
Info: 6 ANGLES
Info: 6 DIHEDRALS
Info: 0 IMPROPERS
Info: 0 CROSSTERMS
Info: 2955 EXCLUSIONS
Info: 2944 RIGID BONDS
Info: 5894 DEGREES OF FREEDOM
Info: 982 HYDROGEN GROUPS
Info: 3 ATOMS IN LARGEST HYDROGEN GROUP
Info: 982 MIGRATION GROUPS
Info: 3 ATOMS IN LARGEST MIGRATION GROUP
Info: TOTAL MASS = 17683.7 amu
Info: TOTAL CHARGE = 0.000100002 e
Info: MASS DENSITY = 0.656254 g/cm^3
Info: ATOM DENSITY = 0.0658372 atoms/A^3
Info: ADDED 0 IMPLICIT EXCLUSIONS
Info: NONBONDED TABLE R-SQUARED SPACING: 0.0625
Info: NONBONDED TABLE SIZE: 705 POINTS
Info: REMOVING COM VELOCITY -0.0223612 0.197516 -0.114167
TCL: Running for 100000 steps
ETITLE: TS BOND ANGLE DIHED IMPRP ELECT VDW BOUNDARY MISC KINETIC TOTAL TEMP POTENTIAL TOTAL3 TEMPAVG PRESSURE GPRESSURE VOLUME PRESSAVG GPRESSAVG
ENERGY: 0 0.0032 0.0616 0.0054 0.0000 -13663.0464 2416.7152 0.0000 0.0000 1757.4040 -9488.8571 300.0902 -11246.2610 -9488.4968 300.0902 477.6588 502.7964 44746.7327 477.6588 502.7964
ENERGY: 100000 0.0143 0.0934 0.1417 0.0000 -13999.2223 2285.0965 0.0000 0.0000 175.3942 -11538.4821 29.9499 -11713.8763 -11538.0162 30.9458 -1644.2577 -1581.5182 29562.4533 3.0955 3.0383
TCL: Running 100000 steps at 60 kelvin.
TCL: Setting parameter langevinTemp to 60
TCL: Running for 100000 steps
ETITLE: TS BOND ANGLE DIHED IMPRP ELECT VDW BOUNDARY MISC KINETIC TOTAL TEMP POTENTIAL TOTAL3 TEMPAVG PRESSURE GPRESSURE VOLUME PRESSAVG GPRESSAVG
ENERGY: 100000 0.0143 0.0934 0.1417 0.0000 -13999.2223 2285.0965 0.0000 0.0000 175.3058 -11538.5705 29.9348 -11713.8763 -11538.1295 29.9348 -1644.2719 -1581.6602 29562.4533 -1644.2719 -1581.6602
ENERGY: 200000 0.0307 0.2495 0.4399 0.0000 -14187.0535 2539.8556 0.0000 0.0000 358.0565 -11288.4212 61.1409 -11646.4777 -11287.5329 60.0217 917.9924 965.9733 28729.3005 3.8780 3.7572
TCL: Running 100000 steps at 90 kelvin.
TCL: Setting parameter langevinTemp to 90
TCL: Running for 100000 steps
ETITLE: TS BOND ANGLE DIHED IMPRP ELECT VDW BOUNDARY MISC KINETIC TOTAL TEMP POTENTIAL TOTAL3 TEMPAVG PRESSURE GPRESSURE VOLUME PRESSAVG GPRESSAVG
ENERGY: 200000 0.0307 0.2495 0.4399 0.0000 -14187.0535 2539.8556 0.0000 0.0000 357.8866 -11288.5912 61.1119 -11646.4777 -11287.8862 61.1119 917.6613 966.2442 28729.3005 917.6613 966.2442
ENERGY: 300000 0.3116 0.9663 0.0904 0.0000 -14051.9377 2497.0742 0.0000 0.0000 524.1595 -11029.3356 89.5043 -11553.4951 -11027.7934 90.0942 1037.5094 1106.9475 28661.1354 3.9251 3.8402
TCL: Running 100000 steps at 120 kelvin.
TCL: Setting parameter langevinTemp to 120
TCL: Running for 100000 steps
ETITLE: TS BOND ANGLE DIHED IMPRP ELECT VDW BOUNDARY MISC KINETIC TOTAL TEMP POTENTIAL TOTAL3 TEMPAVG PRESSURE GPRESSURE VOLUME PRESSAVG GPRESSAVG
ENERGY: 300000 0.3116 0.9663 0.0904 0.0000 -14051.9377 2497.0742 0.0000 0.0000 523.9013 -11029.5939 89.4602 -11553.4951 -11028.5232 89.4602 1048.2756 1106.9775 28661.1354 1048.2756 1106.9775
ENERGY: 400000 0.1143 0.2688 0.1224 0.0000 -13840.2081 2388.6367 0.0000 0.0000 724.6723 -10726.3937 123.7434 -11451.0660 -10724.3896 120.0335 584.3054 606.8278 28670.3914 3.0424 3.0749
TCL: Running 100000 steps at 150 kelvin.
TCL: Setting parameter langevinTemp to 150
TCL: Running for 100000 steps
ETITLE: TS BOND ANGLE DIHED IMPRP ELECT VDW BOUNDARY MISC KINETIC TOTAL TEMP POTENTIAL TOTAL3 TEMPAVG PRESSURE GPRESSURE VOLUME PRESSAVG GPRESSAVG
ENERGY: 400000 0.1143 0.2688 0.1224 0.0000 -13840.2081 2388.6367 0.0000 0.0000 724.3259 -10726.7401 123.6842 -11451.0660 -10725.3880 123.6842 559.2164 607.4171 28670.3914 559.2164 607.4171
ENERGY: 500000 0.0323 0.2307 0.6664 0.0000 -13431.9679 2155.5786 0.0000 0.0000 886.4767 -10388.9831 151.3727 -11275.4598 -10386.0491 149.9226 -974.2403 -873.7299 29085.1120 4.3675 4.4552
TCL: Running 100000 steps at 180 kelvin.
TCL: Setting parameter langevinTemp to 180
TCL: Running for 100000 steps
ETITLE: TS BOND ANGLE DIHED IMPRP ELECT VDW BOUNDARY MISC KINETIC TOTAL TEMP POTENTIAL TOTAL3 TEMPAVG PRESSURE GPRESSURE VOLUME PRESSAVG GPRESSAVG
ENERGY: 500000 0.0323 0.2307 0.6664 0.0000 -13431.9679 2155.5786 0.0000 0.0000 886.0277 -10389.4322 151.2960 -11275.4598 -10387.8423 151.2960 -929.1798 -872.5959 29085.1120 -929.1798 -872.5959
ENERGY: 600000 0.0453 1.4275 0.0855 0.0000 -13370.0380 2321.9827 0.0000 0.0000 1048.0559 -9998.4411 178.9636 -11046.4970 -9994.5993 179.8074 1403.9335 1447.7805 28724.7802 4.5649 4.6581
TCL: Running 100000 steps at 210 kelvin.
TCL: Setting parameter langevinTemp to 210
TCL: Running for 100000 steps
ETITLE: TS BOND ANGLE DIHED IMPRP ELECT VDW BOUNDARY MISC KINETIC TOTAL TEMP POTENTIAL TOTAL3 TEMPAVG PRESSURE GPRESSURE VOLUME PRESSAVG GPRESSAVG
ENERGY: 600000 0.0453 1.4275 0.0855 0.0000 -13370.0380 2321.9827 0.0000 0.0000 1047.5361 -9998.9609 178.8748 -11046.4970 -9997.0499 178.8748 1392.5750 1447.9436 28724.7802 1392.5750 1447.9436
ENERGY: 700000 0.6280 0.4894 1.1487 0.0000 -12417.0966 1907.8711 0.0000 0.0000 1228.7739 -9278.1854 209.8226 -10506.9593 -9276.0461 209.5079 106.2449 186.5293 28622.9190 3.4975 3.5793
TCL: Running 100000 steps at 240 kelvin.
TCL: Setting parameter langevinTemp to 240
TCL: Running for 100000 steps
ETITLE: TS BOND ANGLE DIHED IMPRP ELECT VDW BOUNDARY MISC KINETIC TOTAL TEMP POTENTIAL TOTAL3 TEMPAVG PRESSURE GPRESSURE VOLUME PRESSAVG GPRESSAVG
ENERGY: 700000 0.6280 0.4894 1.1487 0.0000 -12417.0966 1907.8711 0.0000 0.0000 1228.1582 -9278.8012 209.7174 -10506.9593 -9277.1267 209.7174 111.3068 186.5677 28622.9190 111.3068 186.5677
ENERGY: 800000 0.0484 2.4257 0.1647 0.0000 -11904.2968 1782.7570 0.0000 0.0000 1409.2902 -8709.6108 240.6471 -10118.9010 -8705.7935 239.6178 712.3204 755.4668 28438.7606 2.5381 2.7212
TCL: Running 100000 steps at 270 kelvin.
TCL: Setting parameter langevinTemp to 270
TCL: Running for 100000 steps
ETITLE: TS BOND ANGLE DIHED IMPRP ELECT VDW BOUNDARY MISC KINETIC TOTAL TEMP POTENTIAL TOTAL3 TEMPAVG PRESSURE GPRESSURE VOLUME PRESSAVG GPRESSAVG
ENERGY: 800000 0.0484 2.4257 0.1647 0.0000 -11904.2968 1782.7570 0.0000 0.0000 1408.5894 -8710.3116 240.5275 -10118.9010 -8707.7143 240.5275 677.3025 756.8642 28438.7606 677.3025 756.8642
ENERGY: 900000 0.3470 2.4287 0.1388 0.0000 -11225.4899 1552.5463 0.0000 0.0000 1636.9063 -8033.1227 279.5143 -9670.0290 -8030.4440 270.3052 -110.6416 -2.9992 29509.4220 2.0407 2.1034
TCL: Running 1000000 steps at 300 kelvin.
TCL: Setting parameter langevinTemp to 300
TCL: Running for 1000000 steps
ETITLE: TS BOND ANGLE DIHED IMPRP ELECT VDW BOUNDARY MISC KINETIC TOTAL TEMP POTENTIAL TOTAL3 TEMPAVG PRESSURE GPRESSURE VOLUME PRESSAVG GPRESSAVG
ENERGY: 900000 0.3470 2.4287 0.1388 0.0000 -11225.4899 1552.5463 0.0000 0.0000 1636.1202 -8033.9088 279.3801 -9670.0290 -8031.2570 279.3801 -84.4210 -2.4931 29509.4220 -84.4210 -2.4931
ENERGY: 1100000 0.2753 1.1635 0.6058 0.0000 -10632.4950 1373.8854 0.0000 0.0000 1758.8914 -7497.6735 300.3442 -9256.5649 -7492.7440 300.4596 -559.0440 -467.3395 30397.9293 3.1092 2.8973
ENERGY: 1300000 0.2948 0.5061 0.6836 0.0000 -10648.6858 1430.0524 0.0000 0.0000 1775.7053 -7441.4435 303.2153 -9217.1489 -7436.9180 300.4272 -103.2599 27.3121 30612.3230 3.9645 4.0617
ENERGY: 1500000 1.1804 1.7622 0.2901 0.0000 -10757.8338 1471.7665 0.0000 0.0000 1768.6802 -7514.1545 302.0157 -9282.8347 -7510.9123 300.2201 285.7733 363.1560 30160.5103 3.5037 3.5761
ENERGY: 1700000 0.2300 1.1700 0.6158 0.0000 -10777.5893 1505.5391 0.0000 0.0000 1794.5696 -7475.4648 306.4365 -9270.0344 -7474.1421 299.8891 136.7433 182.3779 30636.7006 3.3165 3.0815
ENERGY: 1900000 0.8498 0.3686 1.6864 0.0000 -10572.0045 1332.4373 0.0000 0.0000 1772.6489 -7464.0135 302.6934 -9236.6624 -7461.4693 300.4276 -703.3824 -613.2916 30283.7017 3.8539 3.7514
TCL: Exiting due to exit command.
