Info: SIMULATION PARAMETERS:
Info: TIMESTEP               2
Info: NUMBER OF STEPS        0
Info: STEPS PER CYCLE        10
Info: PERIODIC CELL BASIS 1  36.592 0 0
Info: PERIODIC CELL BASIS 2  0 34.26 0
Info: PERIODIC CELL BASIS 3  0 0 35.723
Info: PERIODIC CELL CENTER   0 0 0
Info: WRAPPING WATERS AROUND PERIODIC BOUNDARIES ON OUTPUT.
Info: WRAPPING ALL CLUSTERS AROUND PERIODIC BOUNDARIES ON OUTPUT.
Info: FIRST LDB TIMESTEP     50
Info: LAST LDB TIMESTEP     -1
Info: HOM BACKGROUND SCALING 1
Info: PME BACKGROUND SCALING 1
Info: MIN ATOMS PER PATCH    40
Info: EMPTY PATCH LOAD       40 ATOMS
Info: INITIAL TEMPERATURE    300
Info: CENTER OF MASS MOVING INITIALLY? NO
Info: DIELECTRIC             1
Info: EXCLUDE                SCALED ONE-FOUR
Info: 1-4 ELECTROSTATICS SCALED BY 0.833333
Info: MODIFIED 1-4 VDW PARAMETERS WILL BE USED
Info: DCD FILENAME           mobley_2123854_equil.dcd
Info: DCD FREQUENCY          100000
Info: DCD FIRST STEP         100000
Info: DCD FILE WILL CONTAIN UNIT CELL DATA
Info: XST FILENAME           mobley_2123854_equil.xst
Info: XST FREQUENCY          100000
Info: NO VELOCITY DCD OUTPUT
Info: NO FORCE DCD OUTPUT
Info: OUTPUT FILENAME        mobley_2123854_equil
Info: BINARY OUTPUT FILES WILL BE USED
Info: RESTART FILENAME       mobley_2123854_equil.restart
Info: RESTART FREQUENCY      100000
Info: BINARY RESTART FILES WILL BE USED
Info: CUTOFF                 9
Info: PAIRLIST DISTANCE      11
Info: PAIRLIST SHRINK RATE   0.01
Info: PAIRLIST GROW RATE     0.01
Info: PAIRLIST TRIGGER       0.3
Info: PAIRLISTS PER CYCLE    2
Info: PAIRLISTS ENABLED
Info: MARGIN                 8
Info: HYDROGEN GROUP CUTOFF  2.5
Info: PATCH DIMENSION        21.5
Info: ENERGY OUTPUT STEPS    100000
Info: ENERGY EVALUATION STEPS    100000
Info: OUTPUT ENERGY PRECISION 4
Info: CROSSTERM ENERGY INCLUDED IN DIHEDRAL
Info: TIMING OUTPUT STEPS    1000000
Info: PRESSURE OUTPUT STEPS  100000
Info: LANGEVIN DYNAMICS ACTIVE
Info: LANGEVIN TEMPERATURE   30
Info: LANGEVIN USING BBK INTEGRATOR
Info: LANGEVIN DAMPING COEFFICIENT IS 1 INVERSE PS
Info: LANGEVIN DYNAMICS APPLIED TO HYDROGENS
Info: LANGEVIN PISTON PRESSURE CONTROL ACTIVE
Info:        TARGET PRESSURE IS 1.01325 BAR
Info:     OSCILLATION PERIOD IS 50 FS
Info:             DECAY TIME IS 25 FS
Info:     PISTON TEMPERATURE IS 300 K
Info:       PRESSURE CONTROL IS GROUP-BASED
Info:    INITIAL STRAIN RATE IS 0 0 0
Info:       CELL FLUCTUATION IS ISOTROPIC
Info: PARTICLE MESH EWALD (PME) ACTIVE
Info: PME TOLERANCE               1e-06
Info: PME EWALD COEFFICIENT       0.348832
Info: PME INTERPOLATION ORDER     4
Info: PME GRID DIMENSIONS         40 36 36
Info: PME MAXIMUM GRID SPACING    1
Info: FULL ELECTROSTATIC EVALUATION FREQUENCY      2
Info: USING VERLET I (r-RESPA) MTS SCHEME.
Info: C1 SPLITTING OF LONG RANGE ELECTROSTATICS
Info: PLACING ATOMS IN PATCHES BY HYDROGEN GROUPS
Info: RIGID BONDS TO HYDROGEN : ALL
Info:         ERROR TOLERANCE : 1e-08
Info:          MAX ITERATIONS : 100
Info: RIGID WATER USING SETTLE ALGORITHM
Info: RANDOM NUMBER SEED     1743210187
Info: USE HYDROGEN BONDS?    NO
Info: Using AMBER format force field!
Info: AMBER PARM FILE        mobley_2123854.prmtop
Info: COORDINATE PDB         mobley_2123854.pdb
Info: Exclusions will be read from PARM file!
Info: SCNB (VDW SCALING)     2
Info: USING ARITHMETIC MEAN TO COMBINE L-J SIGMA PARAMETERS
Info: BINARY COORDINATES     mobley_2123854_min.coor
Info: SUMMARY OF PARAMETERS:
Info: 8 BONDS
Info: 6 ANGLES
Info:   6 HARMONIC
Info:   0 COSINE-BASED
Info: 4 DIHEDRAL
Info: 0 IMPROPER
Info: 0 CROSSTERM
Info: 0 VDW
Info: 28 VDW_PAIRS
Info: 0 NBTHOLE_PAIRS
Info: STRUCTURE SUMMARY:
Info: 2960 ATOMS
Info: 2960 BONDS
Info: 20 ANGLES
Info: 34 DIHEDRALS
Info: 0 IMPROPERS
Info: 0 CROSSTERMS
Info: 3005 EXCLUSIONS
Info: 2951 RIGID BONDS
Info: 5929 DEGREES OF FREEDOM
Info: 991 HYDROGEN GROUPS
Info: 3 ATOMS IN LARGEST HYDROGEN GROUP
Info: 991 MIGRATION GROUPS
Info: 3 ATOMS IN LARGEST MIGRATION GROUP
Info: TOTAL MASS = 17810.8 amu
Info: TOTAL CHARGE = -0.000100009 e
Info: MASS DENSITY = 0.660423 g/cm^3
Info: ATOM DENSITY = 0.0660953 atoms/A^3
Info: ADDED 0 IMPLICIT EXCLUSIONS
Info: NONBONDED TABLE R-SQUARED SPACING: 0.0625
Info: NONBONDED TABLE SIZE: 705 POINTS
Info: REMOVING COM VELOCITY -0.0660213 -0.0848146 -0.0652424
TCL: Running for 100000 steps
ETITLE: TS BOND ANGLE DIHED IMPRP ELECT VDW BOUNDARY MISC KINETIC TOTAL TEMP POTENTIAL TOTAL3 TEMPAVG PRESSURE GPRESSURE VOLUME PRESSAVG GPRESSAVG
ENERGY: 0 0.1313 0.0627 0.0088 0.0000 -13653.7884 2401.5735 0.0000 0.0000 1737.3240 -9514.6881 294.9102 -11252.0121 -9514.3728 294.9102 422.9284 453.7981 44783.8503 422.9284 453.7981
ENERGY: 100000 0.7589 0.5039 0.8552 0.0000 -14237.8589 2437.1787 0.0000 0.0000 179.9522 -11618.6099 30.5468 -11798.5621 -11618.1472 30.9182 -677.5881 -579.3938 29463.8895 4.5278 4.5575
TCL: Running 100000 steps at 60 kelvin.
TCL: Setting parameter langevinTemp to 60
TCL: Running for 100000 steps
ETITLE: TS BOND ANGLE DIHED IMPRP ELECT VDW BOUNDARY MISC KINETIC TOTAL TEMP POTENTIAL TOTAL3 TEMPAVG PRESSURE GPRESSURE VOLUME PRESSAVG GPRESSAVG
ENERGY: 100000 0.7589 0.5039 0.8552 0.0000 -14237.8589 2437.1787 0.0000 0.0000 179.8678 -11618.6944 30.5325 -11798.5621 -11618.2423 30.5325 -659.6006 -579.4616 29463.8895 -659.6006 -579.4616
ENERGY: 200000 1.4287 1.7152 2.8101 0.0000 -14108.5655 2403.1151 0.0000 0.0000 356.1984 -11343.2981 60.4646 -11699.4965 -11342.0079 59.9872 -451.3619 -397.5688 29540.5171 5.1141 5.0786
TCL: Running 100000 steps at 90 kelvin.
TCL: Setting parameter langevinTemp to 90
TCL: Running for 100000 steps
ETITLE: TS BOND ANGLE DIHED IMPRP ELECT VDW BOUNDARY MISC KINETIC TOTAL TEMP POTENTIAL TOTAL3 TEMPAVG PRESSURE GPRESSURE VOLUME PRESSAVG GPRESSAVG
ENERGY: 200000 1.4287 1.7152 2.8101 0.0000 -14108.5655 2403.1151 0.0000 0.0000 356.0179 -11343.4786 60.4339 -11699.4965 -11342.6621 60.4339 -474.0545 -397.8710 29540.5171 -474.0545 -397.8710
ENERGY: 300000 2.3965 0.4923 1.3949 0.0000 -13984.7470 2331.5708 0.0000 0.0000 535.3428 -11113.5497 90.8743 -11648.8925 -11111.7381 90.1636 -766.4953 -698.4522 29212.6262 4.4657 4.3929
TCL: Running 100000 steps at 120 kelvin.
TCL: Setting parameter langevinTemp to 120
TCL: Running for 100000 steps
ETITLE: TS BOND ANGLE DIHED IMPRP ELECT VDW BOUNDARY MISC KINETIC TOTAL TEMP POTENTIAL TOTAL3 TEMPAVG PRESSURE GPRESSURE VOLUME PRESSAVG GPRESSAVG
ENERGY: 300000 2.3965 0.4923 1.3949 0.0000 -13984.7470 2331.5708 0.0000 0.0000 535.0788 -11113.8138 90.8294 -11648.8925 -11112.4848 90.8294 -751.8489 -698.1354 29212.6262 -751.8489 -698.1354
ENERGY: 400000 1.1711 1.9673 1.0978 0.0000 -13791.3048 2298.2710 0.0000 0.0000 724.4660 -10764.3315 122.9779 -11488.7975 -10762.0518 119.9245 -387.1666 -366.6180 29361.7603 3.9859 4.0940
TCL: Running 100000 steps at 150 kelvin.
TCL: Setting parameter langevinTemp to 150
TCL: Running for 100000 steps
ETITLE: TS BOND ANGLE DIHED IMPRP ELECT VDW BOUNDARY MISC KINETIC TOTAL TEMP POTENTIAL TOTAL3 TEMPAVG PRESSURE GPRESSURE VOLUME PRESSAVG GPRESSAVG
ENERGY: 400000 1.1711 1.9673 1.0978 0.0000 -13791.3048 2298.2710 0.0000 0.0000 724.1118 -10764.6857 122.9177 -11488.7975 -10763.1503 122.9177 -404.5583 -366.3913 29361.7603 -404.5583 -366.3913
ENERGY: 500000 1.2207 1.4405 1.4914 0.0000 -13499.8552 2174.7417 0.0000 0.0000 854.7517 -10466.2093 145.0938 -11320.9610 -10463.2962 149.9984 -685.6000 -680.0852 29028.4205 2.6231 2.5806
TCL: Running 100000 steps at 180 kelvin.
TCL: Setting parameter langevinTemp to 180
TCL: Running for 100000 steps
ETITLE: TS BOND ANGLE DIHED IMPRP ELECT VDW BOUNDARY MISC KINETIC TOTAL TEMP POTENTIAL TOTAL3 TEMPAVG PRESSURE GPRESSURE VOLUME PRESSAVG GPRESSAVG
ENERGY: 500000 1.2207 1.4405 1.4914 0.0000 -13499.8552 2174.7417 0.0000 0.0000 854.2986 -10466.6624 145.0169 -11320.9610 -10464.7699 145.0169 -732.3709 -679.8333 29028.4205 -732.3709 -679.8333
ENERGY: 600000 2.4436 4.0140 1.1973 0.0000 -13202.3381 2155.9287 0.0000 0.0000 1048.9498 -9989.8047 178.0589 -11038.7545 -9985.9537 180.0396 285.6105 275.7050 28969.4086 4.0772 4.1427
TCL: Running 100000 steps at 210 kelvin.
TCL: Setting parameter langevinTemp to 210
TCL: Running for 100000 steps
ETITLE: TS BOND ANGLE DIHED IMPRP ELECT VDW BOUNDARY MISC KINETIC TOTAL TEMP POTENTIAL TOTAL3 TEMPAVG PRESSURE GPRESSURE VOLUME PRESSAVG GPRESSAVG
ENERGY: 600000 2.4436 4.0140 1.1973 0.0000 -13202.3381 2155.9287 0.0000 0.0000 1048.4329 -9990.3216 177.9711 -11038.7545 -9988.4791 177.9711 218.6130 277.2654 28969.4086 218.6130 277.2654
ENERGY: 700000 2.3344 2.1717 2.4980 0.0000 -12468.5825 1909.3695 0.0000 0.0000 1235.7215 -9316.4875 209.7633 -10552.2090 -9314.6112 210.1929 191.3657 294.6380 28701.3498 2.8352 2.6643
TCL: Running 100000 steps at 240 kelvin.
TCL: Setting parameter langevinTemp to 240
TCL: Running for 100000 steps
ETITLE: TS BOND ANGLE DIHED IMPRP ELECT VDW BOUNDARY MISC KINETIC TOTAL TEMP POTENTIAL TOTAL3 TEMPAVG PRESSURE GPRESSURE VOLUME PRESSAVG GPRESSAVG
ENERGY: 700000 2.3344 2.1717 2.4980 0.0000 -12468.5825 1909.3695 0.0000 0.0000 1235.0754 -9317.1336 209.6536 -10552.2090 -9315.0588 209.6536 206.9239 292.9929 28701.3498 206.9239 292.9929
ENERGY: 800000 3.6735 5.4069 0.9134 0.0000 -11734.7255 1670.1991 0.0000 0.0000 1399.0762 -8655.4564 237.4927 -10054.5326 -8652.4145 239.5922 -420.8839 -316.6280 29301.4206 4.3662 4.4634
TCL: Running 100000 steps at 270 kelvin.
TCL: Setting parameter langevinTemp to 270
TCL: Running for 100000 steps
ETITLE: TS BOND ANGLE DIHED IMPRP ELECT VDW BOUNDARY MISC KINETIC TOTAL TEMP POTENTIAL TOTAL3 TEMPAVG PRESSURE GPRESSURE VOLUME PRESSAVG GPRESSAVG
ENERGY: 800000 3.6735 5.4069 0.9134 0.0000 -11734.7255 1670.1991 0.0000 0.0000 1398.3450 -8656.1875 237.3686 -10054.5326 -8653.6007 237.3686 -406.5446 -316.9841 29301.4206 -406.5446 -316.9841
ENERGY: 900000 2.4391 4.3653 3.0787 0.0000 -11235.6727 1595.6362 0.0000 0.0000 1622.4010 -8007.7524 275.4020 -9630.1534 -8005.5358 269.9431 342.0921 394.4081 29746.7552 5.6722 5.5569
TCL: Running 1000000 steps at 300 kelvin.
TCL: Setting parameter langevinTemp to 300
TCL: Running for 1000000 steps
ETITLE: TS BOND ANGLE DIHED IMPRP ELECT VDW BOUNDARY MISC KINETIC TOTAL TEMP POTENTIAL TOTAL3 TEMPAVG PRESSURE GPRESSURE VOLUME PRESSAVG GPRESSAVG
ENERGY: 900000 2.4391 4.3653 3.0787 0.0000 -11235.6727 1595.6362 0.0000 0.0000 1621.6264 -8008.5271 275.2705 -9630.1534 -8006.9805 275.2705 298.8442 393.5341 29746.7552 298.8442 393.5341
ENERGY: 1100000 5.9579 1.9488 2.1123 0.0000 -10851.6626 1458.0294 0.0000 0.0000 1781.1400 -7602.4742 302.3479 -9383.6142 -7598.7534 299.8537 -51.1291 31.4199 30174.5824 3.2002 3.3340
ENERGY: 1300000 1.3343 2.5815 1.6741 0.0000 -10759.8589 1444.0526 0.0000 0.0000 1794.2131 -7516.0033 304.5671 -9310.2164 -7511.3180 299.8191 0.9649 136.6453 30398.5593 3.5272 3.7212
ENERGY: 1500000 4.1352 5.7293 1.6423 0.0000 -10546.2346 1301.3207 0.0000 0.0000 1769.3939 -7464.0133 300.3540 -9233.4072 -7456.9339 300.3708 -878.1551 -782.8539 30714.3188 4.1641 4.2072
ENERGY: 1700000 3.7535 1.4765 1.6731 0.0000 -10719.5004 1493.3777 0.0000 0.0000 1773.7427 -7445.4768 301.0922 -9219.2196 -7442.5044 300.2458 502.6803 557.6915 30903.9911 4.6435 4.6591
ENERGY: 1900000 1.2582 5.3552 2.8639 0.0000 -10851.8507 1463.3709 0.0000 0.0000 1696.9437 -7682.0588 288.0556 -9379.0025 -7679.7729 300.6966 -294.0638 -226.7480 30927.8848 2.8910 2.9091
TCL: Exiting due to exit command.
