Info: SIMULATION PARAMETERS:
Info: TIMESTEP               2
Info: NUMBER OF STEPS        0
Info: STEPS PER CYCLE        10
Info: PERIODIC CELL BASIS 1  32.955 0 0
Info: PERIODIC CELL BASIS 2  0 37.796 0
Info: PERIODIC CELL BASIS 3  0 0 35.723
Info: PERIODIC CELL CENTER   0 0 0
Info: WRAPPING WATERS AROUND PERIODIC BOUNDARIES ON OUTPUT.
Info: WRAPPING ALL CLUSTERS AROUND PERIODIC BOUNDARIES ON OUTPUT.
Info: FIRST LDB TIMESTEP     50
Info: LAST LDB TIMESTEP     -1
Info: HOM BACKGROUND SCALING 1
Info: PME BACKGROUND SCALING 1
Info: MIN ATOMS PER PATCH    40
Info: EMPTY PATCH LOAD       40 ATOMS
Info: INITIAL TEMPERATURE    300
Info: CENTER OF MASS MOVING INITIALLY? NO
Info: DIELECTRIC             1
Info: EXCLUDE                SCALED ONE-FOUR
Info: 1-4 ELECTROSTATICS SCALED BY 0.833333
Info: MODIFIED 1-4 VDW PARAMETERS WILL BE USED
Info: DCD FILENAME           mobley_9460824_equil.dcd
Info: DCD FREQUENCY          100000
Info: DCD FIRST STEP         100000
Info: DCD FILE WILL CONTAIN UNIT CELL DATA
Info: XST FILENAME           mobley_9460824_equil.xst
Info: XST FREQUENCY          100000
Info: NO VELOCITY DCD OUTPUT
Info: NO FORCE DCD OUTPUT
Info: OUTPUT FILENAME        mobley_9460824_equil
Info: BINARY OUTPUT FILES WILL BE USED
Info: RESTART FILENAME       mobley_9460824_equil.restart
Info: RESTART FREQUENCY      100000
Info: BINARY RESTART FILES WILL BE USED
Info: CUTOFF                 9
Info: PAIRLIST DISTANCE      11
Info: PAIRLIST SHRINK RATE   0.01
Info: PAIRLIST GROW RATE     0.01
Info: PAIRLIST TRIGGER       0.3
Info: PAIRLISTS PER CYCLE    2
Info: PAIRLISTS ENABLED
Info: MARGIN                 8
Info: HYDROGEN GROUP CUTOFF  2.5
Info: PATCH DIMENSION        21.5
Info: ENERGY OUTPUT STEPS    100000
Info: ENERGY EVALUATION STEPS    100000
Info: OUTPUT ENERGY PRECISION 4
Info: CROSSTERM ENERGY INCLUDED IN DIHEDRAL
Info: TIMING OUTPUT STEPS    1000000
Info: PRESSURE OUTPUT STEPS  100000
Info: LANGEVIN DYNAMICS ACTIVE
Info: LANGEVIN TEMPERATURE   30
Info: LANGEVIN USING BBK INTEGRATOR
Info: LANGEVIN DAMPING COEFFICIENT IS 1 INVERSE PS
Info: LANGEVIN DYNAMICS APPLIED TO HYDROGENS
Info: LANGEVIN PISTON PRESSURE CONTROL ACTIVE
Info:        TARGET PRESSURE IS 1.01325 BAR
Info:     OSCILLATION PERIOD IS 50 FS
Info:             DECAY TIME IS 25 FS
Info:     PISTON TEMPERATURE IS 300 K
Info:       PRESSURE CONTROL IS GROUP-BASED
Info:    INITIAL STRAIN RATE IS 0 0 0
Info:       CELL FLUCTUATION IS ISOTROPIC
Info: PARTICLE MESH EWALD (PME) ACTIVE
Info: PME TOLERANCE               1e-06
Info: PME EWALD COEFFICIENT       0.348832
Info: PME INTERPOLATION ORDER     4
Info: PME GRID DIMENSIONS         36 40 36
Info: PME MAXIMUM GRID SPACING    1
Info: FULL ELECTROSTATIC EVALUATION FREQUENCY      2
Info: USING VERLET I (r-RESPA) MTS SCHEME.
Info: C1 SPLITTING OF LONG RANGE ELECTROSTATICS
Info: PLACING ATOMS IN PATCHES BY HYDROGEN GROUPS
Info: RIGID BONDS TO HYDROGEN : ALL
Info:         ERROR TOLERANCE : 1e-08
Info:          MAX ITERATIONS : 100
Info: RIGID WATER USING SETTLE ALGORITHM
Info: RANDOM NUMBER SEED     1743264398
Info: USE HYDROGEN BONDS?    NO
Info: Using AMBER format force field!
Info: AMBER PARM FILE        mobley_9460824.prmtop
Info: COORDINATE PDB         mobley_9460824.pdb
Info: Exclusions will be read from PARM file!
Info: SCNB (VDW SCALING)     2
Info: USING ARITHMETIC MEAN TO COMBINE L-J SIGMA PARAMETERS
Info: BINARY COORDINATES     mobley_9460824_min.coor
Info: SUMMARY OF PARAMETERS:
Info: 11 BONDS
Info: 18 ANGLES
Info:   18 HARMONIC
Info:   0 COSINE-BASED
Info: 10 DIHEDRAL
Info: 0 IMPROPER
Info: 0 CROSSTERM
Info: 0 VDW
Info: 45 VDW_PAIRS
Info: 0 NBTHOLE_PAIRS
Info: STRUCTURE SUMMARY:
Info: 2913 ATOMS
Info: 2912 BONDS
Info: 52 ANGLES
Info: 61 DIHEDRALS
Info: 0 IMPROPERS
Info: 0 CROSSTERMS
Info: 3015 EXCLUSIONS
Info: 2900 RIGID BONDS
Info: 5839 DEGREES OF FREEDOM
Info: 974 HYDROGEN GROUPS
Info: 4 ATOMS IN LARGEST HYDROGEN GROUP
Info: 974 MIGRATION GROUPS
Info: 4 ATOMS IN LARGEST MIGRATION GROUP
Info: TOTAL MASS = 17573.7 amu
Info: TOTAL CHARGE = 0.000200013 e
Info: MASS DENSITY = 0.655856 g/cm^3
Info: ATOM DENSITY = 0.0654674 atoms/A^3
Info: ADDED 0 IMPLICIT EXCLUSIONS
Info: NONBONDED TABLE R-SQUARED SPACING: 0.0625
Info: NONBONDED TABLE SIZE: 705 POINTS
Info: REMOVING COM VELOCITY -0.128432 -0.00351531 -0.00173192
TCL: Running for 100000 steps
ETITLE: TS BOND ANGLE DIHED IMPRP ELECT VDW BOUNDARY MISC KINETIC TOTAL TEMP POTENTIAL TOTAL3 TEMPAVG PRESSURE GPRESSURE VOLUME PRESSAVG GPRESSAVG
ENERGY: 0 0.1154 0.8480 33.2192 0.0000 -13469.4963 2356.4099 0.0000 0.0000 1724.9092 -9353.9945 297.3159 -11078.9037 -9353.6695 297.3159 441.6449 485.0871 44495.3964 441.6449 485.0871
ENERGY: 100000 0.3315 3.8580 27.6820 0.0000 -14042.7779 2499.3632 0.0000 0.0000 170.8213 -11340.7219 29.4438 -11511.5432 -11340.4897 30.8787 715.0084 786.3188 29319.1497 3.9062 3.8781
TCL: Running 100000 steps at 60 kelvin.
TCL: Setting parameter langevinTemp to 60
TCL: Running for 100000 steps
ETITLE: TS BOND ANGLE DIHED IMPRP ELECT VDW BOUNDARY MISC KINETIC TOTAL TEMP POTENTIAL TOTAL3 TEMPAVG PRESSURE GPRESSURE VOLUME PRESSAVG GPRESSAVG
ENERGY: 100000 0.3315 3.8580 27.6820 0.0000 -14042.7779 2499.3632 0.0000 0.0000 170.7366 -11340.8066 29.4292 -11511.5432 -11340.4946 29.4292 718.6981 786.2061 29319.1497 718.6981 786.2061
ENERGY: 200000 0.5233 5.8656 27.9330 0.0000 -13842.7756 2347.1277 0.0000 0.0000 350.3136 -11111.0125 60.3822 -11461.3260 -11109.7871 59.9490 -234.3748 -181.5438 29008.7051 3.9014 3.8985
TCL: Running 100000 steps at 90 kelvin.
TCL: Setting parameter langevinTemp to 90
TCL: Running for 100000 steps
ETITLE: TS BOND ANGLE DIHED IMPRP ELECT VDW BOUNDARY MISC KINETIC TOTAL TEMP POTENTIAL TOTAL3 TEMPAVG PRESSURE GPRESSURE VOLUME PRESSAVG GPRESSAVG
ENERGY: 200000 0.5233 5.8656 27.9330 0.0000 -13842.7756 2347.1277 0.0000 0.0000 350.1432 -11111.1829 60.3528 -11461.3260 -11110.4523 60.3528 -231.9345 -181.5541 29008.7051 -231.9345 -181.5541
ENERGY: 300000 1.9768 6.0919 26.8418 0.0000 -13814.5854 2379.6718 0.0000 0.0000 533.0017 -10867.0014 91.8714 -11400.0032 -10865.8750 89.7149 662.9056 686.6458 28309.8234 4.6582 4.6145
TCL: Running 100000 steps at 120 kelvin.
TCL: Setting parameter langevinTemp to 120
TCL: Running for 100000 steps
ETITLE: TS BOND ANGLE DIHED IMPRP ELECT VDW BOUNDARY MISC KINETIC TOTAL TEMP POTENTIAL TOTAL3 TEMPAVG PRESSURE GPRESSURE VOLUME PRESSAVG GPRESSAVG
ENERGY: 300000 1.9768 6.0919 26.8418 0.0000 -13814.5854 2379.6718 0.0000 0.0000 532.7457 -10867.2574 91.8273 -11400.0032 -10866.1146 91.8273 618.0426 686.1902 28309.8234 618.0426 686.1902
ENERGY: 400000 1.2611 5.3251 21.3473 0.0000 -13397.3164 2087.4842 0.0000 0.0000 700.6585 -10581.2402 120.7698 -11281.8987 -10579.1681 119.9979 -1644.8044 -1591.3372 28614.8713 4.4169 4.2219
TCL: Running 100000 steps at 150 kelvin.
TCL: Setting parameter langevinTemp to 150
TCL: Running for 100000 steps
ETITLE: TS BOND ANGLE DIHED IMPRP ELECT VDW BOUNDARY MISC KINETIC TOTAL TEMP POTENTIAL TOTAL3 TEMPAVG PRESSURE GPRESSURE VOLUME PRESSAVG GPRESSAVG
ENERGY: 400000 1.2611 5.3251 21.3473 0.0000 -13397.3164 2087.4842 0.0000 0.0000 700.2948 -10581.6039 120.7071 -11281.8987 -10579.9300 120.7071 -1648.6952 -1590.5297 28614.8713 -1648.6952 -1590.5297
ENERGY: 500000 2.4761 12.4108 20.5884 0.0000 -13322.6685 2152.5392 0.0000 0.0000 869.4940 -10265.1600 149.8713 -11134.6540 -10263.4579 149.8116 -482.2661 -453.0179 28554.9989 3.2062 3.1412
TCL: Running 100000 steps at 180 kelvin.
TCL: Setting parameter langevinTemp to 180
TCL: Running for 100000 steps
ETITLE: TS BOND ANGLE DIHED IMPRP ELECT VDW BOUNDARY MISC KINETIC TOTAL TEMP POTENTIAL TOTAL3 TEMPAVG PRESSURE GPRESSURE VOLUME PRESSAVG GPRESSAVG
ENERGY: 500000 2.4761 12.4108 20.5884 0.0000 -13322.6685 2152.5392 0.0000 0.0000 869.0638 -10265.5902 149.7972 -11134.6540 -10263.7350 149.7972 -494.2863 -453.2822 28554.9989 -494.2863 -453.2822
ENERGY: 600000 2.0229 13.5171 22.0710 0.0000 -13067.5225 2114.7664 0.0000 0.0000 1019.6203 -9895.5250 175.7480 -10915.1452 -9893.3816 179.9017 166.1549 210.4097 28389.5587 3.3768 3.5500
TCL: Running 100000 steps at 210 kelvin.
TCL: Setting parameter langevinTemp to 210
TCL: Running for 100000 steps
ETITLE: TS BOND ANGLE DIHED IMPRP ELECT VDW BOUNDARY MISC KINETIC TOTAL TEMP POTENTIAL TOTAL3 TEMPAVG PRESSURE GPRESSURE VOLUME PRESSAVG GPRESSAVG
ENERGY: 600000 2.0229 13.5171 22.0710 0.0000 -13067.5225 2114.7664 0.0000 0.0000 1019.1093 -9896.0359 175.6599 -10915.1452 -9893.6988 175.6599 158.9653 209.5974 28389.5587 158.9653 209.5974
ENERGY: 700000 2.1738 8.4437 21.9192 0.0000 -12310.0874 1868.7530 0.0000 0.0000 1211.2266 -9197.5710 208.7744 -10408.7976 -9193.6722 209.4307 139.7513 158.7912 28201.7739 3.9994 3.8851
TCL: Running 100000 steps at 240 kelvin.
TCL: Setting parameter langevinTemp to 240
TCL: Running for 100000 steps
ETITLE: TS BOND ANGLE DIHED IMPRP ELECT VDW BOUNDARY MISC KINETIC TOTAL TEMP POTENTIAL TOTAL3 TEMPAVG PRESSURE GPRESSURE VOLUME PRESSAVG GPRESSAVG
ENERGY: 700000 2.1738 8.4437 21.9192 0.0000 -12310.0874 1868.7530 0.0000 0.0000 1210.6323 -9198.1653 208.6720 -10408.7976 -9196.4090 208.6720 69.7696 160.5601 28201.7739 69.7696 160.5601
ENERGY: 800000 1.7128 7.8297 23.6132 0.0000 -11573.5155 1598.3767 0.0000 0.0000 1384.5380 -8557.4451 238.6474 -9941.9831 -8553.0238 239.3923 -787.3199 -717.2215 28849.0968 4.3853 4.3857
TCL: Running 100000 steps at 270 kelvin.
TCL: Setting parameter langevinTemp to 270
TCL: Running for 100000 steps
ETITLE: TS BOND ANGLE DIHED IMPRP ELECT VDW BOUNDARY MISC KINETIC TOTAL TEMP POTENTIAL TOTAL3 TEMPAVG PRESSURE GPRESSURE VOLUME PRESSAVG GPRESSAVG
ENERGY: 800000 1.7128 7.8297 23.6132 0.0000 -11573.5155 1598.3767 0.0000 0.0000 1383.8306 -8558.1525 238.5255 -9941.9831 -8555.3237 238.5255 -812.7012 -715.8661 28849.0968 -812.7012 -715.8661
ENERGY: 900000 3.6137 12.7295 23.4992 0.0000 -11119.1037 1533.2330 0.0000 0.0000 1560.8299 -7985.1984 269.0342 -9546.0283 -7982.5669 269.6591 62.8164 180.1519 29045.8427 2.9178 2.9178
TCL: Running 1000000 steps at 300 kelvin.
TCL: Setting parameter langevinTemp to 300
TCL: Running for 1000000 steps
ETITLE: TS BOND ANGLE DIHED IMPRP ELECT VDW BOUNDARY MISC KINETIC TOTAL TEMP POTENTIAL TOTAL3 TEMPAVG PRESSURE GPRESSURE VOLUME PRESSAVG GPRESSAVG
ENERGY: 900000 3.6137 12.7295 23.4992 0.0000 -11119.1037 1533.2330 0.0000 0.0000 1560.0588 -7985.9695 268.9013 -9546.0283 -7982.9012 268.9013 95.3445 179.1639 29045.8427 95.3445 179.1639
ENERGY: 1100000 3.0496 17.1961 23.6269 0.0000 -10602.2078 1450.0664 0.0000 0.0000 1731.8691 -7376.3997 298.5156 -9108.2688 -7374.9821 300.1199 248.9847 280.7349 30006.9796 3.7754 3.6391
ENERGY: 1300000 2.6154 16.6243 25.8889 0.0000 -10610.5115 1459.8556 0.0000 0.0000 1826.6756 -7278.8517 314.8570 -9105.5273 -7274.0032 300.5249 434.1517 574.0520 30207.6629 3.0803 3.1490
ENERGY: 1500000 1.2583 20.3457 21.6668 0.0000 -10529.3818 1407.8974 0.0000 0.0000 1756.9776 -7321.2360 302.8434 -9078.2136 -7319.8513 300.4813 372.3025 418.6721 29756.7206 2.7407 2.5797
ENERGY: 1700000 4.4604 17.8643 24.9157 0.0000 -10481.5421 1334.5862 0.0000 0.0000 1764.7849 -7334.9306 304.1891 -9099.7155 -7328.8845 299.6857 -580.8892 -562.1109 30356.7079 2.2506 2.1285
ENERGY: 1900000 6.6501 15.3716 20.8354 0.0000 -10604.5721 1451.2610 0.0000 0.0000 1753.8300 -7356.6239 302.3009 -9110.4539 -7355.7948 300.3264 452.7244 627.1480 30130.5171 2.7916 2.7382
TCL: Exiting due to exit command.
