Info: SIMULATION PARAMETERS:
Info: TIMESTEP               2
Info: NUMBER OF STEPS        0
Info: STEPS PER CYCLE        10
Info: PERIODIC CELL BASIS 1  36.592 0 0
Info: PERIODIC CELL BASIS 2  0 34.26 0
Info: PERIODIC CELL BASIS 3  0 0 34.68
Info: PERIODIC CELL CENTER   0 0 0
Info: WRAPPING WATERS AROUND PERIODIC BOUNDARIES ON OUTPUT.
Info: WRAPPING ALL CLUSTERS AROUND PERIODIC BOUNDARIES ON OUTPUT.
Info: FIRST LDB TIMESTEP     50
Info: LAST LDB TIMESTEP     -1
Info: HOM BACKGROUND SCALING 1
Info: PME BACKGROUND SCALING 1
Info: MIN ATOMS PER PATCH    40
Info: EMPTY PATCH LOAD       40 ATOMS
Info: INITIAL TEMPERATURE    300
Info: CENTER OF MASS MOVING INITIALLY? NO
Info: DIELECTRIC             1
Info: EXCLUDE                SCALED ONE-FOUR
Info: 1-4 ELECTROSTATICS SCALED BY 0.833333
Info: MODIFIED 1-4 VDW PARAMETERS WILL BE USED
Info: DCD FILENAME           mobley_8785107_equil.dcd
Info: DCD FREQUENCY          100000
Info: DCD FIRST STEP         100000
Info: DCD FILE WILL CONTAIN UNIT CELL DATA
Info: XST FILENAME           mobley_8785107_equil.xst
Info: XST FREQUENCY          100000
Info: NO VELOCITY DCD OUTPUT
Info: NO FORCE DCD OUTPUT
Info: OUTPUT FILENAME        mobley_8785107_equil
Info: BINARY OUTPUT FILES WILL BE USED
Info: RESTART FILENAME       mobley_8785107_equil.restart
Info: RESTART FREQUENCY      100000
Info: BINARY RESTART FILES WILL BE USED
Info: CUTOFF                 9
Info: PAIRLIST DISTANCE      11
Info: PAIRLIST SHRINK RATE   0.01
Info: PAIRLIST GROW RATE     0.01
Info: PAIRLIST TRIGGER       0.3
Info: PAIRLISTS PER CYCLE    2
Info: PAIRLISTS ENABLED
Info: MARGIN                 8
Info: HYDROGEN GROUP CUTOFF  2.5
Info: PATCH DIMENSION        21.5
Info: ENERGY OUTPUT STEPS    100000
Info: ENERGY EVALUATION STEPS    100000
Info: OUTPUT ENERGY PRECISION 4
Info: CROSSTERM ENERGY INCLUDED IN DIHEDRAL
Info: TIMING OUTPUT STEPS    1000000
Info: PRESSURE OUTPUT STEPS  100000
Info: LANGEVIN DYNAMICS ACTIVE
Info: LANGEVIN TEMPERATURE   30
Info: LANGEVIN USING BBK INTEGRATOR
Info: LANGEVIN DAMPING COEFFICIENT IS 1 INVERSE PS
Info: LANGEVIN DYNAMICS APPLIED TO HYDROGENS
Info: LANGEVIN PISTON PRESSURE CONTROL ACTIVE
Info:        TARGET PRESSURE IS 1.01325 BAR
Info:     OSCILLATION PERIOD IS 50 FS
Info:             DECAY TIME IS 25 FS
Info:     PISTON TEMPERATURE IS 300 K
Info:       PRESSURE CONTROL IS GROUP-BASED
Info:    INITIAL STRAIN RATE IS 0 0 0
Info:       CELL FLUCTUATION IS ISOTROPIC
Info: PARTICLE MESH EWALD (PME) ACTIVE
Info: PME TOLERANCE               1e-06
Info: PME EWALD COEFFICIENT       0.348832
Info: PME INTERPOLATION ORDER     4
Info: PME GRID DIMENSIONS         40 36 36
Info: PME MAXIMUM GRID SPACING    1
Info: FULL ELECTROSTATIC EVALUATION FREQUENCY      2
Info: USING VERLET I (r-RESPA) MTS SCHEME.
Info: C1 SPLITTING OF LONG RANGE ELECTROSTATICS
Info: PLACING ATOMS IN PATCHES BY HYDROGEN GROUPS
Info: RIGID BONDS TO HYDROGEN : ALL
Info:         ERROR TOLERANCE : 1e-08
Info:          MAX ITERATIONS : 100
Info: RIGID WATER USING SETTLE ALGORITHM
Info: RANDOM NUMBER SEED     1743217391
Info: USE HYDROGEN BONDS?    NO
Info: Using AMBER format force field!
Info: AMBER PARM FILE        mobley_8785107.prmtop
Info: COORDINATE PDB         mobley_8785107.pdb
Info: Exclusions will be read from PARM file!
Info: SCNB (VDW SCALING)     2
Info: USING ARITHMETIC MEAN TO COMBINE L-J SIGMA PARAMETERS
Info: BINARY COORDINATES     mobley_8785107_min.coor
Info: SUMMARY OF PARAMETERS:
Info: 6 BONDS
Info: 7 ANGLES
Info:   7 HARMONIC
Info:   0 COSINE-BASED
Info: 11 DIHEDRAL
Info: 0 IMPROPER
Info: 0 CROSSTERM
Info: 0 VDW
Info: 21 VDW_PAIRS
Info: 0 NBTHOLE_PAIRS
Info: STRUCTURE SUMMARY:
Info: 2929 ATOMS
Info: 2929 BONDS
Info: 37 ANGLES
Info: 71 DIHEDRALS
Info: 0 IMPROPERS
Info: 0 CROSSTERMS
Info: 3012 EXCLUSIONS
Info: 2922 RIGID BONDS
Info: 5865 DEGREES OF FREEDOM
Info: 977 HYDROGEN GROUPS
Info: 4 ATOMS IN LARGEST HYDROGEN GROUP
Info: 977 MIGRATION GROUPS
Info: 4 ATOMS IN LARGEST MIGRATION GROUP
Info: TOTAL MASS = 17575.7 amu
Info: TOTAL CHARGE = -0.000500023 e
Info: MASS DENSITY = 0.671303 g/cm^3
Info: ATOM DENSITY = 0.06737 atoms/A^3
Info: ADDED 0 IMPLICIT EXCLUSIONS
Info: NONBONDED TABLE R-SQUARED SPACING: 0.0625
Info: NONBONDED TABLE SIZE: 705 POINTS
Info: REMOVING COM VELOCITY -0.105053 0.121716 0.202645
TCL: Running for 100000 steps
ETITLE: TS BOND ANGLE DIHED IMPRP ELECT VDW BOUNDARY MISC KINETIC TOTAL TEMP POTENTIAL TOTAL3 TEMPAVG PRESSURE GPRESSURE VOLUME PRESSAVG GPRESSAVG
ENERGY: 0 0.0881 3.3590 10.9640 0.0000 -13532.9947 2364.0845 0.0000 0.0000 1747.1876 -9407.3115 299.8209 -11154.4991 -9406.9814 299.8209 310.3916 349.6054 43476.3018 310.3916 349.6054
ENERGY: 100000 0.1781 3.8502 11.6549 0.0000 -13997.6768 2342.8110 0.0000 0.0000 174.1278 -11465.0549 29.8807 -11639.1827 -11464.6233 30.8701 -1053.5879 -985.7257 28911.2467 4.2289 4.2927
TCL: Running 100000 steps at 60 kelvin.
TCL: Setting parameter langevinTemp to 60
TCL: Running for 100000 steps
ETITLE: TS BOND ANGLE DIHED IMPRP ELECT VDW BOUNDARY MISC KINETIC TOTAL TEMP POTENTIAL TOTAL3 TEMPAVG PRESSURE GPRESSURE VOLUME PRESSAVG GPRESSAVG
ENERGY: 100000 0.1781 3.8502 11.6549 0.0000 -13997.6768 2342.8110 0.0000 0.0000 174.0374 -11465.1453 29.8652 -11639.1827 -11464.7235 29.8652 -1054.1073 -985.8297 28911.2467 -1054.1073 -985.8297
ENERGY: 200000 0.3865 4.4715 12.0307 0.0000 -13922.7267 2355.8862 0.0000 0.0000 354.2865 -11195.6653 60.7963 -11549.9518 -11194.4673 60.0360 -489.2866 -426.8576 28731.7573 4.3229 4.2443
TCL: Running 100000 steps at 90 kelvin.
TCL: Setting parameter langevinTemp to 90
TCL: Running for 100000 steps
ETITLE: TS BOND ANGLE DIHED IMPRP ELECT VDW BOUNDARY MISC KINETIC TOTAL TEMP POTENTIAL TOTAL3 TEMPAVG PRESSURE GPRESSURE VOLUME PRESSAVG GPRESSAVG
ENERGY: 200000 0.3865 4.4715 12.0307 0.0000 -13922.7267 2355.8862 0.0000 0.0000 354.1107 -11195.8410 60.7661 -11549.9518 -11195.0810 60.7661 -482.6385 -426.5644 28731.7573 -482.6385 -426.5644
ENERGY: 300000 0.6538 5.1288 11.7486 0.0000 -13800.7702 2328.3531 0.0000 0.0000 531.1677 -10923.7182 91.1494 -11454.8859 -10921.9886 89.8663 -347.3044 -285.1291 28725.0423 4.5984 4.5994
TCL: Running 100000 steps at 120 kelvin.
TCL: Setting parameter langevinTemp to 120
TCL: Running for 100000 steps
ETITLE: TS BOND ANGLE DIHED IMPRP ELECT VDW BOUNDARY MISC KINETIC TOTAL TEMP POTENTIAL TOTAL3 TEMPAVG PRESSURE GPRESSURE VOLUME PRESSAVG GPRESSAVG
ENERGY: 300000 0.6538 5.1288 11.7486 0.0000 -13800.7702 2328.3531 0.0000 0.0000 530.9092 -10923.9766 91.1051 -11454.8859 -10922.8313 91.1051 -337.2679 -284.7997 28725.0423 -337.2679 -284.7997
ENERGY: 400000 1.2386 6.6744 10.9543 0.0000 -13624.1477 2254.9341 0.0000 0.0000 693.6914 -10656.6550 119.0388 -11350.3464 -10655.6091 120.0271 -437.0746 -356.6710 28455.8921 5.3173 5.2914
TCL: Running 100000 steps at 150 kelvin.
TCL: Setting parameter langevinTemp to 150
TCL: Running for 100000 steps
ETITLE: TS BOND ANGLE DIHED IMPRP ELECT VDW BOUNDARY MISC KINETIC TOTAL TEMP POTENTIAL TOTAL3 TEMPAVG PRESSURE GPRESSURE VOLUME PRESSAVG GPRESSAVG
ENERGY: 400000 1.2386 6.6744 10.9543 0.0000 -13624.1477 2254.9341 0.0000 0.0000 693.3588 -10656.9876 118.9818 -11350.3464 -10655.5107 118.9818 -420.4863 -356.1797 28455.8921 -420.4863 -356.1797
ENERGY: 500000 0.6957 7.9338 10.7476 0.0000 -13464.0010 2284.4262 0.0000 0.0000 872.4239 -10287.7738 149.7097 -11160.1977 -10286.2005 149.8064 379.3743 464.5371 28766.9975 5.3597 5.4818
TCL: Running 100000 steps at 180 kelvin.
TCL: Setting parameter langevinTemp to 180
TCL: Running for 100000 steps
ETITLE: TS BOND ANGLE DIHED IMPRP ELECT VDW BOUNDARY MISC KINETIC TOTAL TEMP POTENTIAL TOTAL3 TEMPAVG PRESSURE GPRESSURE VOLUME PRESSAVG GPRESSAVG
ENERGY: 500000 0.6957 7.9338 10.7476 0.0000 -13464.0010 2284.4262 0.0000 0.0000 871.9889 -10288.2088 149.6350 -11160.1977 -10286.4115 149.6350 403.8449 464.5421 28766.9975 403.8449 464.5421
ENERGY: 600000 0.9401 8.2220 10.9579 0.0000 -12992.0962 2073.7822 0.0000 0.0000 1057.4710 -9840.7230 181.4641 -10898.1939 -9838.1543 180.1792 -451.5481 -406.7182 28838.5268 2.3860 2.4562
TCL: Running 100000 steps at 210 kelvin.
TCL: Setting parameter langevinTemp to 210
TCL: Running for 100000 steps
ETITLE: TS BOND ANGLE DIHED IMPRP ELECT VDW BOUNDARY MISC KINETIC TOTAL TEMP POTENTIAL TOTAL3 TEMPAVG PRESSURE GPRESSURE VOLUME PRESSAVG GPRESSAVG
ENERGY: 600000 0.9401 8.2220 10.9579 0.0000 -12992.0962 2073.7822 0.0000 0.0000 1056.9584 -9841.2355 181.3762 -10898.1939 -9839.0415 181.3762 -477.2738 -407.7427 28838.5268 -477.2738 -407.7427
ENERGY: 700000 0.9548 9.3209 11.1559 0.0000 -12365.5258 1903.6393 0.0000 0.0000 1206.9810 -9233.4739 207.1204 -10440.4549 -9230.0818 209.7386 -45.5783 -3.6058 28701.0030 3.6589 3.5276
TCL: Running 100000 steps at 240 kelvin.
TCL: Setting parameter langevinTemp to 240
TCL: Running for 100000 steps
ETITLE: TS BOND ANGLE DIHED IMPRP ELECT VDW BOUNDARY MISC KINETIC TOTAL TEMP POTENTIAL TOTAL3 TEMPAVG PRESSURE GPRESSURE VOLUME PRESSAVG GPRESSAVG
ENERGY: 700000 0.9548 9.3209 11.1559 0.0000 -12365.5258 1903.6393 0.0000 0.0000 1206.3732 -9234.0817 207.0161 -10440.4549 -9231.8222 207.0161 -72.9358 -4.1519 28701.0030 -72.9358 -4.1519
ENERGY: 800000 1.4631 6.0726 11.8706 0.0000 -11704.4841 1713.1358 0.0000 0.0000 1389.8352 -8582.1069 238.4985 -9971.9420 -8579.2499 240.0255 144.1269 247.2588 28795.3180 3.0018 2.7575
TCL: Running 100000 steps at 270 kelvin.
TCL: Setting parameter langevinTemp to 270
TCL: Running for 100000 steps
ETITLE: TS BOND ANGLE DIHED IMPRP ELECT VDW BOUNDARY MISC KINETIC TOTAL TEMP POTENTIAL TOTAL3 TEMPAVG PRESSURE GPRESSURE VOLUME PRESSAVG GPRESSAVG
ENERGY: 800000 1.4631 6.0726 11.8706 0.0000 -11704.4841 1713.1358 0.0000 0.0000 1389.1399 -8582.8021 238.3792 -9971.9420 -8580.5113 238.3792 154.5231 246.8332 28795.3180 154.5231 246.8332
ENERGY: 900000 2.2262 14.0408 10.7159 0.0000 -11041.0368 1457.2607 0.0000 0.0000 1581.9564 -7974.8369 271.4669 -9556.7933 -7969.6284 270.2561 -453.9215 -435.5288 28948.4076 3.0712 2.8801
TCL: Running 1000000 steps at 300 kelvin.
TCL: Setting parameter langevinTemp to 300
TCL: Running for 1000000 steps
ETITLE: TS BOND ANGLE DIHED IMPRP ELECT VDW BOUNDARY MISC KINETIC TOTAL TEMP POTENTIAL TOTAL3 TEMPAVG PRESSURE GPRESSURE VOLUME PRESSAVG GPRESSAVG
ENERGY: 900000 2.2262 14.0408 10.7159 0.0000 -11041.0368 1457.2607 0.0000 0.0000 1581.1882 -7975.6051 271.3351 -9556.7933 -7973.1493 271.3351 -519.6073 -433.4900 28948.4076 -519.6073 -433.4900
ENERGY: 1100000 2.3136 10.5163 11.1331 0.0000 -10663.9145 1470.8788 0.0000 0.0000 1744.0652 -7425.0075 299.2851 -9169.0727 -7423.0653 300.1545 296.9391 375.9641 30192.3368 4.1990 4.1069
ENERGY: 1300000 2.3458 10.3920 13.6095 0.0000 -10573.1240 1392.3862 0.0000 0.0000 1722.6933 -7431.6972 295.6176 -9154.3905 -7427.4928 300.4221 -287.1112 -193.8127 30262.6072 2.3238 2.1720
ENERGY: 1500000 1.7519 10.3032 14.9600 0.0000 -10561.8797 1412.9235 0.0000 0.0000 1712.3291 -7409.6119 293.8391 -9121.9410 -7406.5434 299.8509 -179.2737 -107.4792 30387.2675 3.5063 3.3869
ENERGY: 1700000 1.7333 10.5769 11.5980 0.0000 -10580.1681 1422.9798 0.0000 0.0000 1745.5231 -7387.7570 299.5353 -9133.2801 -7381.0944 299.9502 -62.6478 21.0318 30439.3137 3.5397 3.4429
ENERGY: 1900000 0.7708 13.5777 11.2542 0.0000 -10589.7171 1382.1835 0.0000 0.0000 1804.3385 -7377.5923 309.6281 -9181.9308 -7373.3165 300.2048 -150.3739 -112.5526 29676.2945 3.4032 3.5142
TCL: Exiting due to exit command.
