Info: SIMULATION PARAMETERS:
Info: TIMESTEP               2
Info: NUMBER OF STEPS        0
Info: STEPS PER CYCLE        10
Info: PERIODIC CELL BASIS 1  36.281 0 0
Info: PERIODIC CELL BASIS 2  0 35.411 0
Info: PERIODIC CELL BASIS 3  0 0 34.933
Info: PERIODIC CELL CENTER   0 0 0
Info: WRAPPING WATERS AROUND PERIODIC BOUNDARIES ON OUTPUT.
Info: WRAPPING ALL CLUSTERS AROUND PERIODIC BOUNDARIES ON OUTPUT.
Info: FIRST LDB TIMESTEP     50
Info: LAST LDB TIMESTEP     -1
Info: HOM BACKGROUND SCALING 1
Info: PME BACKGROUND SCALING 1
Info: MIN ATOMS PER PATCH    40
Info: EMPTY PATCH LOAD       40 ATOMS
Info: INITIAL TEMPERATURE    300
Info: CENTER OF MASS MOVING INITIALLY? NO
Info: DIELECTRIC             1
Info: EXCLUDE                SCALED ONE-FOUR
Info: 1-4 ELECTROSTATICS SCALED BY 0.833333
Info: MODIFIED 1-4 VDW PARAMETERS WILL BE USED
Info: DCD FILENAME           mobley_7261305_equil.dcd
Info: DCD FREQUENCY          100000
Info: DCD FIRST STEP         100000
Info: DCD FILE WILL CONTAIN UNIT CELL DATA
Info: XST FILENAME           mobley_7261305_equil.xst
Info: XST FREQUENCY          100000
Info: NO VELOCITY DCD OUTPUT
Info: NO FORCE DCD OUTPUT
Info: OUTPUT FILENAME        mobley_7261305_equil
Info: BINARY OUTPUT FILES WILL BE USED
Info: RESTART FILENAME       mobley_7261305_equil.restart
Info: RESTART FREQUENCY      100000
Info: BINARY RESTART FILES WILL BE USED
Info: CUTOFF                 9
Info: PAIRLIST DISTANCE      11
Info: PAIRLIST SHRINK RATE   0.01
Info: PAIRLIST GROW RATE     0.01
Info: PAIRLIST TRIGGER       0.3
Info: PAIRLISTS PER CYCLE    2
Info: PAIRLISTS ENABLED
Info: MARGIN                 8
Info: HYDROGEN GROUP CUTOFF  2.5
Info: PATCH DIMENSION        21.5
Info: ENERGY OUTPUT STEPS    100000
Info: ENERGY EVALUATION STEPS    100000
Info: OUTPUT ENERGY PRECISION 4
Info: CROSSTERM ENERGY INCLUDED IN DIHEDRAL
Info: TIMING OUTPUT STEPS    1000000
Info: PRESSURE OUTPUT STEPS  100000
Info: LANGEVIN DYNAMICS ACTIVE
Info: LANGEVIN TEMPERATURE   30
Info: LANGEVIN USING BBK INTEGRATOR
Info: LANGEVIN DAMPING COEFFICIENT IS 1 INVERSE PS
Info: LANGEVIN DYNAMICS APPLIED TO HYDROGENS
Info: LANGEVIN PISTON PRESSURE CONTROL ACTIVE
Info:        TARGET PRESSURE IS 1.01325 BAR
Info:     OSCILLATION PERIOD IS 50 FS
Info:             DECAY TIME IS 25 FS
Info:     PISTON TEMPERATURE IS 300 K
Info:       PRESSURE CONTROL IS GROUP-BASED
Info:    INITIAL STRAIN RATE IS 0 0 0
Info:       CELL FLUCTUATION IS ISOTROPIC
Info: PARTICLE MESH EWALD (PME) ACTIVE
Info: PME TOLERANCE               1e-06
Info: PME EWALD COEFFICIENT       0.348832
Info: PME INTERPOLATION ORDER     4
Info: PME GRID DIMENSIONS         40 36 36
Info: PME MAXIMUM GRID SPACING    1
Info: FULL ELECTROSTATIC EVALUATION FREQUENCY      2
Info: USING VERLET I (r-RESPA) MTS SCHEME.
Info: C1 SPLITTING OF LONG RANGE ELECTROSTATICS
Info: PLACING ATOMS IN PATCHES BY HYDROGEN GROUPS
Info: RIGID BONDS TO HYDROGEN : ALL
Info:         ERROR TOLERANCE : 1e-08
Info:          MAX ITERATIONS : 100
Info: RIGID WATER USING SETTLE ALGORITHM
Info: RANDOM NUMBER SEED     1743156226
Info: USE HYDROGEN BONDS?    NO
Info: Using AMBER format force field!
Info: AMBER PARM FILE        mobley_7261305.prmtop
Info: COORDINATE PDB         mobley_7261305.pdb
Info: Exclusions will be read from PARM file!
Info: SCNB (VDW SCALING)     2
Info: USING ARITHMETIC MEAN TO COMBINE L-J SIGMA PARAMETERS
Info: BINARY COORDINATES     mobley_7261305_min.coor
Info: SUMMARY OF PARAMETERS:
Info: 4 BONDS
Info: 2 ANGLES
Info:   2 HARMONIC
Info:   0 COSINE-BASED
Info: 1 DIHEDRAL
Info: 0 IMPROPER
Info: 0 CROSSTERM
Info: 0 VDW
Info: 10 VDW_PAIRS
Info: 0 NBTHOLE_PAIRS
Info: STRUCTURE SUMMARY:
Info: 2970 ATOMS
Info: 2969 BONDS
Info: 6 ANGLES
Info: 4 DIHEDRALS
Info: 0 IMPROPERS
Info: 0 CROSSTERMS
Info: 2979 EXCLUSIONS
Info: 2968 RIGID BONDS
Info: 5942 DEGREES OF FREEDOM
Info: 990 HYDROGEN GROUPS
Info: 3 ATOMS IN LARGEST HYDROGEN GROUP
Info: 990 MIGRATION GROUPS
Info: 3 ATOMS IN LARGEST MIGRATION GROUP
Info: TOTAL MASS = 17831.9 amu
Info: TOTAL CHARGE = -0.000200033 e
Info: MASS DENSITY = 0.659785 g/cm^3
Info: ATOM DENSITY = 0.0661764 atoms/A^3
Info: ADDED 0 IMPLICIT EXCLUSIONS
Info: NONBONDED TABLE R-SQUARED SPACING: 0.0625
Info: NONBONDED TABLE SIZE: 705 POINTS
Info: REMOVING COM VELOCITY 0.0180001 -0.208107 0.152256
TCL: Running for 100000 steps
ETITLE: TS BOND ANGLE DIHED IMPRP ELECT VDW BOUNDARY MISC KINETIC TOTAL TEMP POTENTIAL TOTAL3 TEMPAVG PRESSURE GPRESSURE VOLUME PRESSAVG GPRESSAVG
ENERGY: 0 0.1760 1.1271 7.1590 0.0000 -13750.7772 2435.3424 0.0000 0.0000 1828.8617 -9478.1111 309.7695 -11306.9727 -9477.7597 309.7695 554.6530 592.0168 44880.0492 554.6530 592.0168
ENERGY: 100000 0.2356 0.8969 7.7116 0.0000 -14171.3394 2349.4271 0.0000 0.0000 176.3711 -11636.6971 29.8734 -11813.0681 -11636.3776 30.9204 -1300.0712 -1252.7455 29449.6992 4.2347 4.1750
TCL: Running 100000 steps at 60 kelvin.
TCL: Setting parameter langevinTemp to 60
TCL: Running for 100000 steps
ETITLE: TS BOND ANGLE DIHED IMPRP ELECT VDW BOUNDARY MISC KINETIC TOTAL TEMP POTENTIAL TOTAL3 TEMPAVG PRESSURE GPRESSURE VOLUME PRESSAVG GPRESSAVG
ENERGY: 100000 0.2356 0.8969 7.7116 0.0000 -14171.3394 2349.4271 0.0000 0.0000 176.2827 -11636.7855 29.8585 -11813.0681 -11636.3066 29.8585 -1306.1644 -1253.0869 29449.6992 -1306.1644 -1253.0869
ENERGY: 200000 0.1371 2.3230 7.0914 0.0000 -14151.7305 2446.7137 0.0000 0.0000 352.1603 -11343.3050 59.6483 -11695.4653 -11342.8006 59.9029 1.6743 47.5603 29412.0648 3.7507 3.7481
TCL: Running 100000 steps at 90 kelvin.
TCL: Setting parameter langevinTemp to 90
TCL: Running for 100000 steps
ETITLE: TS BOND ANGLE DIHED IMPRP ELECT VDW BOUNDARY MISC KINETIC TOTAL TEMP POTENTIAL TOTAL3 TEMPAVG PRESSURE GPRESSURE VOLUME PRESSAVG GPRESSAVG
ENERGY: 200000 0.1371 2.3230 7.0914 0.0000 -14151.7305 2446.7137 0.0000 0.0000 351.9829 -11343.4825 59.6183 -11695.4653 -11342.9665 59.6183 1.0815 47.6072 29412.0648 1.0815 47.6072
ENERGY: 300000 0.8225 2.1502 6.6765 0.0000 -14028.4491 2372.3082 0.0000 0.0000 542.7475 -11103.7442 91.9296 -11646.4917 -11101.4782 90.2983 -526.1147 -452.0771 29202.2481 4.2070 4.0705
TCL: Running 100000 steps at 120 kelvin.
TCL: Setting parameter langevinTemp to 120
TCL: Running for 100000 steps
ETITLE: TS BOND ANGLE DIHED IMPRP ELECT VDW BOUNDARY MISC KINETIC TOTAL TEMP POTENTIAL TOTAL3 TEMPAVG PRESSURE GPRESSURE VOLUME PRESSAVG GPRESSAVG
ENERGY: 300000 0.8225 2.1502 6.6765 0.0000 -14028.4491 2372.3082 0.0000 0.0000 542.4876 -11104.0041 91.8856 -11646.4917 -11102.7306 91.8856 -493.4360 -451.2592 29202.2481 -493.4360 -451.2592
ENERGY: 400000 0.0069 4.7467 5.9400 0.0000 -13901.2713 2397.6702 0.0000 0.0000 739.1808 -10753.7267 125.2012 -11492.9074 -10751.9550 120.0239 394.4047 464.6861 28931.2676 3.4164 3.3539
TCL: Running 100000 steps at 150 kelvin.
TCL: Setting parameter langevinTemp to 150
TCL: Running for 100000 steps
ETITLE: TS BOND ANGLE DIHED IMPRP ELECT VDW BOUNDARY MISC KINETIC TOTAL TEMP POTENTIAL TOTAL3 TEMPAVG PRESSURE GPRESSURE VOLUME PRESSAVG GPRESSAVG
ENERGY: 400000 0.0069 4.7467 5.9400 0.0000 -13901.2713 2397.6702 0.0000 0.0000 738.8264 -10754.0811 125.1411 -11492.9074 -10752.7871 125.1411 431.4320 465.2765 28931.2676 431.4320 465.2765
ENERGY: 500000 0.1823 4.0021 6.1599 0.0000 -13543.9606 2236.3470 0.0000 0.0000 875.0123 -10422.2570 148.2081 -11297.2693 -10420.8372 150.2562 -397.5318 -365.6849 29268.2490 4.9795 5.1080
TCL: Running 100000 steps at 180 kelvin.
TCL: Setting parameter langevinTemp to 180
TCL: Running for 100000 steps
ETITLE: TS BOND ANGLE DIHED IMPRP ELECT VDW BOUNDARY MISC KINETIC TOTAL TEMP POTENTIAL TOTAL3 TEMPAVG PRESSURE GPRESSURE VOLUME PRESSAVG GPRESSAVG
ENERGY: 500000 0.1823 4.0021 6.1599 0.0000 -13543.9606 2236.3470 0.0000 0.0000 874.5689 -10422.7004 148.1330 -11297.2693 -10420.4708 148.1330 -419.3682 -367.4182 29268.2490 -419.3682 -367.4182
ENERGY: 600000 0.0741 3.0199 5.8897 0.0000 -13121.0288 2111.2982 0.0000 0.0000 1055.7700 -9944.9769 178.8245 -11000.7469 -9941.8878 179.9827 -172.0484 -161.3642 29123.0606 4.8231 4.8422
TCL: Running 100000 steps at 210 kelvin.
TCL: Setting parameter langevinTemp to 210
TCL: Running for 100000 steps
ETITLE: TS BOND ANGLE DIHED IMPRP ELECT VDW BOUNDARY MISC KINETIC TOTAL TEMP POTENTIAL TOTAL3 TEMPAVG PRESSURE GPRESSURE VOLUME PRESSAVG GPRESSAVG
ENERGY: 600000 0.0741 3.0199 5.8897 0.0000 -13121.0288 2111.2982 0.0000 0.0000 1055.2368 -9945.5101 178.7342 -11000.7469 -9943.5469 178.7342 -228.1831 -162.1347 29123.0606 -228.1831 -162.1347
ENERGY: 700000 0.7088 1.2566 7.9491 0.0000 -12464.5978 1922.1690 0.0000 0.0000 1250.0174 -9282.4970 211.7258 -10532.5144 -9278.2433 210.2700 22.8346 103.8920 29073.2113 3.4607 3.4930
TCL: Running 100000 steps at 240 kelvin.
TCL: Setting parameter langevinTemp to 240
TCL: Running for 100000 steps
ETITLE: TS BOND ANGLE DIHED IMPRP ELECT VDW BOUNDARY MISC KINETIC TOTAL TEMP POTENTIAL TOTAL3 TEMPAVG PRESSURE GPRESSURE VOLUME PRESSAVG GPRESSAVG
ENERGY: 700000 0.7088 1.2566 7.9491 0.0000 -12464.5978 1922.1690 0.0000 0.0000 1249.4137 -9283.1007 211.6236 -10532.5144 -9280.5611 211.6236 41.6249 104.0016 29073.2113 41.6249 104.0016
ENERGY: 800000 0.0967 4.3420 6.2846 0.0000 -11789.3209 1633.5647 0.0000 0.0000 1391.1790 -8753.8539 235.6355 -10145.0329 -8751.8471 240.0826 -645.5817 -516.6131 28793.9703 2.8034 2.6880
TCL: Running 100000 steps at 270 kelvin.
TCL: Setting parameter langevinTemp to 270
TCL: Running for 100000 steps
ETITLE: TS BOND ANGLE DIHED IMPRP ELECT VDW BOUNDARY MISC KINETIC TOTAL TEMP POTENTIAL TOTAL3 TEMPAVG PRESSURE GPRESSURE VOLUME PRESSAVG GPRESSAVG
ENERGY: 800000 0.0967 4.3420 6.2846 0.0000 -11789.3209 1633.5647 0.0000 0.0000 1390.4837 -8754.5492 235.5177 -10145.0329 -8751.8832 235.5177 -610.6100 -516.4055 28793.9703 -610.6100 -516.4055
ENERGY: 900000 0.1700 7.0840 5.5529 0.0000 -11303.7097 1535.8156 0.0000 0.0000 1552.5651 -8202.5221 262.9708 -9755.0872 -8200.8353 270.1844 -596.4738 -547.1335 29774.6097 2.4754 2.3211
TCL: Running 1000000 steps at 300 kelvin.
TCL: Setting parameter langevinTemp to 300
TCL: Running for 1000000 steps
ETITLE: TS BOND ANGLE DIHED IMPRP ELECT VDW BOUNDARY MISC KINETIC TOTAL TEMP POTENTIAL TOTAL3 TEMPAVG PRESSURE GPRESSURE VOLUME PRESSAVG GPRESSAVG
ENERGY: 900000 0.1700 7.0840 5.5529 0.0000 -11303.7097 1535.8156 0.0000 0.0000 1551.7577 -8203.3295 262.8341 -9755.0872 -8201.0147 262.8341 -621.7198 -549.3527 29774.6097 -621.7198 -549.3527
ENERGY: 1100000 0.0320 0.8852 7.9158 0.0000 -10756.9595 1470.1982 0.0000 0.0000 1764.2784 -7513.6498 298.8305 -9277.9282 -7510.0839 299.9293 -72.2702 23.3031 31047.1554 1.7264 1.7810
ENERGY: 1300000 0.0926 6.6591 3.9160 0.0000 -10705.0122 1449.5570 0.0000 0.0000 1774.7139 -7470.0736 300.5980 -9244.7874 -7466.8493 300.3875 17.6441 113.4370 30724.0367 3.1869 3.1275
ENERGY: 1500000 0.1342 4.7427 7.7817 0.0000 -10723.0319 1388.9681 0.0000 0.0000 1783.5699 -7537.8352 302.0980 -9321.4051 -7533.7103 300.1298 -407.5339 -376.8081 30248.0268 2.8130 2.8680
ENERGY: 1700000 0.1433 1.2420 7.7924 0.0000 -10814.7741 1494.8727 0.0000 0.0000 1788.3204 -7522.4033 302.9027 -9310.7237 -7519.3467 300.5900 514.8161 580.8949 30104.0883 3.4581 3.6396
ENERGY: 1900000 2.5299 1.1394 7.9022 0.0000 -10866.6451 1570.2150 0.0000 0.0000 1769.3670 -7515.4915 299.6924 -9284.8585 -7509.5941 299.8995 853.0269 975.1827 30400.1220 2.1615 2.1229
TCL: Exiting due to exit command.
