Info: SIMULATION PARAMETERS:
Info: TIMESTEP               2
Info: NUMBER OF STEPS        0
Info: STEPS PER CYCLE        10
Info: PERIODIC CELL BASIS 1  32.265 0 0
Info: PERIODIC CELL BASIS 2  0 36.762 0
Info: PERIODIC CELL BASIS 3  0 0 36.583
Info: PERIODIC CELL CENTER   0 0 0
Info: WRAPPING WATERS AROUND PERIODIC BOUNDARIES ON OUTPUT.
Info: WRAPPING ALL CLUSTERS AROUND PERIODIC BOUNDARIES ON OUTPUT.
Info: FIRST LDB TIMESTEP     50
Info: LAST LDB TIMESTEP     -1
Info: HOM BACKGROUND SCALING 1
Info: PME BACKGROUND SCALING 1
Info: MIN ATOMS PER PATCH    40
Info: EMPTY PATCH LOAD       40 ATOMS
Info: INITIAL TEMPERATURE    300
Info: CENTER OF MASS MOVING INITIALLY? NO
Info: DIELECTRIC             1
Info: EXCLUDE                SCALED ONE-FOUR
Info: 1-4 ELECTROSTATICS SCALED BY 0.833333
Info: MODIFIED 1-4 VDW PARAMETERS WILL BE USED
Info: DCD FILENAME           mobley_3167746_equil.dcd
Info: DCD FREQUENCY          100000
Info: DCD FIRST STEP         100000
Info: DCD FILE WILL CONTAIN UNIT CELL DATA
Info: XST FILENAME           mobley_3167746_equil.xst
Info: XST FREQUENCY          100000
Info: NO VELOCITY DCD OUTPUT
Info: NO FORCE DCD OUTPUT
Info: OUTPUT FILENAME        mobley_3167746_equil
Info: BINARY OUTPUT FILES WILL BE USED
Info: RESTART FILENAME       mobley_3167746_equil.restart
Info: RESTART FREQUENCY      100000
Info: BINARY RESTART FILES WILL BE USED
Info: CUTOFF                 9
Info: PAIRLIST DISTANCE      11
Info: PAIRLIST SHRINK RATE   0.01
Info: PAIRLIST GROW RATE     0.01
Info: PAIRLIST TRIGGER       0.3
Info: PAIRLISTS PER CYCLE    2
Info: PAIRLISTS ENABLED
Info: MARGIN                 8
Info: HYDROGEN GROUP CUTOFF  2.5
Info: PATCH DIMENSION        21.5
Info: ENERGY OUTPUT STEPS    100000
Info: ENERGY EVALUATION STEPS    100000
Info: OUTPUT ENERGY PRECISION 4
Info: CROSSTERM ENERGY INCLUDED IN DIHEDRAL
Info: TIMING OUTPUT STEPS    1000000
Info: PRESSURE OUTPUT STEPS  100000
Info: LANGEVIN DYNAMICS ACTIVE
Info: LANGEVIN TEMPERATURE   30
Info: LANGEVIN USING BBK INTEGRATOR
Info: LANGEVIN DAMPING COEFFICIENT IS 1 INVERSE PS
Info: LANGEVIN DYNAMICS APPLIED TO HYDROGENS
Info: LANGEVIN PISTON PRESSURE CONTROL ACTIVE
Info:        TARGET PRESSURE IS 1.01325 BAR
Info:     OSCILLATION PERIOD IS 50 FS
Info:             DECAY TIME IS 25 FS
Info:     PISTON TEMPERATURE IS 300 K
Info:       PRESSURE CONTROL IS GROUP-BASED
Info:    INITIAL STRAIN RATE IS 0 0 0
Info:       CELL FLUCTUATION IS ISOTROPIC
Info: PARTICLE MESH EWALD (PME) ACTIVE
Info: PME TOLERANCE               1e-06
Info: PME EWALD COEFFICIENT       0.348832
Info: PME INTERPOLATION ORDER     4
Info: PME GRID DIMENSIONS         36 40 40
Info: PME MAXIMUM GRID SPACING    1
Info: FULL ELECTROSTATIC EVALUATION FREQUENCY      2
Info: USING VERLET I (r-RESPA) MTS SCHEME.
Info: C1 SPLITTING OF LONG RANGE ELECTROSTATICS
Info: PLACING ATOMS IN PATCHES BY HYDROGEN GROUPS
Info: RIGID BONDS TO HYDROGEN : ALL
Info:         ERROR TOLERANCE : 1e-08
Info:          MAX ITERATIONS : 100
Info: RIGID WATER USING SETTLE ALGORITHM
Info: RANDOM NUMBER SEED     1743260346
Info: USE HYDROGEN BONDS?    NO
Info: Using AMBER format force field!
Info: AMBER PARM FILE        mobley_3167746.prmtop
Info: COORDINATE PDB         mobley_3167746.pdb
Info: Exclusions will be read from PARM file!
Info: SCNB (VDW SCALING)     2
Info: USING ARITHMETIC MEAN TO COMBINE L-J SIGMA PARAMETERS
Info: BINARY COORDINATES     mobley_3167746_min.coor
Info: SUMMARY OF PARAMETERS:
Info: 4 BONDS
Info: 3 ANGLES
Info:   3 HARMONIC
Info:   0 COSINE-BASED
Info: 5 DIHEDRAL
Info: 0 IMPROPER
Info: 0 CROSSTERM
Info: 0 VDW
Info: 10 VDW_PAIRS
Info: 0 NBTHOLE_PAIRS
Info: STRUCTURE SUMMARY:
Info: 2900 ATOMS
Info: 2899 BONDS
Info: 48 ANGLES
Info: 73 DIHEDRALS
Info: 0 IMPROPERS
Info: 0 CROSSTERMS
Info: 3010 EXCLUSIONS
Info: 2892 RIGID BONDS
Info: 5808 DEGREES OF FREEDOM
Info: 966 HYDROGEN GROUPS
Info: 4 ATOMS IN LARGEST HYDROGEN GROUP
Info: 966 MIGRATION GROUPS
Info: 4 ATOMS IN LARGEST MIGRATION GROUP
Info: TOTAL MASS = 17373.6 amu
Info: TOTAL CHARGE = 0.000100002 e
Info: MASS DENSITY = 0.664872 g/cm^3
Info: ATOM DENSITY = 0.0668325 atoms/A^3
Info: ADDED 0 IMPLICIT EXCLUSIONS
Info: NONBONDED TABLE R-SQUARED SPACING: 0.0625
Info: NONBONDED TABLE SIZE: 705 POINTS
Info: REMOVING COM VELOCITY -0.0125459 0.129874 0.144562
TCL: Running for 100000 steps
ETITLE: TS BOND ANGLE DIHED IMPRP ELECT VDW BOUNDARY MISC KINETIC TOTAL TEMP POTENTIAL TOTAL3 TEMPAVG PRESSURE GPRESSURE VOLUME PRESSAVG GPRESSAVG
ENERGY: 0 0.0906 0.2651 2.1388 0.0000 -13369.7193 2364.3744 0.0000 0.0000 1787.9475 -9214.9029 309.8265 -11002.8504 -9214.5141 309.8265 484.8212 520.8081 43392.0449 484.8212 520.8081
ENERGY: 100000 0.3442 1.3451 2.2996 0.0000 -13963.1088 2489.8612 0.0000 0.0000 172.5237 -11296.7350 29.8960 -11469.2587 -11296.2252 30.9937 419.6118 492.9069 28747.7398 3.8048 3.7998
TCL: Running 100000 steps at 60 kelvin.
TCL: Setting parameter langevinTemp to 60
TCL: Running for 100000 steps
ETITLE: TS BOND ANGLE DIHED IMPRP ELECT VDW BOUNDARY MISC KINETIC TOTAL TEMP POTENTIAL TOTAL3 TEMPAVG PRESSURE GPRESSURE VOLUME PRESSAVG GPRESSAVG
ENERGY: 100000 0.3442 1.3451 2.2996 0.0000 -13963.1088 2489.8612 0.0000 0.0000 172.4353 -11296.8234 29.8806 -11469.2587 -11296.5264 29.8806 445.6625 493.0575 28747.7398 445.6625 493.0575
ENERGY: 200000 1.0053 3.0445 2.5770 0.0000 -13799.9373 2367.5725 0.0000 0.0000 346.3653 -11079.3727 60.0203 -11425.7381 -11078.1041 59.9878 -188.6629 -136.8459 28427.8630 4.4159 4.4458
TCL: Running 100000 steps at 90 kelvin.
TCL: Setting parameter langevinTemp to 90
TCL: Running for 100000 steps
ETITLE: TS BOND ANGLE DIHED IMPRP ELECT VDW BOUNDARY MISC KINETIC TOTAL TEMP POTENTIAL TOTAL3 TEMPAVG PRESSURE GPRESSURE VOLUME PRESSAVG GPRESSAVG
ENERGY: 200000 1.0053 3.0445 2.5770 0.0000 -13799.9373 2367.5725 0.0000 0.0000 346.1984 -11079.5397 59.9914 -11425.7381 -11078.7451 59.9914 -188.5043 -136.4928 28427.8630 -188.5043 -136.4928
ENERGY: 300000 0.6431 4.8283 2.5832 0.0000 -13643.6107 2332.9891 0.0000 0.0000 523.2528 -10779.3142 90.6725 -11302.5670 -10778.0424 89.9366 75.3619 106.2629 28383.7052 3.7320 3.6927
TCL: Running 100000 steps at 120 kelvin.
TCL: Setting parameter langevinTemp to 120
TCL: Running for 100000 steps
ETITLE: TS BOND ANGLE DIHED IMPRP ELECT VDW BOUNDARY MISC KINETIC TOTAL TEMP POTENTIAL TOTAL3 TEMPAVG PRESSURE GPRESSURE VOLUME PRESSAVG GPRESSAVG
ENERGY: 300000 0.6431 4.8283 2.5832 0.0000 -13643.6107 2332.9891 0.0000 0.0000 523.0010 -10779.5660 90.6288 -11302.5670 -10778.2088 90.6288 38.4606 106.1952 28383.7052 38.4606 106.1952
ENERGY: 400000 1.1820 7.9051 2.3447 0.0000 -13510.6287 2319.1637 0.0000 0.0000 676.1660 -10503.8673 117.1702 -11180.0332 -10502.2030 120.2814 322.3828 366.4704 28543.3250 2.5017 2.5668
TCL: Running 100000 steps at 150 kelvin.
TCL: Setting parameter langevinTemp to 150
TCL: Running for 100000 steps
ETITLE: TS BOND ANGLE DIHED IMPRP ELECT VDW BOUNDARY MISC KINETIC TOTAL TEMP POTENTIAL TOTAL3 TEMPAVG PRESSURE GPRESSURE VOLUME PRESSAVG GPRESSAVG
ENERGY: 400000 1.1820 7.9051 2.3447 0.0000 -13510.6287 2319.1637 0.0000 0.0000 675.8090 -10504.2243 117.1083 -11180.0332 -10502.9827 117.1083 327.1203 366.8286 28543.3250 327.1203 366.8286
ENERGY: 500000 0.7950 6.0913 2.7526 0.0000 -13371.3415 2314.4136 0.0000 0.0000 891.0312 -10156.2577 154.4033 -11047.2889 -10153.8760 149.7116 635.0517 699.9942 28539.3154 3.7271 3.7026
TCL: Running 100000 steps at 180 kelvin.
TCL: Setting parameter langevinTemp to 180
TCL: Running for 100000 steps
ETITLE: TS BOND ANGLE DIHED IMPRP ELECT VDW BOUNDARY MISC KINETIC TOTAL TEMP POTENTIAL TOTAL3 TEMPAVG PRESSURE GPRESSURE VOLUME PRESSAVG GPRESSAVG
ENERGY: 500000 0.7950 6.0913 2.7526 0.0000 -13371.3415 2314.4136 0.0000 0.0000 890.5986 -10156.6903 154.3284 -11047.2889 -10154.8095 154.3284 646.4602 699.6184 28539.3154 646.4602 699.6184
ENERGY: 600000 1.7212 8.4834 3.3197 0.0000 -12784.0700 2015.8928 0.0000 0.0000 1043.7708 -9710.8820 180.8710 -10754.6528 -9708.5329 179.3921 -677.0993 -644.6714 28578.9078 3.6807 3.6037
TCL: Running 100000 steps at 210 kelvin.
TCL: Setting parameter langevinTemp to 210
TCL: Running for 100000 steps
ETITLE: TS BOND ANGLE DIHED IMPRP ELECT VDW BOUNDARY MISC KINETIC TOTAL TEMP POTENTIAL TOTAL3 TEMPAVG PRESSURE GPRESSURE VOLUME PRESSAVG GPRESSAVG
ENERGY: 600000 1.7212 8.4834 3.3197 0.0000 -12784.0700 2015.8928 0.0000 0.0000 1043.2501 -9711.4027 180.7808 -10754.6528 -9708.7344 180.7808 -705.2116 -643.6197 28578.9078 -705.2116 -643.6197
ENERGY: 700000 0.7417 9.9805 3.7520 0.0000 -12091.0989 1814.4156 0.0000 0.0000 1181.9953 -9080.2138 204.8234 -10262.2091 -9077.2695 210.1817 -253.7426 -142.4327 28073.3509 3.9811 4.0017
TCL: Running 100000 steps at 240 kelvin.
TCL: Setting parameter langevinTemp to 240
TCL: Running for 100000 steps
ETITLE: TS BOND ANGLE DIHED IMPRP ELECT VDW BOUNDARY MISC KINETIC TOTAL TEMP POTENTIAL TOTAL3 TEMPAVG PRESSURE GPRESSURE VOLUME PRESSAVG GPRESSAVG
ENERGY: 700000 0.7417 9.9805 3.7520 0.0000 -12091.0989 1814.4156 0.0000 0.0000 1181.4036 -9080.8055 204.7208 -10262.2091 -9078.7822 204.7208 -207.3946 -142.2959 28073.3509 -207.3946 -142.2959
ENERGY: 800000 2.9608 6.3065 5.6325 0.0000 -11519.0800 1670.2725 0.0000 0.0000 1397.1590 -8436.7488 242.1083 -9833.9078 -8434.0636 239.7991 147.5549 234.1512 28436.5316 3.6936 3.7154
TCL: Running 100000 steps at 270 kelvin.
TCL: Setting parameter langevinTemp to 270
TCL: Running for 100000 steps
ETITLE: TS BOND ANGLE DIHED IMPRP ELECT VDW BOUNDARY MISC KINETIC TOTAL TEMP POTENTIAL TOTAL3 TEMPAVG PRESSURE GPRESSURE VOLUME PRESSAVG GPRESSAVG
ENERGY: 800000 2.9608 6.3065 5.6325 0.0000 -11519.0800 1670.2725 0.0000 0.0000 1396.4707 -8437.4370 241.9890 -9833.9078 -8434.8894 241.9890 159.0402 232.7685 28436.5316 159.0402 232.7685
ENERGY: 900000 2.6535 10.7908 3.8819 0.0000 -10953.9914 1489.6377 0.0000 0.0000 1609.3080 -7837.7195 278.8707 -9447.0275 -7833.7603 270.1915 -496.4109 -419.7648 29303.3430 2.5833 2.6404
TCL: Running 1000000 steps at 300 kelvin.
TCL: Setting parameter langevinTemp to 300
TCL: Running for 1000000 steps
ETITLE: TS BOND ANGLE DIHED IMPRP ELECT VDW BOUNDARY MISC KINETIC TOTAL TEMP POTENTIAL TOTAL3 TEMPAVG PRESSURE GPRESSURE VOLUME PRESSAVG GPRESSAVG
ENERGY: 900000 2.6535 10.7908 3.8819 0.0000 -10953.9914 1489.6377 0.0000 0.0000 1608.5370 -7838.4905 278.7371 -9447.0275 -7835.8898 278.7371 -505.2736 -421.2119 29303.3430 -505.2736 -421.2119
ENERGY: 1100000 1.4495 10.9695 3.6643 0.0000 -10299.6549 1316.5898 0.0000 0.0000 1808.6863 -7158.2955 313.4202 -8966.9818 -7154.7113 300.3242 -565.3552 -438.8372 30138.5232 3.8855 3.8225
ENERGY: 1300000 1.8463 11.0482 2.8644 0.0000 -10442.0348 1352.0429 0.0000 0.0000 1719.5859 -7354.6472 297.9804 -9074.2330 -7353.3504 301.2578 -385.4700 -325.3374 29793.8529 3.5369 3.5784
ENERGY: 1500000 1.3845 11.2344 4.3990 0.0000 -10353.5986 1421.4583 0.0000 0.0000 1742.3975 -7172.7250 301.9333 -8915.1225 -7167.0912 299.7124 704.2336 772.0665 29538.1515 2.9815 3.0261
ENERGY: 1700000 0.8391 14.1278 4.0390 0.0000 -10532.3253 1400.4758 0.0000 0.0000 1771.7289 -7341.1147 307.0160 -9112.8436 -7338.3348 300.5459 -443.6908 -334.2217 30140.7797 2.8716 2.8491
ENERGY: 1900000 2.1813 16.7029 6.1341 0.0000 -10510.4387 1423.3752 0.0000 0.0000 1765.8924 -7296.1528 306.0046 -9062.0452 -7294.2351 299.9882 -56.6387 88.4318 29963.4268 3.8247 3.7133
TCL: Exiting due to exit command.
