Info: SIMULATION PARAMETERS:
Info: TIMESTEP               2
Info: NUMBER OF STEPS        0
Info: STEPS PER CYCLE        10
Info: PERIODIC CELL BASIS 1  34.647 0 0
Info: PERIODIC CELL BASIS 2  0 32.293 0
Info: PERIODIC CELL BASIS 3  0 0 39.527
Info: PERIODIC CELL CENTER   0 0 0
Info: WRAPPING WATERS AROUND PERIODIC BOUNDARIES ON OUTPUT.
Info: WRAPPING ALL CLUSTERS AROUND PERIODIC BOUNDARIES ON OUTPUT.
Info: FIRST LDB TIMESTEP     50
Info: LAST LDB TIMESTEP     -1
Info: HOM BACKGROUND SCALING 1
Info: PME BACKGROUND SCALING 1
Info: MIN ATOMS PER PATCH    40
Info: EMPTY PATCH LOAD       40 ATOMS
Info: INITIAL TEMPERATURE    300
Info: CENTER OF MASS MOVING INITIALLY? NO
Info: DIELECTRIC             1
Info: EXCLUDE                SCALED ONE-FOUR
Info: 1-4 ELECTROSTATICS SCALED BY 0.833333
Info: MODIFIED 1-4 VDW PARAMETERS WILL BE USED
Info: DCD FILENAME           mobley_1328936_equil.dcd
Info: DCD FREQUENCY          100000
Info: DCD FIRST STEP         100000
Info: DCD FILE WILL CONTAIN UNIT CELL DATA
Info: XST FILENAME           mobley_1328936_equil.xst
Info: XST FREQUENCY          100000
Info: NO VELOCITY DCD OUTPUT
Info: NO FORCE DCD OUTPUT
Info: OUTPUT FILENAME        mobley_1328936_equil
Info: BINARY OUTPUT FILES WILL BE USED
Info: RESTART FILENAME       mobley_1328936_equil.restart
Info: RESTART FREQUENCY      100000
Info: BINARY RESTART FILES WILL BE USED
Info: CUTOFF                 9
Info: PAIRLIST DISTANCE      11
Info: PAIRLIST SHRINK RATE   0.01
Info: PAIRLIST GROW RATE     0.01
Info: PAIRLIST TRIGGER       0.3
Info: PAIRLISTS PER CYCLE    2
Info: PAIRLISTS ENABLED
Info: MARGIN                 8
Info: HYDROGEN GROUP CUTOFF  2.5
Info: PATCH DIMENSION        21.5
Info: ENERGY OUTPUT STEPS    100000
Info: ENERGY EVALUATION STEPS    100000
Info: OUTPUT ENERGY PRECISION 4
Info: CROSSTERM ENERGY INCLUDED IN DIHEDRAL
Info: TIMING OUTPUT STEPS    1000000
Info: PRESSURE OUTPUT STEPS  100000
Info: LANGEVIN DYNAMICS ACTIVE
Info: LANGEVIN TEMPERATURE   30
Info: LANGEVIN USING BBK INTEGRATOR
Info: LANGEVIN DAMPING COEFFICIENT IS 1 INVERSE PS
Info: LANGEVIN DYNAMICS APPLIED TO HYDROGENS
Info: LANGEVIN PISTON PRESSURE CONTROL ACTIVE
Info:        TARGET PRESSURE IS 1.01325 BAR
Info:     OSCILLATION PERIOD IS 50 FS
Info:             DECAY TIME IS 25 FS
Info:     PISTON TEMPERATURE IS 300 K
Info:       PRESSURE CONTROL IS GROUP-BASED
Info:    INITIAL STRAIN RATE IS 0 0 0
Info:       CELL FLUCTUATION IS ISOTROPIC
Info: PARTICLE MESH EWALD (PME) ACTIVE
Info: PME TOLERANCE               1e-06
Info: PME EWALD COEFFICIENT       0.348832
Info: PME INTERPOLATION ORDER     4
Info: PME GRID DIMENSIONS         36 36 40
Info: PME MAXIMUM GRID SPACING    1
Info: FULL ELECTROSTATIC EVALUATION FREQUENCY      2
Info: USING VERLET I (r-RESPA) MTS SCHEME.
Info: C1 SPLITTING OF LONG RANGE ELECTROSTATICS
Info: PLACING ATOMS IN PATCHES BY HYDROGEN GROUPS
Info: RIGID BONDS TO HYDROGEN : ALL
Info:         ERROR TOLERANCE : 1e-08
Info:          MAX ITERATIONS : 100
Info: RIGID WATER USING SETTLE ALGORITHM
Info: RANDOM NUMBER SEED     1743242840
Info: USE HYDROGEN BONDS?    NO
Info: Using AMBER format force field!
Info: AMBER PARM FILE        mobley_1328936.prmtop
Info: COORDINATE PDB         mobley_1328936.pdb
Info: Exclusions will be read from PARM file!
Info: SCNB (VDW SCALING)     2
Info: USING ARITHMETIC MEAN TO COMBINE L-J SIGMA PARAMETERS
Info: BINARY COORDINATES     mobley_1328936_min.coor
Info: SUMMARY OF PARAMETERS:
Info: 11 BONDS
Info: 12 ANGLES
Info:   12 HARMONIC
Info:   0 COSINE-BASED
Info: 7 DIHEDRAL
Info: 0 IMPROPER
Info: 0 CROSSTERM
Info: 0 VDW
Info: 45 VDW_PAIRS
Info: 0 NBTHOLE_PAIRS
Info: STRUCTURE SUMMARY:
Info: 2984 ATOMS
Info: 2984 BONDS
Info: 31 ANGLES
Info: 45 DIHEDRALS
Info: 0 IMPROPERS
Info: 0 CROSSTERMS
Info: 3049 EXCLUSIONS
Info: 2971 RIGID BONDS
Info: 5981 DEGREES OF FREEDOM
Info: 1001 HYDROGEN GROUPS
Info: 4 ATOMS IN LARGEST HYDROGEN GROUP
Info: 1001 MIGRATION GROUPS
Info: 4 ATOMS IN LARGEST MIGRATION GROUP
Info: TOTAL MASS = 17981 amu
Info: TOTAL CHARGE = 9.99682e-05 e
Info: MASS DENSITY = 0.675156 g/cm^3
Info: ATOM DENSITY = 0.0674731 atoms/A^3
Info: ADDED 0 IMPLICIT EXCLUSIONS
Info: NONBONDED TABLE R-SQUARED SPACING: 0.0625
Info: NONBONDED TABLE SIZE: 705 POINTS
Info: REMOVING COM VELOCITY 0.0544998 0.0405195 0.164963
TCL: Running for 100000 steps
ETITLE: TS BOND ANGLE DIHED IMPRP ELECT VDW BOUNDARY MISC KINETIC TOTAL TEMP POTENTIAL TOTAL3 TEMPAVG PRESSURE GPRESSURE VOLUME PRESSAVG GPRESSAVG
ENERGY: 0 0.5102 0.5831 1.4308 0.0000 -13759.8623 2440.9670 0.0000 0.0000 1770.4953 -9545.8759 297.9280 -11316.3712 -9545.5526 297.9280 581.7644 615.1200 44225.0042 581.7644 615.1200
ENERGY: 100000 1.0285 0.9973 1.8870 0.0000 -14302.6708 2452.1226 0.0000 0.0000 180.4968 -11666.1386 30.3729 -11846.6354 -11665.7838 30.8882 -93.8295 -22.0825 28800.4805 4.1319 4.1606
TCL: Running 100000 steps at 60 kelvin.
TCL: Setting parameter langevinTemp to 60
TCL: Running for 100000 steps
ETITLE: TS BOND ANGLE DIHED IMPRP ELECT VDW BOUNDARY MISC KINETIC TOTAL TEMP POTENTIAL TOTAL3 TEMPAVG PRESSURE GPRESSURE VOLUME PRESSAVG GPRESSAVG
ENERGY: 100000 1.0285 0.9973 1.8870 0.0000 -14302.6708 2452.1226 0.0000 0.0000 180.4100 -11666.2254 30.3583 -11846.6354 -11665.8252 30.3583 -90.8890 -22.2601 28800.4805 -90.8890 -22.2601
ENERGY: 200000 1.4039 2.4126 1.8473 0.0000 -14278.1412 2478.1624 0.0000 0.0000 370.2759 -11424.0391 62.3077 -11794.3150 -11423.4269 60.0454 524.2996 606.6033 28278.4637 3.9377 3.9662
TCL: Running 100000 steps at 90 kelvin.
TCL: Setting parameter langevinTemp to 90
TCL: Running for 100000 steps
ETITLE: TS BOND ANGLE DIHED IMPRP ELECT VDW BOUNDARY MISC KINETIC TOTAL TEMP POTENTIAL TOTAL3 TEMPAVG PRESSURE GPRESSURE VOLUME PRESSAVG GPRESSAVG
ENERGY: 200000 1.4039 2.4126 1.8473 0.0000 -14278.1412 2478.1624 0.0000 0.0000 370.1034 -11424.2116 62.2787 -11794.3150 -11423.5360 62.2787 547.5862 606.5947 28278.4637 547.5862 606.5947
ENERGY: 300000 1.8857 2.9513 1.7841 0.0000 -14048.0510 2363.9261 0.0000 0.0000 535.7689 -11141.7348 90.1559 -11677.5038 -11140.9625 89.9552 -187.4975 -141.5745 28759.1313 4.7398 4.7437
TCL: Running 100000 steps at 120 kelvin.
TCL: Setting parameter langevinTemp to 120
TCL: Running for 100000 steps
ETITLE: TS BOND ANGLE DIHED IMPRP ELECT VDW BOUNDARY MISC KINETIC TOTAL TEMP POTENTIAL TOTAL3 TEMPAVG PRESSURE GPRESSURE VOLUME PRESSAVG GPRESSAVG
ENERGY: 300000 1.8857 2.9513 1.7841 0.0000 -14048.0510 2363.9261 0.0000 0.0000 535.5054 -11141.9984 90.1115 -11677.5038 -11141.0103 90.1115 -203.2532 -141.6034 28759.1313 -203.2532 -141.6034
ENERGY: 400000 1.7248 2.5440 1.4284 0.0000 -13863.2523 2278.8074 0.0000 0.0000 716.6514 -10862.0962 120.5937 -11578.7476 -10859.8740 120.1580 -574.6256 -506.3260 28989.5336 3.2368 3.1678
TCL: Running 100000 steps at 150 kelvin.
TCL: Setting parameter langevinTemp to 150
TCL: Running for 100000 steps
ETITLE: TS BOND ANGLE DIHED IMPRP ELECT VDW BOUNDARY MISC KINETIC TOTAL TEMP POTENTIAL TOTAL3 TEMPAVG PRESSURE GPRESSURE VOLUME PRESSAVG GPRESSAVG
ENERGY: 400000 1.7248 2.5440 1.4284 0.0000 -13863.2523 2278.8074 0.0000 0.0000 716.2901 -10862.4575 120.5329 -11578.7476 -10860.9644 120.5329 -555.9840 -505.6872 28989.5336 -555.9840 -505.6872
ENERGY: 500000 2.5569 4.1022 2.1559 0.0000 -13682.7903 2314.1546 0.0000 0.0000 911.7422 -10448.0785 153.4224 -11359.8207 -10445.1959 150.0922 522.3739 572.7915 28807.8431 4.3284 4.3928
TCL: Running 100000 steps at 180 kelvin.
TCL: Setting parameter langevinTemp to 180
TCL: Running for 100000 steps
ETITLE: TS BOND ANGLE DIHED IMPRP ELECT VDW BOUNDARY MISC KINETIC TOTAL TEMP POTENTIAL TOTAL3 TEMPAVG PRESSURE GPRESSURE VOLUME PRESSAVG GPRESSAVG
ENERGY: 500000 2.5569 4.1022 2.1559 0.0000 -13682.7903 2314.1546 0.0000 0.0000 911.2898 -10448.5309 153.3462 -11359.8207 -10446.6127 153.3462 513.3320 573.7494 28807.8431 513.3320 573.7494
ENERGY: 600000 4.2610 4.1997 2.0547 0.0000 -13240.7157 2144.6953 0.0000 0.0000 1078.7645 -10006.7406 181.5278 -11085.5051 -10004.3634 180.2214 -338.0493 -291.8959 29716.1779 3.5749 3.5729
TCL: Running 100000 steps at 210 kelvin.
TCL: Setting parameter langevinTemp to 210
TCL: Running for 100000 steps
ETITLE: TS BOND ANGLE DIHED IMPRP ELECT VDW BOUNDARY MISC KINETIC TOTAL TEMP POTENTIAL TOTAL3 TEMPAVG PRESSURE GPRESSURE VOLUME PRESSAVG GPRESSAVG
ENERGY: 600000 4.2610 4.1997 2.0547 0.0000 -13240.7157 2144.6953 0.0000 0.0000 1078.2410 -10007.2640 181.4397 -11085.5051 -10005.4885 181.4397 -337.4819 -292.3143 29716.1779 -337.4819 -292.3143
ENERGY: 700000 3.2788 5.8349 3.7226 0.0000 -12405.4705 1831.2222 0.0000 0.0000 1227.3260 -9334.0861 206.5268 -10561.4121 -9332.0991 210.1534 -707.1414 -656.8713 29426.4213 2.4838 2.4060
TCL: Running 100000 steps at 240 kelvin.
TCL: Setting parameter langevinTemp to 240
TCL: Running for 100000 steps
ETITLE: TS BOND ANGLE DIHED IMPRP ELECT VDW BOUNDARY MISC KINETIC TOTAL TEMP POTENTIAL TOTAL3 TEMPAVG PRESSURE GPRESSURE VOLUME PRESSAVG GPRESSAVG
ENERGY: 700000 3.2788 5.8349 3.7226 0.0000 -12405.4705 1831.2222 0.0000 0.0000 1226.6969 -9334.7152 206.4210 -10561.4121 -9332.5567 206.4210 -737.1452 -657.2510 29426.4213 -737.1452 -657.2510
ENERGY: 800000 3.2174 2.4607 2.0964 0.0000 -12032.5777 1783.5074 0.0000 0.0000 1434.2074 -8807.0884 241.3396 -10241.2958 -8803.9933 239.6215 254.7633 298.3258 29215.0525 3.6800 3.5994
TCL: Running 100000 steps at 270 kelvin.
TCL: Setting parameter langevinTemp to 270
TCL: Running for 100000 steps
ETITLE: TS BOND ANGLE DIHED IMPRP ELECT VDW BOUNDARY MISC KINETIC TOTAL TEMP POTENTIAL TOTAL3 TEMPAVG PRESSURE GPRESSURE VOLUME PRESSAVG GPRESSAVG
ENERGY: 800000 3.2174 2.4607 2.0964 0.0000 -12032.5777 1783.5074 0.0000 0.0000 1433.4707 -8807.8251 241.2156 -10241.2958 -8805.4925 241.2156 227.1929 298.3610 29215.0525 227.1929 298.3610
ENERGY: 900000 3.7075 5.9614 2.9047 0.0000 -11470.1333 1657.0317 0.0000 0.0000 1582.8164 -8217.7114 266.3466 -9800.5279 -8214.4535 270.1901 529.7952 556.5255 29518.8325 4.1968 4.1109
TCL: Running 1000000 steps at 300 kelvin.
TCL: Setting parameter langevinTemp to 300
TCL: Running for 1000000 steps
ETITLE: TS BOND ANGLE DIHED IMPRP ELECT VDW BOUNDARY MISC KINETIC TOTAL TEMP POTENTIAL TOTAL3 TEMPAVG PRESSURE GPRESSURE VOLUME PRESSAVG GPRESSAVG
ENERGY: 900000 3.7075 5.9614 2.9047 0.0000 -11470.1333 1657.0317 0.0000 0.0000 1582.0051 -8218.5228 266.2101 -9800.5279 -8216.2941 266.2101 469.0520 555.4056 29518.8325 469.0520 555.4056
ENERGY: 1100000 4.4676 9.9350 4.0530 0.0000 -10866.4264 1457.6010 0.0000 0.0000 1864.2131 -7526.1567 313.6983 -9390.3698 -7522.1612 300.5555 -170.1500 -97.7865 30666.8377 4.0685 3.9294
ENERGY: 1300000 6.4927 9.0196 5.6161 0.0000 -10531.5002 1299.9756 0.0000 0.0000 1738.3134 -7472.0827 292.5127 -9210.3961 -7467.4556 300.5093 -1357.4344 -1275.8420 31557.0389 2.9347 2.7959
ENERGY: 1500000 3.9639 7.1641 5.7098 0.0000 -10717.2633 1394.1984 0.0000 0.0000 1782.3744 -7523.8527 299.9270 -9306.2271 -7518.8333 300.3004 -224.5458 -129.2966 30795.6543 2.8485 2.7406
ENERGY: 1700000 5.8298 8.0454 2.3603 0.0000 -10696.7551 1386.5346 0.0000 0.0000 1803.9476 -7490.0375 303.5572 -9293.9850 -7485.4966 300.1865 -421.0381 -394.6307 30905.2463 2.7933 2.8153
ENERGY: 1900000 5.6799 8.5489 2.3870 0.0000 -10705.9767 1393.6204 0.0000 0.0000 1809.5740 -7486.1665 304.5040 -9295.7406 -7483.2082 300.1519 -432.7916 -333.8563 31031.0180 3.4003 3.5469
TCL: Exiting due to exit command.
