Info: SIMULATION PARAMETERS:
Info: TIMESTEP               2
Info: NUMBER OF STEPS        0
Info: STEPS PER CYCLE        10
Info: PERIODIC CELL BASIS 1  36.592 0 0
Info: PERIODIC CELL BASIS 2  0 34.26 0
Info: PERIODIC CELL BASIS 3  0 0 35.644
Info: PERIODIC CELL CENTER   0 0 0
Info: WRAPPING WATERS AROUND PERIODIC BOUNDARIES ON OUTPUT.
Info: WRAPPING ALL CLUSTERS AROUND PERIODIC BOUNDARIES ON OUTPUT.
Info: FIRST LDB TIMESTEP     50
Info: LAST LDB TIMESTEP     -1
Info: HOM BACKGROUND SCALING 1
Info: PME BACKGROUND SCALING 1
Info: MIN ATOMS PER PATCH    40
Info: EMPTY PATCH LOAD       40 ATOMS
Info: INITIAL TEMPERATURE    300
Info: CENTER OF MASS MOVING INITIALLY? NO
Info: DIELECTRIC             1
Info: EXCLUDE                SCALED ONE-FOUR
Info: 1-4 ELECTROSTATICS SCALED BY 0.833333
Info: MODIFIED 1-4 VDW PARAMETERS WILL BE USED
Info: DCD FILENAME           mobley_1803862_equil.dcd
Info: DCD FREQUENCY          100000
Info: DCD FIRST STEP         100000
Info: DCD FILE WILL CONTAIN UNIT CELL DATA
Info: XST FILENAME           mobley_1803862_equil.xst
Info: XST FREQUENCY          100000
Info: NO VELOCITY DCD OUTPUT
Info: NO FORCE DCD OUTPUT
Info: OUTPUT FILENAME        mobley_1803862_equil
Info: BINARY OUTPUT FILES WILL BE USED
Info: RESTART FILENAME       mobley_1803862_equil.restart
Info: RESTART FREQUENCY      100000
Info: BINARY RESTART FILES WILL BE USED
Info: CUTOFF                 9
Info: PAIRLIST DISTANCE      11
Info: PAIRLIST SHRINK RATE   0.01
Info: PAIRLIST GROW RATE     0.01
Info: PAIRLIST TRIGGER       0.3
Info: PAIRLISTS PER CYCLE    2
Info: PAIRLISTS ENABLED
Info: MARGIN                 8
Info: HYDROGEN GROUP CUTOFF  2.5
Info: PATCH DIMENSION        21.5
Info: ENERGY OUTPUT STEPS    100000
Info: ENERGY EVALUATION STEPS    100000
Info: OUTPUT ENERGY PRECISION 4
Info: CROSSTERM ENERGY INCLUDED IN DIHEDRAL
Info: TIMING OUTPUT STEPS    1000000
Info: PRESSURE OUTPUT STEPS  100000
Info: LANGEVIN DYNAMICS ACTIVE
Info: LANGEVIN TEMPERATURE   30
Info: LANGEVIN USING BBK INTEGRATOR
Info: LANGEVIN DAMPING COEFFICIENT IS 1 INVERSE PS
Info: LANGEVIN DYNAMICS APPLIED TO HYDROGENS
Info: LANGEVIN PISTON PRESSURE CONTROL ACTIVE
Info:        TARGET PRESSURE IS 1.01325 BAR
Info:     OSCILLATION PERIOD IS 50 FS
Info:             DECAY TIME IS 25 FS
Info:     PISTON TEMPERATURE IS 300 K
Info:       PRESSURE CONTROL IS GROUP-BASED
Info:    INITIAL STRAIN RATE IS 0 0 0
Info:       CELL FLUCTUATION IS ISOTROPIC
Info: PARTICLE MESH EWALD (PME) ACTIVE
Info: PME TOLERANCE               1e-06
Info: PME EWALD COEFFICIENT       0.348832
Info: PME INTERPOLATION ORDER     4
Info: PME GRID DIMENSIONS         40 36 36
Info: PME MAXIMUM GRID SPACING    1
Info: FULL ELECTROSTATIC EVALUATION FREQUENCY      2
Info: USING VERLET I (r-RESPA) MTS SCHEME.
Info: C1 SPLITTING OF LONG RANGE ELECTROSTATICS
Info: PLACING ATOMS IN PATCHES BY HYDROGEN GROUPS
Info: RIGID BONDS TO HYDROGEN : ALL
Info:         ERROR TOLERANCE : 1e-08
Info:          MAX ITERATIONS : 100
Info: RIGID WATER USING SETTLE ALGORITHM
Info: RANDOM NUMBER SEED     1743230650
Info: USE HYDROGEN BONDS?    NO
Info: Using AMBER format force field!
Info: AMBER PARM FILE        mobley_1803862.prmtop
Info: COORDINATE PDB         mobley_1803862.pdb
Info: Exclusions will be read from PARM file!
Info: SCNB (VDW SCALING)     2
Info: USING ARITHMETIC MEAN TO COMBINE L-J SIGMA PARAMETERS
Info: BINARY COORDINATES     mobley_1803862_min.coor
Info: SUMMARY OF PARAMETERS:
Info: 4 BONDS
Info: 3 ANGLES
Info:   3 HARMONIC
Info:   0 COSINE-BASED
Info: 5 DIHEDRAL
Info: 0 IMPROPER
Info: 0 CROSSTERM
Info: 0 VDW
Info: 10 VDW_PAIRS
Info: 0 NBTHOLE_PAIRS
Info: STRUCTURE SUMMARY:
Info: 2948 ATOMS
Info: 2947 BONDS
Info: 30 ANGLES
Info: 40 DIHEDRALS
Info: 0 IMPROPERS
Info: 0 CROSSTERMS
Info: 3013 EXCLUSIONS
Info: 2943 RIGID BONDS
Info: 5901 DEGREES OF FREEDOM
Info: 982 HYDROGEN GROUPS
Info: 4 ATOMS IN LARGEST HYDROGEN GROUP
Info: 982 MIGRATION GROUPS
Info: 4 ATOMS IN LARGEST MIGRATION GROUP
Info: TOTAL MASS = 17673.8 amu
Info: TOTAL CHARGE = -0.000100005 e
Info: MASS DENSITY = 0.656793 g/cm^3
Info: ATOM DENSITY = 0.0659732 atoms/A^3
Info: ADDED 0 IMPLICIT EXCLUSIONS
Info: NONBONDED TABLE R-SQUARED SPACING: 0.0625
Info: NONBONDED TABLE SIZE: 705 POINTS
Info: REMOVING COM VELOCITY 0.169623 0.0897804 0.141089
TCL: Running for 100000 steps
ETITLE: TS BOND ANGLE DIHED IMPRP ELECT VDW BOUNDARY MISC KINETIC TOTAL TEMP POTENTIAL TOTAL3 TEMPAVG PRESSURE GPRESSURE VOLUME PRESSAVG GPRESSAVG
ENERGY: 0 0.1106 0.6656 1.0291 0.0000 -13534.4752 2356.6444 0.0000 0.0000 1775.4619 -9400.5636 302.8141 -11176.0256 -9400.1928 302.8141 327.9630 352.6722 44684.8126 327.9630 352.6722
ENERGY: 100000 0.0985 1.2434 0.9935 0.0000 -14162.5675 2460.1369 0.0000 0.0000 176.6465 -11523.4487 30.1280 -11700.0952 -11522.9204 30.9059 -114.3554 -82.9049 29130.0014 4.6653 4.6595
TCL: Running 100000 steps at 60 kelvin.
TCL: Setting parameter langevinTemp to 60
TCL: Running for 100000 steps
ETITLE: TS BOND ANGLE DIHED IMPRP ELECT VDW BOUNDARY MISC KINETIC TOTAL TEMP POTENTIAL TOTAL3 TEMPAVG PRESSURE GPRESSURE VOLUME PRESSAVG GPRESSAVG
ENERGY: 100000 0.0985 1.2434 0.9935 0.0000 -14162.5675 2460.1369 0.0000 0.0000 176.5595 -11523.5357 30.1131 -11700.0952 -11523.2074 30.1131 -137.7444 -82.6712 29130.0014 -137.7444 -82.6712
ENERGY: 200000 0.6691 2.8674 1.0970 0.0000 -14064.8922 2437.4644 0.0000 0.0000 358.3053 -11264.4889 61.1108 -11622.7942 -11263.2731 60.0682 -47.8344 -11.8663 28989.0447 5.0341 5.0739
TCL: Running 100000 steps at 90 kelvin.
TCL: Setting parameter langevinTemp to 90
TCL: Running for 100000 steps
ETITLE: TS BOND ANGLE DIHED IMPRP ELECT VDW BOUNDARY MISC KINETIC TOTAL TEMP POTENTIAL TOTAL3 TEMPAVG PRESSURE GPRESSURE VOLUME PRESSAVG GPRESSAVG
ENERGY: 200000 0.6691 2.8674 1.0970 0.0000 -14064.8922 2437.4644 0.0000 0.0000 358.1324 -11264.6618 61.0813 -11622.7942 -11263.7562 61.0813 -64.1701 -11.2700 28989.0447 -64.1701 -11.2700
ENERGY: 300000 0.2952 2.5670 0.9386 0.0000 -14029.9151 2481.4622 0.0000 0.0000 525.3524 -11019.2997 89.6015 -11544.6521 -11018.1936 89.9595 754.5521 798.5814 28823.1594 4.8750 4.7977
TCL: Running 100000 steps at 120 kelvin.
TCL: Setting parameter langevinTemp to 120
TCL: Running for 100000 steps
ETITLE: TS BOND ANGLE DIHED IMPRP ELECT VDW BOUNDARY MISC KINETIC TOTAL TEMP POTENTIAL TOTAL3 TEMPAVG PRESSURE GPRESSURE VOLUME PRESSAVG GPRESSAVG
ENERGY: 300000 0.2952 2.5670 0.9386 0.0000 -14029.9151 2481.4622 0.0000 0.0000 525.0816 -11019.5705 89.5554 -11544.6521 -11018.7424 89.5554 743.0496 798.7766 28823.1594 743.0496 798.7766
ENERGY: 400000 0.1388 4.1275 1.3832 0.0000 -13783.9266 2325.8312 0.0000 0.0000 716.9069 -10735.5390 122.2721 -11452.4459 -10733.9421 120.0493 -271.2768 -199.5393 28911.6583 1.7438 1.7118
TCL: Running 100000 steps at 150 kelvin.
TCL: Setting parameter langevinTemp to 150
TCL: Running for 100000 steps
ETITLE: TS BOND ANGLE DIHED IMPRP ELECT VDW BOUNDARY MISC KINETIC TOTAL TEMP POTENTIAL TOTAL3 TEMPAVG PRESSURE GPRESSURE VOLUME PRESSAVG GPRESSAVG
ENERGY: 400000 0.1388 4.1275 1.3832 0.0000 -13783.9266 2325.8312 0.0000 0.0000 716.5545 -10735.8914 122.2120 -11452.4459 -10734.4894 122.2120 -250.3110 -200.3923 28911.6583 -250.3110 -200.3923
ENERGY: 500000 0.1988 3.7183 1.2145 0.0000 -13335.0356 2101.4418 0.0000 0.0000 864.8764 -10363.5858 147.5091 -11228.4622 -10361.5808 150.0596 -1122.3034 -1056.6767 28896.7221 4.8434 4.8489
TCL: Running 100000 steps at 180 kelvin.
TCL: Setting parameter langevinTemp to 180
TCL: Running for 100000 steps
ETITLE: TS BOND ANGLE DIHED IMPRP ELECT VDW BOUNDARY MISC KINETIC TOTAL TEMP POTENTIAL TOTAL3 TEMPAVG PRESSURE GPRESSURE VOLUME PRESSAVG GPRESSAVG
ENERGY: 500000 0.1988 3.7183 1.2145 0.0000 -13335.0356 2101.4418 0.0000 0.0000 864.4264 -10364.0357 147.4324 -11228.4622 -10362.1152 147.4324 -1109.3388 -1057.2259 28896.7221 -1109.3388 -1057.2259
ENERGY: 600000 0.6167 4.2234 1.4378 0.0000 -13033.1383 2063.2069 0.0000 0.0000 1052.9911 -9910.6624 179.5930 -10963.6535 -9906.2210 179.7022 -343.0694 -255.2218 28743.7831 3.9937 4.1618
TCL: Running 100000 steps at 210 kelvin.
TCL: Setting parameter langevinTemp to 210
TCL: Running for 100000 steps
ETITLE: TS BOND ANGLE DIHED IMPRP ELECT VDW BOUNDARY MISC KINETIC TOTAL TEMP POTENTIAL TOTAL3 TEMPAVG PRESSURE GPRESSURE VOLUME PRESSAVG GPRESSAVG
ENERGY: 600000 0.6167 4.2234 1.4378 0.0000 -13033.1383 2063.2069 0.0000 0.0000 1052.4920 -9911.1615 179.5079 -10963.6535 -9909.4774 179.5079 -311.4367 -252.6456 28743.7831 -311.4367 -252.6456
ENERGY: 700000 1.9147 4.4512 1.1856 0.0000 -12303.5301 1858.6858 0.0000 0.0000 1219.7299 -9217.5630 208.0312 -10437.2929 -9214.0606 209.8911 -265.8623 -231.0976 28950.4060 2.7352 2.8983
TCL: Running 100000 steps at 240 kelvin.
TCL: Setting parameter langevinTemp to 240
TCL: Running for 100000 steps
ETITLE: TS BOND ANGLE DIHED IMPRP ELECT VDW BOUNDARY MISC KINETIC TOTAL TEMP POTENTIAL TOTAL3 TEMPAVG PRESSURE GPRESSURE VOLUME PRESSAVG GPRESSAVG
ENERGY: 700000 1.9147 4.4512 1.1856 0.0000 -12303.5301 1858.6858 0.0000 0.0000 1219.1302 -9218.1627 207.9289 -10437.2929 -9216.3048 207.9289 -305.0035 -231.6409 28950.4060 -305.0035 -231.6409
ENERGY: 800000 1.2485 4.7568 1.6844 0.0000 -11839.1471 1770.8541 0.0000 0.0000 1380.2877 -8680.3156 235.4151 -10060.6033 -8677.0280 240.0133 456.0411 536.5133 28671.3926 3.9761 3.9086
TCL: Running 100000 steps at 270 kelvin.
TCL: Setting parameter langevinTemp to 270
TCL: Running for 100000 steps
ETITLE: TS BOND ANGLE DIHED IMPRP ELECT VDW BOUNDARY MISC KINETIC TOTAL TEMP POTENTIAL TOTAL3 TEMPAVG PRESSURE GPRESSURE VOLUME PRESSAVG GPRESSAVG
ENERGY: 800000 1.2485 4.7568 1.6844 0.0000 -11839.1471 1770.8541 0.0000 0.0000 1379.5796 -8681.0237 235.2944 -10060.6033 -8678.6705 235.2944 463.9459 535.6637 28671.3926 463.9459 535.6637
ENERGY: 900000 0.4537 6.7778 2.4746 0.0000 -11242.2775 1611.8665 0.0000 0.0000 1655.0872 -7965.6178 282.2836 -9620.7050 -7962.5306 269.8056 518.8092 588.2079 29662.2364 4.3915 4.2920
TCL: Running 1000000 steps at 300 kelvin.
TCL: Setting parameter langevinTemp to 300
TCL: Running for 1000000 steps
ETITLE: TS BOND ANGLE DIHED IMPRP ELECT VDW BOUNDARY MISC KINETIC TOTAL TEMP POTENTIAL TOTAL3 TEMPAVG PRESSURE GPRESSURE VOLUME PRESSAVG GPRESSAVG
ENERGY: 900000 0.4537 6.7778 2.4746 0.0000 -11242.2775 1611.8665 0.0000 0.0000 1654.3235 -7966.3815 282.1533 -9620.7050 -7963.7419 282.1533 502.7143 588.3654 29662.2364 502.7143 588.3654
ENERGY: 1100000 0.3193 9.3278 3.5471 0.0000 -10595.1384 1357.1916 0.0000 0.0000 1715.5888 -7509.1637 292.6025 -9224.7525 -7504.6364 300.5232 -629.8754 -519.4585 30201.7109 3.0241 3.0627
ENERGY: 1300000 1.0276 6.8370 1.8963 0.0000 -10652.7862 1362.4481 0.0000 0.0000 1720.8730 -7559.7043 293.5037 -9280.5773 -7556.6819 300.1473 -455.6042 -336.5544 29967.7795 2.2725 2.0359
ENERGY: 1500000 2.8101 6.1478 2.7772 0.0000 -10772.5077 1533.4526 0.0000 0.0000 1746.9592 -7480.3609 297.9528 -9227.3201 -7475.1199 300.2927 687.8441 811.8767 30512.1880 3.3712 3.4926
ENERGY: 1700000 0.3628 6.6806 3.4210 0.0000 -10617.8245 1470.8038 0.0000 0.0000 1784.8653 -7351.6910 304.4179 -9136.5564 -7349.2174 299.7095 601.1088 639.0507 30256.9909 3.1883 3.2146
ENERGY: 1900000 0.8936 9.5527 1.2961 0.0000 -10885.8377 1557.3631 0.0000 0.0000 1777.0068 -7539.7254 303.0776 -9316.7322 -7536.6889 300.1832 876.8008 860.9356 30132.1854 4.1578 4.1200
TCL: Exiting due to exit command.
