Info: SIMULATION PARAMETERS:
Info: TIMESTEP               2
Info: NUMBER OF STEPS        0
Info: STEPS PER CYCLE        10
Info: PERIODIC CELL BASIS 1  36.281 0 0
Info: PERIODIC CELL BASIS 2  0 36.611 0
Info: PERIODIC CELL BASIS 3  0 0 34.68
Info: PERIODIC CELL CENTER   0 0 0
Info: WRAPPING WATERS AROUND PERIODIC BOUNDARIES ON OUTPUT.
Info: WRAPPING ALL CLUSTERS AROUND PERIODIC BOUNDARIES ON OUTPUT.
Info: FIRST LDB TIMESTEP     50
Info: LAST LDB TIMESTEP     -1
Info: HOM BACKGROUND SCALING 1
Info: PME BACKGROUND SCALING 1
Info: MIN ATOMS PER PATCH    40
Info: EMPTY PATCH LOAD       40 ATOMS
Info: INITIAL TEMPERATURE    300
Info: CENTER OF MASS MOVING INITIALLY? NO
Info: DIELECTRIC             1
Info: EXCLUDE                SCALED ONE-FOUR
Info: 1-4 ELECTROSTATICS SCALED BY 0.833333
Info: MODIFIED 1-4 VDW PARAMETERS WILL BE USED
Info: DCD FILENAME           mobley_8221999_equil.dcd
Info: DCD FREQUENCY          100000
Info: DCD FIRST STEP         100000
Info: DCD FILE WILL CONTAIN UNIT CELL DATA
Info: XST FILENAME           mobley_8221999_equil.xst
Info: XST FREQUENCY          100000
Info: NO VELOCITY DCD OUTPUT
Info: NO FORCE DCD OUTPUT
Info: OUTPUT FILENAME        mobley_8221999_equil
Info: BINARY OUTPUT FILES WILL BE USED
Info: RESTART FILENAME       mobley_8221999_equil.restart
Info: RESTART FREQUENCY      100000
Info: BINARY RESTART FILES WILL BE USED
Info: CUTOFF                 9
Info: PAIRLIST DISTANCE      11
Info: PAIRLIST SHRINK RATE   0.01
Info: PAIRLIST GROW RATE     0.01
Info: PAIRLIST TRIGGER       0.3
Info: PAIRLISTS PER CYCLE    2
Info: PAIRLISTS ENABLED
Info: MARGIN                 8
Info: HYDROGEN GROUP CUTOFF  2.5
Info: PATCH DIMENSION        21.5
Info: ENERGY OUTPUT STEPS    100000
Info: ENERGY EVALUATION STEPS    100000
Info: OUTPUT ENERGY PRECISION 4
Info: CROSSTERM ENERGY INCLUDED IN DIHEDRAL
Info: TIMING OUTPUT STEPS    1000000
Info: PRESSURE OUTPUT STEPS  100000
Info: LANGEVIN DYNAMICS ACTIVE
Info: LANGEVIN TEMPERATURE   30
Info: LANGEVIN USING BBK INTEGRATOR
Info: LANGEVIN DAMPING COEFFICIENT IS 1 INVERSE PS
Info: LANGEVIN DYNAMICS APPLIED TO HYDROGENS
Info: LANGEVIN PISTON PRESSURE CONTROL ACTIVE
Info:        TARGET PRESSURE IS 1.01325 BAR
Info:     OSCILLATION PERIOD IS 50 FS
Info:             DECAY TIME IS 25 FS
Info:     PISTON TEMPERATURE IS 300 K
Info:       PRESSURE CONTROL IS GROUP-BASED
Info:    INITIAL STRAIN RATE IS 0 0 0
Info:       CELL FLUCTUATION IS ISOTROPIC
Info: PARTICLE MESH EWALD (PME) ACTIVE
Info: PME TOLERANCE               1e-06
Info: PME EWALD COEFFICIENT       0.348832
Info: PME INTERPOLATION ORDER     4
Info: PME GRID DIMENSIONS         40 40 36
Info: PME MAXIMUM GRID SPACING    1
Info: FULL ELECTROSTATIC EVALUATION FREQUENCY      2
Info: USING VERLET I (r-RESPA) MTS SCHEME.
Info: C1 SPLITTING OF LONG RANGE ELECTROSTATICS
Info: PLACING ATOMS IN PATCHES BY HYDROGEN GROUPS
Info: RIGID BONDS TO HYDROGEN : ALL
Info:         ERROR TOLERANCE : 1e-08
Info:          MAX ITERATIONS : 100
Info: RIGID WATER USING SETTLE ALGORITHM
Info: RANDOM NUMBER SEED     1743226250
Info: USE HYDROGEN BONDS?    NO
Info: Using AMBER format force field!
Info: AMBER PARM FILE        mobley_8221999.prmtop
Info: COORDINATE PDB         mobley_8221999.pdb
Info: Exclusions will be read from PARM file!
Info: SCNB (VDW SCALING)     2
Info: USING ARITHMETIC MEAN TO COMBINE L-J SIGMA PARAMETERS
Info: BINARY COORDINATES     mobley_8221999_min.coor
Info: SUMMARY OF PARAMETERS:
Info: 6 BONDS
Info: 6 ANGLES
Info:   6 HARMONIC
Info:   0 COSINE-BASED
Info: 4 DIHEDRAL
Info: 0 IMPROPER
Info: 0 CROSSTERM
Info: 0 VDW
Info: 21 VDW_PAIRS
Info: 0 NBTHOLE_PAIRS
Info: STRUCTURE SUMMARY:
Info: 2997 ATOMS
Info: 2996 BONDS
Info: 19 ANGLES
Info: 21 DIHEDRALS
Info: 0 IMPROPERS
Info: 0 CROSSTERMS
Info: 3036 EXCLUSIONS
Info: 2992 RIGID BONDS
Info: 5999 DEGREES OF FREEDOM
Info: 1000 HYDROGEN GROUPS
Info: 4 ATOMS IN LARGEST HYDROGEN GROUP
Info: 1000 MIGRATION GROUPS
Info: 4 ATOMS IN LARGEST MIGRATION GROUP
Info: TOTAL MASS = 17995 amu
Info: TOTAL CHARGE = -0.000200013 e
Info: MASS DENSITY = 0.648697 g/cm^3
Info: ATOM DENSITY = 0.0650604 atoms/A^3
Info: ADDED 0 IMPLICIT EXCLUSIONS
Info: NONBONDED TABLE R-SQUARED SPACING: 0.0625
Info: NONBONDED TABLE SIZE: 705 POINTS
Info: REMOVING COM VELOCITY 0.0664356 0.196536 0.238747
TCL: Running for 100000 steps
ETITLE: TS BOND ANGLE DIHED IMPRP ELECT VDW BOUNDARY MISC KINETIC TOTAL TEMP POTENTIAL TOTAL3 TEMPAVG PRESSURE GPRESSURE VOLUME PRESSAVG GPRESSAVG
ENERGY: 0 0.0258 0.1211 0.0155 0.0000 -13836.5872 2431.2218 0.0000 0.0000 1792.9632 -9612.2398 300.8035 -11405.2030 -9611.9041 300.8035 431.8373 464.9814 46064.8784 431.8373 464.9814
ENERGY: 100000 1.3795 0.3720 0.0201 0.0000 -14456.4879 2525.2992 0.0000 0.0000 174.1453 -11755.2717 29.2162 -11929.4170 -11754.6785 31.0304 20.4931 75.0033 29425.7680 4.3372 4.3420
TCL: Running 100000 steps at 60 kelvin.
TCL: Setting parameter langevinTemp to 60
TCL: Running for 100000 steps
ETITLE: TS BOND ANGLE DIHED IMPRP ELECT VDW BOUNDARY MISC KINETIC TOTAL TEMP POTENTIAL TOTAL3 TEMPAVG PRESSURE GPRESSURE VOLUME PRESSAVG GPRESSAVG
ENERGY: 100000 1.3795 0.3720 0.0201 0.0000 -14456.4879 2525.2992 0.0000 0.0000 174.0598 -11755.3573 29.2018 -11929.4170 -11755.0556 29.2018 30.3526 75.0069 29425.7680 30.3526 75.0069
ENERGY: 200000 1.2088 1.5096 0.1058 0.0000 -14350.3350 2517.5134 0.0000 0.0000 346.5107 -11483.4866 58.1337 -11829.9974 -11482.8767 60.0128 574.9496 611.9806 29258.1168 3.6701 3.6823
TCL: Running 100000 steps at 90 kelvin.
TCL: Setting parameter langevinTemp to 90
TCL: Running for 100000 steps
ETITLE: TS BOND ANGLE DIHED IMPRP ELECT VDW BOUNDARY MISC KINETIC TOTAL TEMP POTENTIAL TOTAL3 TEMPAVG PRESSURE GPRESSURE VOLUME PRESSAVG GPRESSAVG
ENERGY: 200000 1.2088 1.5096 0.1058 0.0000 -14350.3350 2517.5134 0.0000 0.0000 346.3318 -11483.6655 58.1037 -11829.9974 -11482.8720 58.1037 548.7868 611.9529 29258.1168 548.7868 611.9529
ENERGY: 300000 0.5629 1.4452 0.0775 0.0000 -14121.5215 2366.1769 0.0000 0.0000 535.7161 -11217.5430 89.8765 -11753.2591 -11216.5703 90.0523 -426.7200 -396.1183 29388.4850 4.0080 3.9871
TCL: Running 100000 steps at 120 kelvin.
TCL: Setting parameter langevinTemp to 120
TCL: Running for 100000 steps
ETITLE: TS BOND ANGLE DIHED IMPRP ELECT VDW BOUNDARY MISC KINETIC TOTAL TEMP POTENTIAL TOTAL3 TEMPAVG PRESSURE GPRESSURE VOLUME PRESSAVG GPRESSAVG
ENERGY: 300000 0.5629 1.4452 0.0775 0.0000 -14121.5215 2366.1769 0.0000 0.0000 535.4425 -11217.8165 89.8306 -11753.2591 -11216.6505 89.8306 -449.0391 -396.2773 29388.4850 -449.0391 -396.2773
ENERGY: 400000 1.2670 2.5293 0.0928 0.0000 -14032.0340 2403.0344 0.0000 0.0000 716.1433 -10908.9671 120.1466 -11625.1104 -10907.4497 120.1183 345.7652 372.7843 29285.6870 5.0241 4.9817
TCL: Running 100000 steps at 150 kelvin.
TCL: Setting parameter langevinTemp to 150
TCL: Running for 100000 steps
ETITLE: TS BOND ANGLE DIHED IMPRP ELECT VDW BOUNDARY MISC KINETIC TOTAL TEMP POTENTIAL TOTAL3 TEMPAVG PRESSURE GPRESSURE VOLUME PRESSAVG GPRESSAVG
ENERGY: 400000 1.2670 2.5293 0.0928 0.0000 -14032.0340 2403.0344 0.0000 0.0000 715.7996 -10909.3108 120.0889 -11625.1104 -10908.0775 120.0889 330.9381 373.0191 29285.6870 330.9381 373.0191
ENERGY: 500000 1.8197 2.3976 0.5001 0.0000 -13732.8929 2234.2200 0.0000 0.0000 923.2730 -10570.6825 154.8965 -11493.9555 -10567.9214 150.3142 -860.9671 -799.6028 29565.7021 3.0562 3.2074
TCL: Running 100000 steps at 180 kelvin.
TCL: Setting parameter langevinTemp to 180
TCL: Running for 100000 steps
ETITLE: TS BOND ANGLE DIHED IMPRP ELECT VDW BOUNDARY MISC KINETIC TOTAL TEMP POTENTIAL TOTAL3 TEMPAVG PRESSURE GPRESSURE VOLUME PRESSAVG GPRESSAVG
ENERGY: 500000 1.8197 2.3976 0.5001 0.0000 -13732.8929 2234.2200 0.0000 0.0000 922.8270 -10571.1285 154.8217 -11493.9555 -10569.1842 154.8217 -850.6798 -799.5941 29565.7021 -850.6798 -799.5941
ENERGY: 600000 0.6931 2.7615 0.3320 0.0000 -13242.3521 2109.2160 0.0000 0.0000 1069.6040 -10059.7456 179.4463 -11129.3496 -10057.7961 179.8876 -693.2895 -611.2933 30008.6940 3.1370 3.1343
TCL: Running 100000 steps at 210 kelvin.
TCL: Setting parameter langevinTemp to 210
TCL: Running for 100000 steps
ETITLE: TS BOND ANGLE DIHED IMPRP ELECT VDW BOUNDARY MISC KINETIC TOTAL TEMP POTENTIAL TOTAL3 TEMPAVG PRESSURE GPRESSURE VOLUME PRESSAVG GPRESSAVG
ENERGY: 600000 0.6931 2.7615 0.3320 0.0000 -13242.3521 2109.2160 0.0000 0.0000 1069.0801 -10060.2695 179.3584 -11129.3496 -10057.9308 179.3584 -666.4885 -612.4660 30008.6940 -666.4885 -612.4660
ENERGY: 700000 1.6829 4.3971 0.0739 0.0000 -12671.2654 1968.5693 0.0000 0.0000 1247.9192 -9448.6230 209.3621 -10696.5423 -9446.2473 209.7977 499.6743 540.9834 29023.9337 4.1423 4.0621
TCL: Running 100000 steps at 240 kelvin.
TCL: Setting parameter langevinTemp to 240
TCL: Running for 100000 steps
ETITLE: TS BOND ANGLE DIHED IMPRP ELECT VDW BOUNDARY MISC KINETIC TOTAL TEMP POTENTIAL TOTAL3 TEMPAVG PRESSURE GPRESSURE VOLUME PRESSAVG GPRESSAVG
ENERGY: 700000 1.6829 4.3971 0.0739 0.0000 -12671.2654 1968.5693 0.0000 0.0000 1247.2759 -9449.2663 209.2541 -10696.5423 -9447.3803 209.2541 466.2718 541.2280 29023.9337 466.2718 541.2280
ENERGY: 800000 0.9428 5.2528 0.7163 0.0000 -11899.0370 1658.5997 0.0000 0.0000 1467.9264 -8765.5991 246.2724 -10233.5255 -8761.0151 239.4458 -354.6747 -217.9715 29303.6267 3.2868 3.1855
TCL: Running 100000 steps at 270 kelvin.
TCL: Setting parameter langevinTemp to 270
TCL: Running for 100000 steps
ETITLE: TS BOND ANGLE DIHED IMPRP ELECT VDW BOUNDARY MISC KINETIC TOTAL TEMP POTENTIAL TOTAL3 TEMPAVG PRESSURE GPRESSURE VOLUME PRESSAVG GPRESSAVG
ENERGY: 800000 0.9428 5.2528 0.7163 0.0000 -11899.0370 1658.5997 0.0000 0.0000 1467.2274 -8766.2981 246.1552 -10233.5255 -8763.9388 246.1552 -315.7963 -216.7978 29303.6267 -315.7963 -216.7978
ENERGY: 900000 0.7934 2.9060 0.0994 0.0000 -11401.7783 1572.4858 0.0000 0.0000 1620.6534 -8204.8403 271.8953 -9825.4937 -8201.1834 269.7612 -117.2579 -53.9323 30082.1933 2.9585 3.1294
TCL: Running 1000000 steps at 300 kelvin.
TCL: Setting parameter langevinTemp to 300
TCL: Running for 1000000 steps
ETITLE: TS BOND ANGLE DIHED IMPRP ELECT VDW BOUNDARY MISC KINETIC TOTAL TEMP POTENTIAL TOTAL3 TEMPAVG PRESSURE GPRESSURE VOLUME PRESSAVG GPRESSAVG
ENERGY: 900000 0.7934 2.9060 0.0994 0.0000 -11401.7783 1572.4858 0.0000 0.0000 1619.8607 -8205.6330 271.7623 -9825.4937 -8202.9831 271.7623 -132.8198 -54.2650 30082.1933 -132.8198 -54.2650
ENERGY: 1100000 0.9282 6.3187 0.2379 0.0000 -10689.4347 1376.4452 0.0000 0.0000 1768.7316 -7536.7732 296.7382 -9305.5048 -7532.5847 299.7832 -550.9572 -459.3078 31303.1873 3.4833 3.5890
ENERGY: 1300000 2.8225 4.8719 0.3727 0.0000 -10854.3040 1448.4820 0.0000 0.0000 1806.2588 -7591.4961 303.0341 -9397.7550 -7585.9357 300.7996 -402.4162 -305.4702 31659.8478 2.4632 2.5331
ENERGY: 1500000 0.1499 2.9962 0.6910 0.0000 -10957.6586 1523.4383 0.0000 0.0000 1782.3444 -7648.0387 299.0220 -9430.3831 -7642.8038 299.7986 428.5668 507.5981 30718.6927 2.7242 2.8167
ENERGY: 1700000 0.9694 2.3023 0.3800 0.0000 -10865.3270 1442.3029 0.0000 0.0000 1774.1126 -7645.2598 297.6410 -9419.3724 -7641.1483 300.5283 155.3269 238.9968 30531.1039 3.6532 3.7025
ENERGY: 1900000 1.5722 6.4874 0.5142 0.0000 -10934.7190 1535.4308 0.0000 0.0000 1858.0620 -7532.6523 311.7251 -9390.7144 -7530.4148 300.5681 396.8884 482.1528 31480.8286 3.0729 3.1162
TCL: Exiting due to exit command.
