Info: SIMULATION PARAMETERS:
Info: TIMESTEP               2
Info: NUMBER OF STEPS        0
Info: STEPS PER CYCLE        10
Info: PERIODIC CELL BASIS 1  34.986 0 0
Info: PERIODIC CELL BASIS 2  0 35.267 0
Info: PERIODIC CELL BASIS 3  0 0 35.723
Info: PERIODIC CELL CENTER   0 0 0
Info: WRAPPING WATERS AROUND PERIODIC BOUNDARIES ON OUTPUT.
Info: WRAPPING ALL CLUSTERS AROUND PERIODIC BOUNDARIES ON OUTPUT.
Info: FIRST LDB TIMESTEP     50
Info: LAST LDB TIMESTEP     -1
Info: HOM BACKGROUND SCALING 1
Info: PME BACKGROUND SCALING 1
Info: MIN ATOMS PER PATCH    40
Info: EMPTY PATCH LOAD       40 ATOMS
Info: INITIAL TEMPERATURE    300
Info: CENTER OF MASS MOVING INITIALLY? NO
Info: DIELECTRIC             1
Info: EXCLUDE                SCALED ONE-FOUR
Info: 1-4 ELECTROSTATICS SCALED BY 0.833333
Info: MODIFIED 1-4 VDW PARAMETERS WILL BE USED
Info: DCD FILENAME           mobley_951560_equil.dcd
Info: DCD FREQUENCY          100000
Info: DCD FIRST STEP         100000
Info: DCD FILE WILL CONTAIN UNIT CELL DATA
Info: XST FILENAME           mobley_951560_equil.xst
Info: XST FREQUENCY          100000
Info: NO VELOCITY DCD OUTPUT
Info: NO FORCE DCD OUTPUT
Info: OUTPUT FILENAME        mobley_951560_equil
Info: BINARY OUTPUT FILES WILL BE USED
Info: RESTART FILENAME       mobley_951560_equil.restart
Info: RESTART FREQUENCY      100000
Info: BINARY RESTART FILES WILL BE USED
Info: CUTOFF                 9
Info: PAIRLIST DISTANCE      11
Info: PAIRLIST SHRINK RATE   0.01
Info: PAIRLIST GROW RATE     0.01
Info: PAIRLIST TRIGGER       0.3
Info: PAIRLISTS PER CYCLE    2
Info: PAIRLISTS ENABLED
Info: MARGIN                 8
Info: HYDROGEN GROUP CUTOFF  2.5
Info: PATCH DIMENSION        21.5
Info: ENERGY OUTPUT STEPS    100000
Info: ENERGY EVALUATION STEPS    100000
Info: OUTPUT ENERGY PRECISION 4
Info: CROSSTERM ENERGY INCLUDED IN DIHEDRAL
Info: TIMING OUTPUT STEPS    1000000
Info: PRESSURE OUTPUT STEPS  100000
Info: LANGEVIN DYNAMICS ACTIVE
Info: LANGEVIN TEMPERATURE   30
Info: LANGEVIN USING BBK INTEGRATOR
Info: LANGEVIN DAMPING COEFFICIENT IS 1 INVERSE PS
Info: LANGEVIN DYNAMICS APPLIED TO HYDROGENS
Info: LANGEVIN PISTON PRESSURE CONTROL ACTIVE
Info:        TARGET PRESSURE IS 1.01325 BAR
Info:     OSCILLATION PERIOD IS 50 FS
Info:             DECAY TIME IS 25 FS
Info:     PISTON TEMPERATURE IS 300 K
Info:       PRESSURE CONTROL IS GROUP-BASED
Info:    INITIAL STRAIN RATE IS 0 0 0
Info:       CELL FLUCTUATION IS ISOTROPIC
Info: PARTICLE MESH EWALD (PME) ACTIVE
Info: PME TOLERANCE               1e-06
Info: PME EWALD COEFFICIENT       0.348832
Info: PME INTERPOLATION ORDER     4
Info: PME GRID DIMENSIONS         36 36 36
Info: PME MAXIMUM GRID SPACING    1
Info: FULL ELECTROSTATIC EVALUATION FREQUENCY      2
Info: USING VERLET I (r-RESPA) MTS SCHEME.
Info: C1 SPLITTING OF LONG RANGE ELECTROSTATICS
Info: PLACING ATOMS IN PATCHES BY HYDROGEN GROUPS
Info: RIGID BONDS TO HYDROGEN : ALL
Info:         ERROR TOLERANCE : 1e-08
Info:          MAX ITERATIONS : 100
Info: RIGID WATER USING SETTLE ALGORITHM
Info: RANDOM NUMBER SEED     1743213228
Info: USE HYDROGEN BONDS?    NO
Info: Using AMBER format force field!
Info: AMBER PARM FILE        mobley_951560.prmtop
Info: COORDINATE PDB         mobley_951560.pdb
Info: Exclusions will be read from PARM file!
Info: SCNB (VDW SCALING)     2
Info: USING ARITHMETIC MEAN TO COMBINE L-J SIGMA PARAMETERS
Info: BINARY COORDINATES     mobley_951560_min.coor
Info: SUMMARY OF PARAMETERS:
Info: 6 BONDS
Info: 6 ANGLES
Info:   6 HARMONIC
Info:   0 COSINE-BASED
Info: 3 DIHEDRAL
Info: 0 IMPROPER
Info: 0 CROSSTERM
Info: 0 VDW
Info: 21 VDW_PAIRS
Info: 0 NBTHOLE_PAIRS
Info: STRUCTURE SUMMARY:
Info: 2962 ATOMS
Info: 2962 BONDS
Info: 30 ANGLES
Info: 46 DIHEDRALS
Info: 0 IMPROPERS
Info: 0 CROSSTERMS
Info: 3031 EXCLUSIONS
Info: 2956 RIGID BONDS
Info: 5930 DEGREES OF FREEDOM
Info: 988 HYDROGEN GROUPS
Info: 3 ATOMS IN LARGEST HYDROGEN GROUP
Info: 988 MIGRATION GROUPS
Info: 3 ATOMS IN LARGEST MIGRATION GROUP
Info: TOTAL MASS = 17777.9 amu
Info: TOTAL CHARGE = 8.9407e-08 e
Info: MASS DENSITY = 0.669773 g/cm^3
Info: ATOM DENSITY = 0.0672008 atoms/A^3
Info: ADDED 0 IMPLICIT EXCLUSIONS
Info: NONBONDED TABLE R-SQUARED SPACING: 0.0625
Info: NONBONDED TABLE SIZE: 705 POINTS
Info: REMOVING COM VELOCITY 0.114988 -0.0266898 -0.027277
TCL: Running for 100000 steps
ETITLE: TS BOND ANGLE DIHED IMPRP ELECT VDW BOUNDARY MISC KINETIC TOTAL TEMP POTENTIAL TOTAL3 TEMPAVG PRESSURE GPRESSURE VOLUME PRESSAVG GPRESSAVG
ENERGY: 0 0.6648 0.5936 3.2031 0.0000 -13597.7945 2405.9410 0.0000 0.0000 1729.8340 -9457.5580 293.5892 -11187.3920 -9457.2312 293.5892 485.9324 521.2240 44076.8686 485.9324 521.2240
ENERGY: 100000 0.5584 0.7756 3.0879 0.0000 -14135.6858 2406.7477 0.0000 0.0000 174.3450 -11550.1712 29.5900 -11724.5162 -11549.6738 30.8943 -548.5103 -497.3208 28547.6101 3.9759 4.0018
TCL: Running 100000 steps at 60 kelvin.
TCL: Setting parameter langevinTemp to 60
TCL: Running for 100000 steps
ETITLE: TS BOND ANGLE DIHED IMPRP ELECT VDW BOUNDARY MISC KINETIC TOTAL TEMP POTENTIAL TOTAL3 TEMPAVG PRESSURE GPRESSURE VOLUME PRESSAVG GPRESSAVG
ENERGY: 100000 0.5584 0.7756 3.0879 0.0000 -14135.6858 2406.7477 0.0000 0.0000 174.2543 -11550.2619 29.5746 -11724.5162 -11549.8781 29.5746 -555.8723 -497.1415 28547.6101 -555.8723 -497.1415
ENERGY: 200000 1.6264 1.5851 2.9662 0.0000 -14042.9274 2386.3371 0.0000 0.0000 354.3799 -11296.0328 60.1457 -11650.4127 -11295.1111 59.9810 -475.7836 -409.8041 28622.5137 4.4045 4.3945
TCL: Running 100000 steps at 90 kelvin.
TCL: Setting parameter langevinTemp to 90
TCL: Running for 100000 steps
ETITLE: TS BOND ANGLE DIHED IMPRP ELECT VDW BOUNDARY MISC KINETIC TOTAL TEMP POTENTIAL TOTAL3 TEMPAVG PRESSURE GPRESSURE VOLUME PRESSAVG GPRESSAVG
ENERGY: 200000 1.6264 1.5851 2.9662 0.0000 -14042.9274 2386.3371 0.0000 0.0000 354.2020 -11296.2106 60.1155 -11650.4127 -11295.3645 60.1155 -477.9732 -410.4567 28622.5137 -477.9732 -410.4567
ENERGY: 300000 1.4336 2.3599 3.2289 0.0000 -13972.8774 2428.6731 0.0000 0.0000 536.4550 -11000.7269 91.0477 -11537.1819 -10998.9373 90.0239 256.5620 346.4205 28696.6145 3.2085 3.1856
TCL: Running 100000 steps at 120 kelvin.
TCL: Setting parameter langevinTemp to 120
TCL: Running for 100000 steps
ETITLE: TS BOND ANGLE DIHED IMPRP ELECT VDW BOUNDARY MISC KINETIC TOTAL TEMP POTENTIAL TOTAL3 TEMPAVG PRESSURE GPRESSURE VOLUME PRESSAVG GPRESSAVG
ENERGY: 300000 1.4336 2.3599 3.2289 0.0000 -13972.8774 2428.6731 0.0000 0.0000 536.1946 -11000.9873 91.0035 -11537.1819 -10999.7914 91.0035 283.8159 346.8833 28696.6145 283.8159 346.8833
ENERGY: 400000 0.4548 4.3266 3.6725 0.0000 -13811.4748 2378.3257 0.0000 0.0000 729.8363 -10694.8589 123.8686 -11424.6952 -10692.8428 119.8224 422.9738 473.4241 28627.3496 3.8928 3.7942
TCL: Running 100000 steps at 150 kelvin.
TCL: Setting parameter langevinTemp to 150
TCL: Running for 100000 steps
ETITLE: TS BOND ANGLE DIHED IMPRP ELECT VDW BOUNDARY MISC KINETIC TOTAL TEMP POTENTIAL TOTAL3 TEMPAVG PRESSURE GPRESSURE VOLUME PRESSAVG GPRESSAVG
ENERGY: 400000 0.4548 4.3266 3.6725 0.0000 -13811.4748 2378.3257 0.0000 0.0000 729.4771 -10695.2182 123.8076 -11424.6952 -10693.7275 123.8076 421.2763 473.8520 28627.3496 421.2763 473.8520
ENERGY: 500000 3.9363 3.8228 3.2786 0.0000 -13436.9430 2172.3680 0.0000 0.0000 852.8743 -10400.6630 144.7507 -11253.5372 -10397.6395 149.9588 -952.1755 -894.9563 29094.6410 4.1766 4.2631
TCL: Running 100000 steps at 180 kelvin.
TCL: Setting parameter langevinTemp to 180
TCL: Running for 100000 steps
ETITLE: TS BOND ANGLE DIHED IMPRP ELECT VDW BOUNDARY MISC KINETIC TOTAL TEMP POTENTIAL TOTAL3 TEMPAVG PRESSURE GPRESSURE VOLUME PRESSAVG GPRESSAVG
ENERGY: 500000 3.9363 3.8228 3.2786 0.0000 -13436.9430 2172.3680 0.0000 0.0000 852.4232 -10401.1140 144.6742 -11253.5372 -10399.3231 144.6742 -961.9682 -894.7619 29094.6410 -961.9682 -894.7619
ENERGY: 600000 0.9592 4.6489 2.8917 0.0000 -13087.0938 2115.1892 0.0000 0.0000 1073.6831 -9889.7217 182.2266 -10963.4048 -9887.9032 180.0232 -251.4083 -165.4015 29082.9297 3.6619 3.5803
TCL: Running 100000 steps at 210 kelvin.
TCL: Setting parameter langevinTemp to 210
TCL: Running for 100000 steps
ETITLE: TS BOND ANGLE DIHED IMPRP ELECT VDW BOUNDARY MISC KINETIC TOTAL TEMP POTENTIAL TOTAL3 TEMPAVG PRESSURE GPRESSURE VOLUME PRESSAVG GPRESSAVG
ENERGY: 600000 0.9592 4.6489 2.8917 0.0000 -13087.0938 2115.1892 0.0000 0.0000 1073.1719 -9890.2329 182.1399 -10963.4048 -9888.0631 182.1399 -224.8153 -166.7748 29082.9297 -224.8153 -166.7748
ENERGY: 700000 0.7541 6.6106 3.8622 0.0000 -12410.2638 1877.1907 0.0000 0.0000 1221.1923 -9300.6538 207.2620 -10521.8461 -9298.1898 209.6299 -157.3964 -66.3955 28625.3543 4.0868 3.9155
TCL: Running 100000 steps at 240 kelvin.
TCL: Setting parameter langevinTemp to 240
TCL: Running for 100000 steps
ETITLE: TS BOND ANGLE DIHED IMPRP ELECT VDW BOUNDARY MISC KINETIC TOTAL TEMP POTENTIAL TOTAL3 TEMPAVG PRESSURE GPRESSURE VOLUME PRESSAVG GPRESSAVG
ENERGY: 700000 0.7541 6.6106 3.8622 0.0000 -12410.2638 1877.1907 0.0000 0.0000 1220.5550 -9301.2912 207.1539 -10521.8461 -9299.4798 207.1539 -155.8480 -66.4147 28625.3543 -155.8480 -66.4147
ENERGY: 800000 1.9481 3.2534 4.0406 0.0000 -11829.0680 1750.1594 0.0000 0.0000 1447.8498 -8621.8168 245.7306 -10069.6665 -8616.6289 239.0926 186.4128 276.4869 29085.3686 4.5791 4.4894
TCL: Running 100000 steps at 270 kelvin.
TCL: Setting parameter langevinTemp to 270
TCL: Running for 100000 steps
ETITLE: TS BOND ANGLE DIHED IMPRP ELECT VDW BOUNDARY MISC KINETIC TOTAL TEMP POTENTIAL TOTAL3 TEMPAVG PRESSURE GPRESSURE VOLUME PRESSAVG GPRESSAVG
ENERGY: 800000 1.9481 3.2534 4.0406 0.0000 -11829.0680 1750.1594 0.0000 0.0000 1447.1328 -8622.5337 245.6089 -10069.6665 -8620.1407 245.6089 187.0732 279.2349 29085.3686 187.0732 279.2349
ENERGY: 900000 2.5422 9.0876 4.3242 0.0000 -11302.0054 1639.0779 0.0000 0.0000 1541.3751 -8105.5985 261.6038 -9646.9736 -8103.5855 269.8917 483.1757 603.0937 29410.5471 4.0480 4.1002
TCL: Running 1000000 steps at 300 kelvin.
TCL: Setting parameter langevinTemp to 300
TCL: Running for 1000000 steps
ETITLE: TS BOND ANGLE DIHED IMPRP ELECT VDW BOUNDARY MISC KINETIC TOTAL TEMP POTENTIAL TOTAL3 TEMPAVG PRESSURE GPRESSURE VOLUME PRESSAVG GPRESSAVG
ENERGY: 900000 2.5422 9.0876 4.3242 0.0000 -11302.0054 1639.0779 0.0000 0.0000 1540.5983 -8106.3753 261.4719 -9646.9736 -8103.6166 261.4719 523.5062 600.9328 29410.5471 523.5062 600.9328
ENERGY: 1100000 2.1520 6.4936 3.3118 0.0000 -10803.8098 1438.8889 0.0000 0.0000 1774.3671 -7578.5963 301.1474 -9352.9634 -7575.8555 299.6718 -315.0224 -224.7468 30352.5395 4.1082 4.1424
ENERGY: 1300000 2.4936 12.5125 4.9056 0.0000 -10596.3665 1366.9560 0.0000 0.0000 1749.7375 -7459.7614 296.9673 -9209.4988 -7456.7821 300.5785 -813.6870 -783.3211 31119.7261 4.9159 4.8153
ENERGY: 1500000 1.1228 5.5260 3.9072 0.0000 -10710.5833 1455.9324 0.0000 0.0000 1795.6020 -7448.4929 304.7515 -9244.0949 -7445.0723 300.0343 301.8738 399.7748 30086.2264 4.1426 4.2495
ENERGY: 1700000 1.8074 5.0138 3.4692 0.0000 -10689.6842 1423.7916 0.0000 0.0000 1810.2844 -7445.3178 307.2434 -9255.6023 -7443.0513 300.3546 -326.3855 -276.1011 30770.5439 3.7089 3.7155
ENERGY: 1900000 0.8436 5.8871 3.2173 0.0000 -10844.5954 1541.8792 0.0000 0.0000 1726.5457 -7566.2227 293.0311 -9292.7683 -7560.4855 301.0239 557.1640 689.2664 30174.5708 3.4723 3.5431
TCL: Exiting due to exit command.
