Info: SIMULATION PARAMETERS:
Info: TIMESTEP               2
Info: NUMBER OF STEPS        0
Info: STEPS PER CYCLE        10
Info: PERIODIC CELL BASIS 1  36.281 0 0
Info: PERIODIC CELL BASIS 2  0 35.779 0
Info: PERIODIC CELL BASIS 3  0 0 34.68
Info: PERIODIC CELL CENTER   0 0 0
Info: WRAPPING WATERS AROUND PERIODIC BOUNDARIES ON OUTPUT.
Info: WRAPPING ALL CLUSTERS AROUND PERIODIC BOUNDARIES ON OUTPUT.
Info: FIRST LDB TIMESTEP     50
Info: LAST LDB TIMESTEP     -1
Info: HOM BACKGROUND SCALING 1
Info: PME BACKGROUND SCALING 1
Info: MIN ATOMS PER PATCH    40
Info: EMPTY PATCH LOAD       40 ATOMS
Info: INITIAL TEMPERATURE    300
Info: CENTER OF MASS MOVING INITIALLY? NO
Info: DIELECTRIC             1
Info: EXCLUDE                SCALED ONE-FOUR
Info: 1-4 ELECTROSTATICS SCALED BY 0.833333
Info: MODIFIED 1-4 VDW PARAMETERS WILL BE USED
Info: DCD FILENAME           mobley_430089_equil.dcd
Info: DCD FREQUENCY          100000
Info: DCD FIRST STEP         100000
Info: DCD FILE WILL CONTAIN UNIT CELL DATA
Info: XST FILENAME           mobley_430089_equil.xst
Info: XST FREQUENCY          100000
Info: NO VELOCITY DCD OUTPUT
Info: NO FORCE DCD OUTPUT
Info: OUTPUT FILENAME        mobley_430089_equil
Info: BINARY OUTPUT FILES WILL BE USED
Info: RESTART FILENAME       mobley_430089_equil.restart
Info: RESTART FREQUENCY      100000
Info: BINARY RESTART FILES WILL BE USED
Info: CUTOFF                 9
Info: PAIRLIST DISTANCE      11
Info: PAIRLIST SHRINK RATE   0.01
Info: PAIRLIST GROW RATE     0.01
Info: PAIRLIST TRIGGER       0.3
Info: PAIRLISTS PER CYCLE    2
Info: PAIRLISTS ENABLED
Info: MARGIN                 8
Info: HYDROGEN GROUP CUTOFF  2.5
Info: PATCH DIMENSION        21.5
Info: ENERGY OUTPUT STEPS    100000
Info: ENERGY EVALUATION STEPS    100000
Info: OUTPUT ENERGY PRECISION 4
Info: CROSSTERM ENERGY INCLUDED IN DIHEDRAL
Info: TIMING OUTPUT STEPS    1000000
Info: PRESSURE OUTPUT STEPS  100000
Info: LANGEVIN DYNAMICS ACTIVE
Info: LANGEVIN TEMPERATURE   30
Info: LANGEVIN USING BBK INTEGRATOR
Info: LANGEVIN DAMPING COEFFICIENT IS 1 INVERSE PS
Info: LANGEVIN DYNAMICS APPLIED TO HYDROGENS
Info: LANGEVIN PISTON PRESSURE CONTROL ACTIVE
Info:        TARGET PRESSURE IS 1.01325 BAR
Info:     OSCILLATION PERIOD IS 50 FS
Info:             DECAY TIME IS 25 FS
Info:     PISTON TEMPERATURE IS 300 K
Info:       PRESSURE CONTROL IS GROUP-BASED
Info:    INITIAL STRAIN RATE IS 0 0 0
Info:       CELL FLUCTUATION IS ISOTROPIC
Info: PARTICLE MESH EWALD (PME) ACTIVE
Info: PME TOLERANCE               1e-06
Info: PME EWALD COEFFICIENT       0.348832
Info: PME INTERPOLATION ORDER     4
Info: PME GRID DIMENSIONS         40 36 36
Info: PME MAXIMUM GRID SPACING    1
Info: FULL ELECTROSTATIC EVALUATION FREQUENCY      2
Info: USING VERLET I (r-RESPA) MTS SCHEME.
Info: C1 SPLITTING OF LONG RANGE ELECTROSTATICS
Info: PLACING ATOMS IN PATCHES BY HYDROGEN GROUPS
Info: RIGID BONDS TO HYDROGEN : ALL
Info:         ERROR TOLERANCE : 1e-08
Info:          MAX ITERATIONS : 100
Info: RIGID WATER USING SETTLE ALGORITHM
Info: RANDOM NUMBER SEED     1743226575
Info: USE HYDROGEN BONDS?    NO
Info: Using AMBER format force field!
Info: AMBER PARM FILE        mobley_430089.prmtop
Info: COORDINATE PDB         mobley_430089.pdb
Info: Exclusions will be read from PARM file!
Info: SCNB (VDW SCALING)     2
Info: USING ARITHMETIC MEAN TO COMBINE L-J SIGMA PARAMETERS
Info: BINARY COORDINATES     mobley_430089_min.coor
Info: SUMMARY OF PARAMETERS:
Info: 7 BONDS
Info: 7 ANGLES
Info:   7 HARMONIC
Info:   0 COSINE-BASED
Info: 4 DIHEDRAL
Info: 0 IMPROPER
Info: 0 CROSSTERM
Info: 0 VDW
Info: 21 VDW_PAIRS
Info: 0 NBTHOLE_PAIRS
Info: STRUCTURE SUMMARY:
Info: 2944 ATOMS
Info: 2943 BONDS
Info: 20 ANGLES
Info: 22 DIHEDRALS
Info: 0 IMPROPERS
Info: 0 CROSSTERMS
Info: 2985 EXCLUSIONS
Info: 2939 RIGID BONDS
Info: 5893 DEGREES OF FREEDOM
Info: 982 HYDROGEN GROUPS
Info: 4 ATOMS IN LARGEST HYDROGEN GROUP
Info: 982 MIGRATION GROUPS
Info: 4 ATOMS IN LARGEST MIGRATION GROUP
Info: TOTAL MASS = 17669.7 amu
Info: TOTAL CHARGE = 9.99928e-05 e
Info: MASS DENSITY = 0.651783 g/cm^3
Info: ATOM DENSITY = 0.065396 atoms/A^3
Info: ADDED 0 IMPLICIT EXCLUSIONS
Info: NONBONDED TABLE R-SQUARED SPACING: 0.0625
Info: NONBONDED TABLE SIZE: 705 POINTS
Info: REMOVING COM VELOCITY 0.0698912 0.0976618 -0.105869
TCL: Running for 100000 steps
ETITLE: TS BOND ANGLE DIHED IMPRP ELECT VDW BOUNDARY MISC KINETIC TOTAL TEMP POTENTIAL TOTAL3 TEMPAVG PRESSURE GPRESSURE VOLUME PRESSAVG GPRESSAVG
ENERGY: 0 0.0301 0.0983 0.0111 0.0000 -13609.1364 2396.0177 0.0000 0.0000 1834.7449 -9378.2344 313.3500 -11212.9793 -9377.8384 313.3500 485.3405 515.8688 45018.0351 485.3405 515.8688
ENERGY: 100000 0.6580 0.6552 0.2050 0.0000 -14293.5455 2606.8290 0.0000 0.0000 186.2059 -11498.9924 31.8015 -11685.1983 -11498.7320 31.0121 1289.1754 1360.9302 28651.5774 3.0149 2.9607
TCL: Running 100000 steps at 60 kelvin.
TCL: Setting parameter langevinTemp to 60
TCL: Running for 100000 steps
ETITLE: TS BOND ANGLE DIHED IMPRP ELECT VDW BOUNDARY MISC KINETIC TOTAL TEMP POTENTIAL TOTAL3 TEMPAVG PRESSURE GPRESSURE VOLUME PRESSAVG GPRESSAVG
ENERGY: 100000 0.6580 0.6552 0.2050 0.0000 -14293.5455 2606.8290 0.0000 0.0000 186.1194 -11499.0788 31.7867 -11685.1983 -11498.6379 31.7867 1303.4470 1360.7596 28651.5774 1303.4470 1360.7596
ENERGY: 200000 2.2981 1.9533 0.2589 0.0000 -14025.0758 2408.5906 0.0000 0.0000 357.1252 -11254.8497 60.9922 -11611.9749 -11253.4783 60.1155 -151.2383 -114.2168 28892.0086 4.9592 5.0415
TCL: Running 100000 steps at 90 kelvin.
TCL: Setting parameter langevinTemp to 90
TCL: Running for 100000 steps
ETITLE: TS BOND ANGLE DIHED IMPRP ELECT VDW BOUNDARY MISC KINETIC TOTAL TEMP POTENTIAL TOTAL3 TEMPAVG PRESSURE GPRESSURE VOLUME PRESSAVG GPRESSAVG
ENERGY: 200000 2.2981 1.9533 0.2589 0.0000 -14025.0758 2408.5906 0.0000 0.0000 356.9519 -11255.0229 60.9626 -11611.9749 -11254.1900 60.9626 -171.5526 -114.4096 28892.0086 -171.5526 -114.4096
ENERGY: 300000 0.6393 1.3237 0.1630 0.0000 -13964.7674 2436.6281 0.0000 0.0000 525.4752 -11000.5381 89.7442 -11526.0133 -10998.5569 90.1297 500.5036 566.8493 28531.3944 4.2554 4.2800
TCL: Running 100000 steps at 120 kelvin.
TCL: Setting parameter langevinTemp to 120
TCL: Running for 100000 steps
ETITLE: TS BOND ANGLE DIHED IMPRP ELECT VDW BOUNDARY MISC KINETIC TOTAL TEMP POTENTIAL TOTAL3 TEMPAVG PRESSURE GPRESSURE VOLUME PRESSAVG GPRESSAVG
ENERGY: 300000 0.6393 1.3237 0.1630 0.0000 -13964.7674 2436.6281 0.0000 0.0000 525.2241 -11000.7892 89.7013 -11526.0133 -10999.7986 89.7013 518.5150 567.1402 28531.3944 518.5150 567.1402
ENERGY: 400000 0.2231 1.4070 0.1435 0.0000 -13847.5064 2433.2661 0.0000 0.0000 725.9644 -10686.5024 123.9850 -11412.4668 -10684.4370 119.7355 871.2309 941.6151 28548.8648 3.6383 3.5897
TCL: Running 100000 steps at 150 kelvin.
TCL: Setting parameter langevinTemp to 150
TCL: Running for 100000 steps
ETITLE: TS BOND ANGLE DIHED IMPRP ELECT VDW BOUNDARY MISC KINETIC TOTAL TEMP POTENTIAL TOTAL3 TEMPAVG PRESSURE GPRESSURE VOLUME PRESSAVG GPRESSAVG
ENERGY: 400000 0.2231 1.4070 0.1435 0.0000 -13847.5064 2433.2661 0.0000 0.0000 725.6296 -10686.8372 123.9279 -11412.4668 -10685.5618 123.9279 901.7481 941.7164 28548.8648 901.7481 941.7164
ENERGY: 500000 0.0975 1.7872 0.2651 0.0000 -13504.8398 2268.8697 0.0000 0.0000 880.3891 -10353.4312 150.3587 -11233.8203 -10351.0021 149.9003 202.0962 273.0964 28820.7978 3.6899 3.5640
TCL: Running 100000 steps at 180 kelvin.
TCL: Setting parameter langevinTemp to 180
TCL: Running for 100000 steps
ETITLE: TS BOND ANGLE DIHED IMPRP ELECT VDW BOUNDARY MISC KINETIC TOTAL TEMP POTENTIAL TOTAL3 TEMPAVG PRESSURE GPRESSURE VOLUME PRESSAVG GPRESSAVG
ENERGY: 500000 0.0975 1.7872 0.2651 0.0000 -13504.8398 2268.8697 0.0000 0.0000 879.9594 -10353.8609 150.2853 -11233.8203 -10351.8611 150.2853 206.9145 273.5920 28820.7978 206.9145 273.5920
ENERGY: 600000 0.3339 3.8599 0.0979 0.0000 -13186.2505 2161.4324 0.0000 0.0000 1030.8950 -9989.6313 176.0631 -11020.5263 -9989.0097 179.7381 197.8461 275.1266 28913.0103 4.4621 4.5585
TCL: Running 100000 steps at 210 kelvin.
TCL: Setting parameter langevinTemp to 210
TCL: Running for 100000 steps
ETITLE: TS BOND ANGLE DIHED IMPRP ELECT VDW BOUNDARY MISC KINETIC TOTAL TEMP POTENTIAL TOTAL3 TEMPAVG PRESSURE GPRESSURE VOLUME PRESSAVG GPRESSAVG
ENERGY: 600000 0.3339 3.8599 0.0979 0.0000 -13186.2505 2161.4324 0.0000 0.0000 1030.3701 -9990.1562 175.9735 -11020.5263 -9988.2394 175.9735 204.3800 272.2717 28913.0103 204.3800 272.2717
ENERGY: 700000 0.9979 4.6352 0.1466 0.0000 -12593.2152 2073.0012 0.0000 0.0000 1252.6292 -9261.8051 213.9324 -10514.4343 -9258.7282 209.9991 1510.1025 1570.4546 28554.3738 3.9734 4.1206
TCL: Running 100000 steps at 240 kelvin.
TCL: Setting parameter langevinTemp to 240
TCL: Running for 100000 steps
ETITLE: TS BOND ANGLE DIHED IMPRP ELECT VDW BOUNDARY MISC KINETIC TOTAL TEMP POTENTIAL TOTAL3 TEMPAVG PRESSURE GPRESSURE VOLUME PRESSAVG GPRESSAVG
ENERGY: 700000 0.9979 4.6352 0.1466 0.0000 -12593.2152 2073.0012 0.0000 0.0000 1252.0114 -9262.4229 213.8268 -10514.4343 -9260.6480 213.8268 1477.9589 1570.2048 28554.3738 1477.9589 1570.2048
ENERGY: 800000 0.7144 4.8609 0.7757 0.0000 -11668.8951 1638.2979 0.0000 0.0000 1398.2735 -8625.9727 238.8065 -10024.2462 -8624.2182 240.1861 -706.7989 -631.7694 29143.5789 5.6287 5.4577
TCL: Running 100000 steps at 270 kelvin.
TCL: Setting parameter langevinTemp to 270
TCL: Running for 100000 steps
ETITLE: TS BOND ANGLE DIHED IMPRP ELECT VDW BOUNDARY MISC KINETIC TOTAL TEMP POTENTIAL TOTAL3 TEMPAVG PRESSURE GPRESSURE VOLUME PRESSAVG GPRESSAVG
ENERGY: 800000 0.7144 4.8609 0.7757 0.0000 -11668.8951 1638.2979 0.0000 0.0000 1397.5612 -8626.6850 238.6848 -10024.2462 -8624.5951 238.6848 -714.3195 -633.4795 29143.5789 -714.3195 -633.4795
ENERGY: 900000 1.7274 6.0740 0.2551 0.0000 -11053.8704 1495.9727 0.0000 0.0000 1595.5236 -7954.3177 272.4941 -9549.8413 -7951.0221 270.4233 -327.3905 -354.4636 29968.9552 4.1965 4.1139
TCL: Running 1000000 steps at 300 kelvin.
TCL: Setting parameter langevinTemp to 300
TCL: Running for 1000000 steps
ETITLE: TS BOND ANGLE DIHED IMPRP ELECT VDW BOUNDARY MISC KINETIC TOTAL TEMP POTENTIAL TOTAL3 TEMPAVG PRESSURE GPRESSURE VOLUME PRESSAVG GPRESSAVG
ENERGY: 900000 1.7274 6.0740 0.2551 0.0000 -11053.8704 1495.9727 0.0000 0.0000 1594.7457 -7955.0956 272.3613 -9549.8413 -7952.4634 272.3613 -429.3203 -353.9018 29968.9552 -429.3203 -353.9018
ENERGY: 1100000 0.5473 4.8729 0.3733 0.0000 -10666.6955 1421.1643 0.0000 0.0000 1759.5636 -7480.1740 300.5100 -9239.7376 -7476.9792 300.1726 -236.6118 -116.0582 30609.6196 3.6696 3.8812
ENERGY: 1300000 1.4030 10.2643 0.2583 0.0000 -10765.3410 1498.6824 0.0000 0.0000 1734.5667 -7520.1663 296.2409 -9254.7330 -7515.8925 299.3491 209.7284 353.6594 30381.8209 3.5076 3.4129
ENERGY: 1500000 0.6185 3.1616 0.7474 0.0000 -10581.1893 1408.4691 0.0000 0.0000 1744.1140 -7424.0787 297.8714 -9168.1927 -7419.8824 299.6578 -97.4744 -56.3270 30436.5870 4.7008 4.4796
ENERGY: 1700000 1.9293 4.6828 0.1455 0.0000 -10672.8435 1459.2752 0.0000 0.0000 1721.9956 -7484.8151 294.0939 -9206.8107 -7481.5079 300.9451 280.5803 295.9716 30579.5635 2.3081 2.2735
ENERGY: 1900000 1.8057 4.7472 0.6067 0.0000 -10766.5825 1522.8111 0.0000 0.0000 1744.4319 -7492.1800 297.9257 -9236.6119 -7489.3677 300.6321 522.3596 617.2129 30421.3836 3.9619 4.0531
TCL: Exiting due to exit command.
