Info: SIMULATION PARAMETERS:
Info: TIMESTEP               2
Info: NUMBER OF STEPS        0
Info: STEPS PER CYCLE        10
Info: PERIODIC CELL BASIS 1  36.281 0 0
Info: PERIODIC CELL BASIS 2  0 35.779 0
Info: PERIODIC CELL BASIS 3  0 0 34.933
Info: PERIODIC CELL CENTER   0 0 0
Info: WRAPPING WATERS AROUND PERIODIC BOUNDARIES ON OUTPUT.
Info: WRAPPING ALL CLUSTERS AROUND PERIODIC BOUNDARIES ON OUTPUT.
Info: FIRST LDB TIMESTEP     50
Info: LAST LDB TIMESTEP     -1
Info: HOM BACKGROUND SCALING 1
Info: PME BACKGROUND SCALING 1
Info: MIN ATOMS PER PATCH    40
Info: EMPTY PATCH LOAD       40 ATOMS
Info: INITIAL TEMPERATURE    300
Info: CENTER OF MASS MOVING INITIALLY? NO
Info: DIELECTRIC             1
Info: EXCLUDE                SCALED ONE-FOUR
Info: 1-4 ELECTROSTATICS SCALED BY 0.833333
Info: MODIFIED 1-4 VDW PARAMETERS WILL BE USED
Info: DCD FILENAME           mobley_3269565_equil.dcd
Info: DCD FREQUENCY          100000
Info: DCD FIRST STEP         100000
Info: DCD FILE WILL CONTAIN UNIT CELL DATA
Info: XST FILENAME           mobley_3269565_equil.xst
Info: XST FREQUENCY          100000
Info: NO VELOCITY DCD OUTPUT
Info: NO FORCE DCD OUTPUT
Info: OUTPUT FILENAME        mobley_3269565_equil
Info: BINARY OUTPUT FILES WILL BE USED
Info: RESTART FILENAME       mobley_3269565_equil.restart
Info: RESTART FREQUENCY      100000
Info: BINARY RESTART FILES WILL BE USED
Info: CUTOFF                 9
Info: PAIRLIST DISTANCE      11
Info: PAIRLIST SHRINK RATE   0.01
Info: PAIRLIST GROW RATE     0.01
Info: PAIRLIST TRIGGER       0.3
Info: PAIRLISTS PER CYCLE    2
Info: PAIRLISTS ENABLED
Info: MARGIN                 8
Info: HYDROGEN GROUP CUTOFF  2.5
Info: PATCH DIMENSION        21.5
Info: ENERGY OUTPUT STEPS    100000
Info: ENERGY EVALUATION STEPS    100000
Info: OUTPUT ENERGY PRECISION 4
Info: CROSSTERM ENERGY INCLUDED IN DIHEDRAL
Info: TIMING OUTPUT STEPS    1000000
Info: PRESSURE OUTPUT STEPS  100000
Info: LANGEVIN DYNAMICS ACTIVE
Info: LANGEVIN TEMPERATURE   30
Info: LANGEVIN USING BBK INTEGRATOR
Info: LANGEVIN DAMPING COEFFICIENT IS 1 INVERSE PS
Info: LANGEVIN DYNAMICS APPLIED TO HYDROGENS
Info: LANGEVIN PISTON PRESSURE CONTROL ACTIVE
Info:        TARGET PRESSURE IS 1.01325 BAR
Info:     OSCILLATION PERIOD IS 50 FS
Info:             DECAY TIME IS 25 FS
Info:     PISTON TEMPERATURE IS 300 K
Info:       PRESSURE CONTROL IS GROUP-BASED
Info:    INITIAL STRAIN RATE IS 0 0 0
Info:       CELL FLUCTUATION IS ISOTROPIC
Info: PARTICLE MESH EWALD (PME) ACTIVE
Info: PME TOLERANCE               1e-06
Info: PME EWALD COEFFICIENT       0.348832
Info: PME INTERPOLATION ORDER     4
Info: PME GRID DIMENSIONS         40 36 36
Info: PME MAXIMUM GRID SPACING    1
Info: FULL ELECTROSTATIC EVALUATION FREQUENCY      2
Info: USING VERLET I (r-RESPA) MTS SCHEME.
Info: C1 SPLITTING OF LONG RANGE ELECTROSTATICS
Info: PLACING ATOMS IN PATCHES BY HYDROGEN GROUPS
Info: RIGID BONDS TO HYDROGEN : ALL
Info:         ERROR TOLERANCE : 1e-08
Info:          MAX ITERATIONS : 100
Info: RIGID WATER USING SETTLE ALGORITHM
Info: RANDOM NUMBER SEED     1743232108
Info: USE HYDROGEN BONDS?    NO
Info: Using AMBER format force field!
Info: AMBER PARM FILE        mobley_3269565.prmtop
Info: COORDINATE PDB         mobley_3269565.pdb
Info: Exclusions will be read from PARM file!
Info: SCNB (VDW SCALING)     2
Info: USING ARITHMETIC MEAN TO COMBINE L-J SIGMA PARAMETERS
Info: BINARY COORDINATES     mobley_3269565_min.coor
Info: SUMMARY OF PARAMETERS:
Info: 6 BONDS
Info: 8 ANGLES
Info: 7 DIHEDRAL
Info: 0 IMPROPER
Info: 0 CROSSTERM
Info: 0 VDW
Info: 21 VDW_PAIRS
Info: 0 NBTHOLE_PAIRS
Info: STRUCTURE SUMMARY:
Info: 2964 ATOMS
Info: 2963 BONDS
Info: 25 ANGLES
Info: 32 DIHEDRALS
Info: 0 IMPROPERS
Info: 0 CROSSTERMS
Info: 3012 EXCLUSIONS
Info: 2959 RIGID BONDS
Info: 5933 DEGREES OF FREEDOM
Info: 988 HYDROGEN GROUPS
Info: 4 ATOMS IN LARGEST HYDROGEN GROUP
Info: 988 MIGRATION GROUPS
Info: 4 ATOMS IN LARGEST MIGRATION GROUP
Info: TOTAL MASS = 17783.8 amu
Info: TOTAL CHARGE = -0.000399977 e
Info: MASS DENSITY = 0.651241 g/cm^3
Info: ATOM DENSITY = 0.0653634 atoms/A^3
Info: ADDED 0 IMPLICIT EXCLUSIONS
Info: NONBONDED TABLE R-SQUARED SPACING: 0.0625
Info: NONBONDED TABLE SIZE: 705 POINTS
Info: REMOVING COM VELOCITY 0.0297501 0.153516 -0.309187
TCL: Running for 100000 steps
ETITLE: TS BOND ANGLE DIHED IMPRP ELECT VDW BOUNDARY MISC KINETIC TOTAL TEMP POTENTIAL TOTAL3 TEMPAVG PRESSURE GPRESSURE VOLUME PRESSAVG GPRESSAVG
ENERGY: 0 0.0872 0.4161 2.0800 0.0000 -13729.3320 2438.0486 0.0000 0.0000 1683.6428 -9605.0572 285.6051 -11288.7000 -9604.7366 285.6051 477.0101 506.6260 45346.4539 477.0101 506.6260
ENERGY: 100000 0.1425 0.8234 2.3364 0.0000 -14285.5243 2468.8105 0.0000 0.0000 180.5511 -11632.8605 30.6278 -11813.4116 -11632.4373 30.9225 -93.4871 -31.3188 28737.7988 3.6343 3.5866
TCL: Running 100000 steps at 60 kelvin.
TCL: Setting parameter langevinTemp to 60
TCL: Running for 100000 steps
ETITLE: TS BOND ANGLE DIHED IMPRP ELECT VDW BOUNDARY MISC KINETIC TOTAL TEMP POTENTIAL TOTAL3 TEMPAVG PRESSURE GPRESSURE VOLUME PRESSAVG GPRESSAVG
ENERGY: 100000 0.1425 0.8234 2.3364 0.0000 -14285.5243 2468.8105 0.0000 0.0000 180.4659 -11632.9457 30.6134 -11813.4116 -11632.5781 30.6134 -96.6952 -31.4229 28737.7988 -96.6952 -31.4229
ENERGY: 200000 0.1960 1.5000 2.0005 0.0000 -14141.7702 2426.4639 0.0000 0.0000 354.7491 -11356.8606 60.1779 -11711.6098 -11355.3267 59.9730 -96.4827 -58.4838 28871.9288 3.3065 3.2945
TCL: Running 100000 steps at 90 kelvin.
TCL: Setting parameter langevinTemp to 90
TCL: Running for 100000 steps
ETITLE: TS BOND ANGLE DIHED IMPRP ELECT VDW BOUNDARY MISC KINETIC TOTAL TEMP POTENTIAL TOTAL3 TEMPAVG PRESSURE GPRESSURE VOLUME PRESSAVG GPRESSAVG
ENERGY: 200000 0.1960 1.5000 2.0005 0.0000 -14141.7702 2426.4639 0.0000 0.0000 354.5742 -11357.0356 60.1483 -11711.6098 -11356.0953 60.1483 -114.7908 -58.7989 28871.9288 -114.7908 -58.7989
ENERGY: 300000 0.2137 1.8493 2.3505 0.0000 -13980.1057 2383.0065 0.0000 0.0000 528.2859 -11064.3998 89.6159 -11592.6857 -11062.8922 89.8946 105.9417 160.0675 28648.7682 4.4055 4.3649
TCL: Running 100000 steps at 120 kelvin.
TCL: Setting parameter langevinTemp to 120
TCL: Running for 100000 steps
ETITLE: TS BOND ANGLE DIHED IMPRP ELECT VDW BOUNDARY MISC KINETIC TOTAL TEMP POTENTIAL TOTAL3 TEMPAVG PRESSURE GPRESSURE VOLUME PRESSAVG GPRESSAVG
ENERGY: 300000 0.2137 1.8493 2.3505 0.0000 -13980.1057 2383.0065 0.0000 0.0000 528.0082 -11064.6775 89.5688 -11592.6857 -11063.7903 89.5688 107.9135 160.0149 28648.7682 107.9135 160.0149
ENERGY: 400000 0.5897 3.1909 2.8234 0.0000 -13866.3315 2381.5933 0.0000 0.0000 718.2947 -10759.8393 121.8481 -11478.1341 -10757.4782 119.8544 629.9070 708.8569 28534.1458 3.9467 3.8501
TCL: Running 100000 steps at 150 kelvin.
TCL: Setting parameter langevinTemp to 150
TCL: Running for 100000 steps
ETITLE: TS BOND ANGLE DIHED IMPRP ELECT VDW BOUNDARY MISC KINETIC TOTAL TEMP POTENTIAL TOTAL3 TEMPAVG PRESSURE GPRESSURE VOLUME PRESSAVG GPRESSAVG
ENERGY: 400000 0.5897 3.1909 2.8234 0.0000 -13866.3315 2381.5933 0.0000 0.0000 717.9437 -10760.1904 121.7885 -11478.1341 -10758.8518 121.7885 647.8692 708.9401 28534.1458 647.8692 708.9401
ENERGY: 500000 0.6732 1.7619 2.6989 0.0000 -13729.8295 2362.1157 0.0000 0.0000 876.9777 -10485.6021 148.7663 -11362.5798 -10482.4188 150.0393 647.7599 721.7671 28800.4593 4.7730 4.9341
TCL: Running 100000 steps at 180 kelvin.
TCL: Setting parameter langevinTemp to 180
TCL: Running for 100000 steps
ETITLE: TS BOND ANGLE DIHED IMPRP ELECT VDW BOUNDARY MISC KINETIC TOTAL TEMP POTENTIAL TOTAL3 TEMPAVG PRESSURE GPRESSURE VOLUME PRESSAVG GPRESSAVG
ENERGY: 500000 0.6732 1.7619 2.6989 0.0000 -13729.8295 2362.1157 0.0000 0.0000 876.5353 -10486.0444 148.6913 -11362.5798 -10484.4298 148.6913 662.0532 721.0617 28800.4593 662.0532 721.0617
ENERGY: 600000 1.3393 5.8876 2.8503 0.0000 -13167.8538 2134.4706 0.0000 0.0000 1079.4800 -9943.8260 183.1178 -11023.3060 -9939.5607 180.3816 288.9779 318.5511 28772.0930 4.2300 4.3328
TCL: Running 100000 steps at 210 kelvin.
TCL: Setting parameter langevinTemp to 210
TCL: Running for 100000 steps
ETITLE: TS BOND ANGLE DIHED IMPRP ELECT VDW BOUNDARY MISC KINETIC TOTAL TEMP POTENTIAL TOTAL3 TEMPAVG PRESSURE GPRESSURE VOLUME PRESSAVG GPRESSAVG
ENERGY: 600000 1.3393 5.8876 2.8503 0.0000 -13167.8538 2134.4706 0.0000 0.0000 1078.9346 -9944.3714 183.0253 -11023.3060 -9942.9074 183.0253 247.5855 319.3672 28772.0930 247.5855 319.3672
ENERGY: 700000 2.4269 3.7585 3.0293 0.0000 -12542.0169 1913.0996 0.0000 0.0000 1214.3217 -9405.3809 205.9917 -10619.7026 -9402.3266 209.8707 -105.1877 -44.0411 28743.3582 1.4980 1.5798
TCL: Running 100000 steps at 240 kelvin.
TCL: Setting parameter langevinTemp to 240
TCL: Running for 100000 steps
ETITLE: TS BOND ANGLE DIHED IMPRP ELECT VDW BOUNDARY MISC KINETIC TOTAL TEMP POTENTIAL TOTAL3 TEMPAVG PRESSURE GPRESSURE VOLUME PRESSAVG GPRESSAVG
ENERGY: 700000 2.4269 3.7585 3.0293 0.0000 -12542.0169 1913.0996 0.0000 0.0000 1213.6911 -9406.0115 205.8848 -10619.7026 -9404.0047 205.8848 -125.2141 -42.9281 28743.3582 -125.2141 -42.9281
ENERGY: 800000 0.7828 4.9127 2.8976 0.0000 -11898.8782 1765.6730 0.0000 0.0000 1412.5594 -8712.0527 239.6198 -10124.6121 -8709.7544 239.7663 237.2476 312.5158 29219.1466 2.5516 2.5530
TCL: Running 100000 steps at 270 kelvin.
TCL: Setting parameter langevinTemp to 270
TCL: Running for 100000 steps
ETITLE: TS BOND ANGLE DIHED IMPRP ELECT VDW BOUNDARY MISC KINETIC TOTAL TEMP POTENTIAL TOTAL3 TEMPAVG PRESSURE GPRESSURE VOLUME PRESSAVG GPRESSAVG
ENERGY: 800000 0.7828 4.9127 2.8976 0.0000 -11898.8782 1765.6730 0.0000 0.0000 1411.8527 -8712.7593 239.5000 -10124.6121 -8710.6587 239.5000 230.7853 312.9422 29219.1466 230.7853 312.9422
ENERGY: 900000 6.3321 6.3308 1.9696 0.0000 -11227.8518 1540.9759 0.0000 0.0000 1587.5753 -8084.6679 269.3087 -9672.2433 -8081.7146 269.8250 -348.9938 -305.3366 29941.7967 3.2083 3.1240
TCL: Running 1000000 steps at 300 kelvin.
TCL: Setting parameter langevinTemp to 300
TCL: Running for 1000000 steps
ETITLE: TS BOND ANGLE DIHED IMPRP ELECT VDW BOUNDARY MISC KINETIC TOTAL TEMP POTENTIAL TOTAL3 TEMPAVG PRESSURE GPRESSURE VOLUME PRESSAVG GPRESSAVG
ENERGY: 900000 6.3321 6.3308 1.9696 0.0000 -11227.8518 1540.9759 0.0000 0.0000 1586.7932 -8085.4501 269.1760 -9672.2433 -8082.7556 269.1760 -402.7952 -306.3092 29941.7967 -402.7952 -306.3092
ENERGY: 1100000 1.3002 4.0271 3.4963 0.0000 -10852.9910 1514.6666 0.0000 0.0000 1788.3635 -7541.1372 303.3694 -9329.5007 -7538.7800 301.0719 807.9543 812.9427 29957.0178 2.6868 2.5810
ENERGY: 1300000 1.4418 11.1201 2.1166 0.0000 -10833.0336 1535.6721 0.0000 0.0000 1752.0101 -7530.6728 297.2026 -9282.6829 -7526.4681 300.0305 690.3761 781.4449 30349.4332 3.0633 3.0530
ENERGY: 1500000 0.7900 10.7021 3.2556 0.0000 -10724.7360 1483.6648 0.0000 0.0000 1758.4951 -7467.8285 298.3027 -9226.3235 -7464.9549 299.8457 560.7056 679.2741 30384.4899 2.1578 2.0641
ENERGY: 1700000 0.9717 8.5468 3.2235 0.0000 -10653.1240 1335.6186 0.0000 0.0000 1810.4965 -7494.2669 307.1240 -9304.7634 -7488.4129 300.0690 -1029.8380 -884.9913 30944.7423 3.2195 3.1912
ENERGY: 1900000 2.6105 6.9070 4.1023 0.0000 -10745.2759 1488.8947 0.0000 0.0000 1737.9059 -7504.8555 294.8100 -9242.7614 -7500.3210 299.5337 197.0215 273.1672 30942.3977 4.0252 4.1248
TCL: Exiting due to exit command.
