Info: SIMULATION PARAMETERS:
Info: TIMESTEP               2
Info: NUMBER OF STEPS        0
Info: STEPS PER CYCLE        10
Info: PERIODIC CELL BASIS 1  38.861 0 0
Info: PERIODIC CELL BASIS 2  0 35.411 0
Info: PERIODIC CELL BASIS 3  0 0 33.088
Info: PERIODIC CELL CENTER   0 0 0
Info: WRAPPING WATERS AROUND PERIODIC BOUNDARIES ON OUTPUT.
Info: WRAPPING ALL CLUSTERS AROUND PERIODIC BOUNDARIES ON OUTPUT.
Info: FIRST LDB TIMESTEP     50
Info: LAST LDB TIMESTEP     -1
Info: HOM BACKGROUND SCALING 1
Info: PME BACKGROUND SCALING 1
Info: MIN ATOMS PER PATCH    40
Info: EMPTY PATCH LOAD       40 ATOMS
Info: INITIAL TEMPERATURE    300
Info: CENTER OF MASS MOVING INITIALLY? NO
Info: DIELECTRIC             1
Info: EXCLUDE                SCALED ONE-FOUR
Info: 1-4 ELECTROSTATICS SCALED BY 0.833333
Info: MODIFIED 1-4 VDW PARAMETERS WILL BE USED
Info: DCD FILENAME           mobley_2518989_equil.dcd
Info: DCD FREQUENCY          100000
Info: DCD FIRST STEP         100000
Info: DCD FILE WILL CONTAIN UNIT CELL DATA
Info: XST FILENAME           mobley_2518989_equil.xst
Info: XST FREQUENCY          100000
Info: NO VELOCITY DCD OUTPUT
Info: NO FORCE DCD OUTPUT
Info: OUTPUT FILENAME        mobley_2518989_equil
Info: BINARY OUTPUT FILES WILL BE USED
Info: RESTART FILENAME       mobley_2518989_equil.restart
Info: RESTART FREQUENCY      100000
Info: BINARY RESTART FILES WILL BE USED
Info: CUTOFF                 9
Info: PAIRLIST DISTANCE      11
Info: PAIRLIST SHRINK RATE   0.01
Info: PAIRLIST GROW RATE     0.01
Info: PAIRLIST TRIGGER       0.3
Info: PAIRLISTS PER CYCLE    2
Info: PAIRLISTS ENABLED
Info: MARGIN                 8
Info: HYDROGEN GROUP CUTOFF  2.5
Info: PATCH DIMENSION        21.5
Info: ENERGY OUTPUT STEPS    100000
Info: ENERGY EVALUATION STEPS    100000
Info: OUTPUT ENERGY PRECISION 4
Info: CROSSTERM ENERGY INCLUDED IN DIHEDRAL
Info: TIMING OUTPUT STEPS    1000000
Info: PRESSURE OUTPUT STEPS  100000
Info: LANGEVIN DYNAMICS ACTIVE
Info: LANGEVIN TEMPERATURE   30
Info: LANGEVIN USING BBK INTEGRATOR
Info: LANGEVIN DAMPING COEFFICIENT IS 1 INVERSE PS
Info: LANGEVIN DYNAMICS APPLIED TO HYDROGENS
Info: LANGEVIN PISTON PRESSURE CONTROL ACTIVE
Info:        TARGET PRESSURE IS 1.01325 BAR
Info:     OSCILLATION PERIOD IS 50 FS
Info:             DECAY TIME IS 25 FS
Info:     PISTON TEMPERATURE IS 300 K
Info:       PRESSURE CONTROL IS GROUP-BASED
Info:    INITIAL STRAIN RATE IS 0 0 0
Info:       CELL FLUCTUATION IS ISOTROPIC
Info: PARTICLE MESH EWALD (PME) ACTIVE
Info: PME TOLERANCE               1e-06
Info: PME EWALD COEFFICIENT       0.348832
Info: PME INTERPOLATION ORDER     4
Info: PME GRID DIMENSIONS         40 36 36
Info: PME MAXIMUM GRID SPACING    1
Info: FULL ELECTROSTATIC EVALUATION FREQUENCY      2
Info: USING VERLET I (r-RESPA) MTS SCHEME.
Info: C1 SPLITTING OF LONG RANGE ELECTROSTATICS
Info: PLACING ATOMS IN PATCHES BY HYDROGEN GROUPS
Info: RIGID BONDS TO HYDROGEN : ALL
Info:         ERROR TOLERANCE : 1e-08
Info:          MAX ITERATIONS : 100
Info: RIGID WATER USING SETTLE ALGORITHM
Info: RANDOM NUMBER SEED     1743265020
Info: USE HYDROGEN BONDS?    NO
Info: Using AMBER format force field!
Info: AMBER PARM FILE        mobley_2518989.prmtop
Info: COORDINATE PDB         mobley_2518989.pdb
Info: Exclusions will be read from PARM file!
Info: SCNB (VDW SCALING)     2
Info: USING ARITHMETIC MEAN TO COMBINE L-J SIGMA PARAMETERS
Info: BINARY COORDINATES     mobley_2518989_min.coor
Info: SUMMARY OF PARAMETERS:
Info: 18 BONDS
Info: 28 ANGLES
Info:   28 HARMONIC
Info:   0 COSINE-BASED
Info: 19 DIHEDRAL
Info: 0 IMPROPER
Info: 0 CROSSTERM
Info: 0 VDW
Info: 105 VDW_PAIRS
Info: 0 NBTHOLE_PAIRS
Info: STRUCTURE SUMMARY:
Info: 2968 ATOMS
Info: 2969 BONDS
Info: 72 ANGLES
Info: 116 DIHEDRALS
Info: 0 IMPROPERS
Info: 0 CROSSTERMS
Info: 3124 EXCLUSIONS
Info: 2945 RIGID BONDS
Info: 5959 DEGREES OF FREEDOM
Info: 999 HYDROGEN GROUPS
Info: 4 ATOMS IN LARGEST HYDROGEN GROUP
Info: 999 MIGRATION GROUPS
Info: 4 ATOMS IN LARGEST MIGRATION GROUP
Info: TOTAL MASS = 17977.4 amu
Info: TOTAL CHARGE = 0.000200024 e
Info: MASS DENSITY = 0.655639 g/cm^3
Info: ATOM DENSITY = 0.065184 atoms/A^3
Info: ADDED 0 IMPLICIT EXCLUSIONS
Info: NONBONDED TABLE R-SQUARED SPACING: 0.0625
Info: NONBONDED TABLE SIZE: 705 POINTS
Info: REMOVING COM VELOCITY 0.0877738 -0.107882 0.102533
TCL: Running for 100000 steps
ETITLE: TS BOND ANGLE DIHED IMPRP ELECT VDW BOUNDARY MISC KINETIC TOTAL TEMP POTENTIAL TOTAL3 TEMPAVG PRESSURE GPRESSURE VOLUME PRESSAVG GPRESSAVG
ENERGY: 0 0.5174 21.0612 34.9145 0.0000 -13746.9027 2380.6075 0.0000 0.0000 1735.3846 -9574.4174 293.0979 -11309.8020 -9574.0663 293.0979 482.2280 510.2168 45532.6241 482.2280 510.2168
ENERGY: 100000 1.5835 22.7067 35.7885 0.0000 -14277.9497 2381.6334 0.0000 0.0000 179.2171 -11657.0205 30.2689 -11836.2376 -11656.6665 30.9016 -627.2603 -569.9325 29058.2363 3.3217 3.3288
TCL: Running 100000 steps at 60 kelvin.
TCL: Setting parameter langevinTemp to 60
TCL: Running for 100000 steps
ETITLE: TS BOND ANGLE DIHED IMPRP ELECT VDW BOUNDARY MISC KINETIC TOTAL TEMP POTENTIAL TOTAL3 TEMPAVG PRESSURE GPRESSURE VOLUME PRESSAVG GPRESSAVG
ENERGY: 100000 1.5835 22.7067 35.7885 0.0000 -14277.9497 2381.6334 0.0000 0.0000 179.1295 -11657.1082 30.2541 -11836.2376 -11656.6427 30.2541 -632.3817 -570.1155 29058.2363 -632.3817 -570.1155
ENERGY: 200000 1.3184 24.2995 31.9024 0.0000 -14226.9442 2397.2260 0.0000 0.0000 357.9847 -11414.2132 60.4619 -11772.1980 -11413.6844 59.9617 -289.6237 -218.7910 28969.6930 3.2181 3.1881
TCL: Running 100000 steps at 90 kelvin.
TCL: Setting parameter langevinTemp to 90
TCL: Running for 100000 steps
ETITLE: TS BOND ANGLE DIHED IMPRP ELECT VDW BOUNDARY MISC KINETIC TOTAL TEMP POTENTIAL TOTAL3 TEMPAVG PRESSURE GPRESSURE VOLUME PRESSAVG GPRESSAVG
ENERGY: 200000 1.3184 24.2995 31.9024 0.0000 -14226.9442 2397.2260 0.0000 0.0000 357.8079 -11414.3900 60.4320 -11772.1980 -11413.5948 60.4320 -279.5714 -219.3349 28969.6930 -279.5714 -219.3349
ENERGY: 300000 2.1114 27.7105 29.2803 0.0000 -14099.5724 2343.1332 0.0000 0.0000 538.6892 -11158.6477 90.9820 -11697.3370 -11157.6563 89.8848 46.9068 69.5075 28498.7602 4.0269 4.0370
TCL: Running 100000 steps at 120 kelvin.
TCL: Setting parameter langevinTemp to 120
TCL: Running for 100000 steps
ETITLE: TS BOND ANGLE DIHED IMPRP ELECT VDW BOUNDARY MISC KINETIC TOTAL TEMP POTENTIAL TOTAL3 TEMPAVG PRESSURE GPRESSURE VOLUME PRESSAVG GPRESSAVG
ENERGY: 300000 2.1114 27.7105 29.2803 0.0000 -14099.5724 2343.1332 0.0000 0.0000 538.4113 -11158.9257 90.9350 -11697.3370 -11157.6322 90.9350 22.5179 68.7458 28498.7602 22.5179 68.7458
ENERGY: 400000 2.9240 28.7868 31.0848 0.0000 -13884.7659 2287.3688 0.0000 0.0000 703.9030 -10830.6985 118.8858 -11534.6015 -10828.9137 120.0799 -208.4231 -150.9660 28984.9510 4.2519 4.1733
TCL: Running 100000 steps at 150 kelvin.
TCL: Setting parameter langevinTemp to 150
TCL: Running for 100000 steps
ETITLE: TS BOND ANGLE DIHED IMPRP ELECT VDW BOUNDARY MISC KINETIC TOTAL TEMP POTENTIAL TOTAL3 TEMPAVG PRESSURE GPRESSURE VOLUME PRESSAVG GPRESSAVG
ENERGY: 400000 2.9240 28.7868 31.0848 0.0000 -13884.7659 2287.3688 0.0000 0.0000 703.5417 -10831.0598 118.8247 -11534.6015 -10829.7615 118.8247 -182.9851 -150.8130 28984.9510 -182.9851 -150.8130
ENERGY: 500000 5.1416 28.9301 32.3203 0.0000 -13628.9400 2230.8946 0.0000 0.0000 859.9900 -10471.6634 145.2481 -11331.6534 -10468.3225 149.7720 66.9489 172.8725 28996.6708 2.6553 2.7223
TCL: Running 100000 steps at 180 kelvin.
TCL: Setting parameter langevinTemp to 180
TCL: Running for 100000 steps
ETITLE: TS BOND ANGLE DIHED IMPRP ELECT VDW BOUNDARY MISC KINETIC TOTAL TEMP POTENTIAL TOTAL3 TEMPAVG PRESSURE GPRESSURE VOLUME PRESSAVG GPRESSAVG
ENERGY: 500000 5.1416 28.9301 32.3203 0.0000 -13628.9400 2230.8946 0.0000 0.0000 859.5629 -10472.0906 145.1759 -11331.6534 -10470.3041 145.1759 118.8848 174.0195 28996.6708 118.8848 174.0195
ENERGY: 600000 4.5104 32.5603 27.6875 0.0000 -13272.8448 2135.9644 0.0000 0.0000 1088.8550 -9983.2672 183.9022 -11072.1221 -9979.7178 179.6070 405.1449 428.6006 28887.0180 5.0060 5.1496
TCL: Running 100000 steps at 210 kelvin.
TCL: Setting parameter langevinTemp to 210
TCL: Running for 100000 steps
ETITLE: TS BOND ANGLE DIHED IMPRP ELECT VDW BOUNDARY MISC KINETIC TOTAL TEMP POTENTIAL TOTAL3 TEMPAVG PRESSURE GPRESSURE VOLUME PRESSAVG GPRESSAVG
ENERGY: 600000 4.5104 32.5603 27.6875 0.0000 -13272.8448 2135.9644 0.0000 0.0000 1088.2992 -9983.8229 183.8084 -11072.1221 -9981.9958 183.8084 379.0465 429.9959 28887.0180 379.0465 429.9959
ENERGY: 700000 4.9225 34.5223 26.9586 0.0000 -12467.0800 1810.3673 0.0000 0.0000 1220.9116 -9369.3977 206.2060 -10590.3093 -9365.9315 210.0454 -315.9540 -248.8005 29057.4302 3.2193 3.1974
TCL: Running 100000 steps at 240 kelvin.
TCL: Setting parameter langevinTemp to 240
TCL: Running for 100000 steps
ETITLE: TS BOND ANGLE DIHED IMPRP ELECT VDW BOUNDARY MISC KINETIC TOTAL TEMP POTENTIAL TOTAL3 TEMPAVG PRESSURE GPRESSURE VOLUME PRESSAVG GPRESSAVG
ENERGY: 700000 4.9225 34.5223 26.9586 0.0000 -12467.0800 1810.3673 0.0000 0.0000 1220.2951 -9370.0142 206.1018 -10590.3093 -9367.5079 206.1018 -326.7253 -248.4872 29057.4302 -326.7253 -248.4872
ENERGY: 800000 7.9477 42.8275 27.1959 0.0000 -11842.2448 1656.7243 0.0000 0.0000 1411.4999 -8696.0495 238.3954 -10107.5494 -8691.4039 240.1335 -54.9817 37.0015 29226.2841 1.9574 1.9180
TCL: Running 100000 steps at 270 kelvin.
TCL: Setting parameter langevinTemp to 270
TCL: Running for 100000 steps
ETITLE: TS BOND ANGLE DIHED IMPRP ELECT VDW BOUNDARY MISC KINETIC TOTAL TEMP POTENTIAL TOTAL3 TEMPAVG PRESSURE GPRESSURE VOLUME PRESSAVG GPRESSAVG
ENERGY: 800000 7.9477 42.8275 27.1959 0.0000 -11842.2448 1656.7243 0.0000 0.0000 1410.7887 -8696.7607 238.2753 -10107.5494 -8694.5544 238.2753 -36.9692 38.7219 29226.2841 -36.9692 38.7219
ENERGY: 900000 7.0813 37.6642 28.6146 0.0000 -11285.2099 1501.7581 0.0000 0.0000 1602.1526 -8107.9391 270.5957 -9710.0918 -8104.7150 270.0882 -433.4928 -402.3603 30111.6993 3.8639 3.9479
TCL: Running 1000000 steps at 300 kelvin.
TCL: Setting parameter langevinTemp to 300
TCL: Running for 1000000 steps
ETITLE: TS BOND ANGLE DIHED IMPRP ELECT VDW BOUNDARY MISC KINETIC TOTAL TEMP POTENTIAL TOTAL3 TEMPAVG PRESSURE GPRESSURE VOLUME PRESSAVG GPRESSAVG
ENERGY: 900000 7.0813 37.6642 28.6146 0.0000 -11285.2099 1501.7581 0.0000 0.0000 1601.3810 -8108.7108 270.4654 -9710.0918 -8105.8576 270.4654 -483.0716 -402.4439 30111.6993 -483.0716 -402.4439
ENERGY: 1100000 7.3294 36.7211 33.1969 0.0000 -10996.2689 1427.9846 0.0000 0.0000 1745.5070 -7745.5299 294.8075 -9491.0369 -7742.7689 299.9908 -142.4479 28.9222 29896.0097 3.2067 3.2338
ENERGY: 1300000 8.0043 37.9023 33.2663 0.0000 -10772.3728 1375.8106 0.0000 0.0000 1781.7013 -7535.6880 300.9206 -9317.3893 -7531.0627 300.3790 -182.3039 -125.0445 30771.5086 3.4552 3.4950
ENERGY: 1500000 9.3478 39.6302 29.0579 0.0000 -10743.1012 1385.9156 0.0000 0.0000 1832.0870 -7447.0628 309.4305 -9279.1498 -7443.0959 300.1713 -517.8105 -464.8283 31223.8812 2.9342 2.8065
ENERGY: 1700000 8.8610 44.9445 33.2971 0.0000 -10834.7299 1372.8442 0.0000 0.0000 1723.6605 -7651.1227 291.1178 -9374.7832 -7646.9851 299.9481 -469.4144 -355.6885 30638.8540 2.6637 2.5588
ENERGY: 1900000 9.6920 35.1221 30.2266 0.0000 -10859.8840 1441.9682 0.0000 0.0000 1794.2064 -7548.6687 303.0326 -9342.8751 -7546.3215 300.3373 174.0660 297.0539 30753.8369 3.2856 3.1183
TCL: Exiting due to exit command.
