Info: SIMULATION PARAMETERS:
Info: TIMESTEP               2
Info: NUMBER OF STEPS        0
Info: STEPS PER CYCLE        10
Info: PERIODIC CELL BASIS 1  35.01 0 0
Info: PERIODIC CELL BASIS 2  0 35.411 0
Info: PERIODIC CELL BASIS 3  0 0 35.723
Info: PERIODIC CELL CENTER   0 0 0
Info: WRAPPING WATERS AROUND PERIODIC BOUNDARIES ON OUTPUT.
Info: WRAPPING ALL CLUSTERS AROUND PERIODIC BOUNDARIES ON OUTPUT.
Info: FIRST LDB TIMESTEP     50
Info: LAST LDB TIMESTEP     -1
Info: HOM BACKGROUND SCALING 1
Info: PME BACKGROUND SCALING 1
Info: MIN ATOMS PER PATCH    40
Info: EMPTY PATCH LOAD       40 ATOMS
Info: INITIAL TEMPERATURE    300
Info: CENTER OF MASS MOVING INITIALLY? NO
Info: DIELECTRIC             1
Info: EXCLUDE                SCALED ONE-FOUR
Info: 1-4 ELECTROSTATICS SCALED BY 0.833333
Info: MODIFIED 1-4 VDW PARAMETERS WILL BE USED
Info: DCD FILENAME           mobley_900088_equil.dcd
Info: DCD FREQUENCY          100000
Info: DCD FIRST STEP         100000
Info: DCD FILE WILL CONTAIN UNIT CELL DATA
Info: XST FILENAME           mobley_900088_equil.xst
Info: XST FREQUENCY          100000
Info: NO VELOCITY DCD OUTPUT
Info: NO FORCE DCD OUTPUT
Info: OUTPUT FILENAME        mobley_900088_equil
Info: BINARY OUTPUT FILES WILL BE USED
Info: RESTART FILENAME       mobley_900088_equil.restart
Info: RESTART FREQUENCY      100000
Info: BINARY RESTART FILES WILL BE USED
Info: CUTOFF                 9
Info: PAIRLIST DISTANCE      11
Info: PAIRLIST SHRINK RATE   0.01
Info: PAIRLIST GROW RATE     0.01
Info: PAIRLIST TRIGGER       0.3
Info: PAIRLISTS PER CYCLE    2
Info: PAIRLISTS ENABLED
Info: MARGIN                 8
Info: HYDROGEN GROUP CUTOFF  2.5
Info: PATCH DIMENSION        21.5
Info: ENERGY OUTPUT STEPS    100000
Info: ENERGY EVALUATION STEPS    100000
Info: OUTPUT ENERGY PRECISION 4
Info: CROSSTERM ENERGY INCLUDED IN DIHEDRAL
Info: TIMING OUTPUT STEPS    1000000
Info: PRESSURE OUTPUT STEPS  100000
Info: LANGEVIN DYNAMICS ACTIVE
Info: LANGEVIN TEMPERATURE   30
Info: LANGEVIN USING BBK INTEGRATOR
Info: LANGEVIN DAMPING COEFFICIENT IS 1 INVERSE PS
Info: LANGEVIN DYNAMICS APPLIED TO HYDROGENS
Info: LANGEVIN PISTON PRESSURE CONTROL ACTIVE
Info:        TARGET PRESSURE IS 1.01325 BAR
Info:     OSCILLATION PERIOD IS 50 FS
Info:             DECAY TIME IS 25 FS
Info:     PISTON TEMPERATURE IS 300 K
Info:       PRESSURE CONTROL IS GROUP-BASED
Info:    INITIAL STRAIN RATE IS 0 0 0
Info:       CELL FLUCTUATION IS ISOTROPIC
Info: PARTICLE MESH EWALD (PME) ACTIVE
Info: PME TOLERANCE               1e-06
Info: PME EWALD COEFFICIENT       0.348832
Info: PME INTERPOLATION ORDER     4
Info: PME GRID DIMENSIONS         36 36 36
Info: PME MAXIMUM GRID SPACING    1
Info: FULL ELECTROSTATIC EVALUATION FREQUENCY      2
Info: USING VERLET I (r-RESPA) MTS SCHEME.
Info: C1 SPLITTING OF LONG RANGE ELECTROSTATICS
Info: PLACING ATOMS IN PATCHES BY HYDROGEN GROUPS
Info: RIGID BONDS TO HYDROGEN : ALL
Info:         ERROR TOLERANCE : 1e-08
Info:          MAX ITERATIONS : 100
Info: RIGID WATER USING SETTLE ALGORITHM
Info: RANDOM NUMBER SEED     1743230650
Info: USE HYDROGEN BONDS?    NO
Info: Using AMBER format force field!
Info: AMBER PARM FILE        mobley_900088.prmtop
Info: COORDINATE PDB         mobley_900088.pdb
Info: Exclusions will be read from PARM file!
Info: SCNB (VDW SCALING)     2
Info: USING ARITHMETIC MEAN TO COMBINE L-J SIGMA PARAMETERS
Info: BINARY COORDINATES     mobley_900088_min.coor
Info: SUMMARY OF PARAMETERS:
Info: 7 BONDS
Info: 7 ANGLES
Info:   7 HARMONIC
Info:   0 COSINE-BASED
Info: 5 DIHEDRAL
Info: 0 IMPROPER
Info: 0 CROSSTERM
Info: 0 VDW
Info: 21 VDW_PAIRS
Info: 0 NBTHOLE_PAIRS
Info: STRUCTURE SUMMARY:
Info: 2998 ATOMS
Info: 2997 BONDS
Info: 24 ANGLES
Info: 40 DIHEDRALS
Info: 0 IMPROPERS
Info: 0 CROSSTERMS
Info: 3045 EXCLUSIONS
Info: 2992 RIGID BONDS
Info: 6002 DEGREES OF FREEDOM
Info: 1000 HYDROGEN GROUPS
Info: 4 ATOMS IN LARGEST HYDROGEN GROUP
Info: 1000 MIGRATION GROUPS
Info: 4 ATOMS IN LARGEST MIGRATION GROUP
Info: TOTAL MASS = 17990 amu
Info: TOTAL CHARGE = 0.000199988 e
Info: MASS DENSITY = 0.674549 g/cm^3
Info: ATOM DENSITY = 0.0676945 atoms/A^3
Info: ADDED 0 IMPLICIT EXCLUSIONS
Info: NONBONDED TABLE R-SQUARED SPACING: 0.0625
Info: NONBONDED TABLE SIZE: 705 POINTS
Info: REMOVING COM VELOCITY 0.244129 0.00628469 0.0069936
TCL: Running for 100000 steps
ETITLE: TS BOND ANGLE DIHED IMPRP ELECT VDW BOUNDARY MISC KINETIC TOTAL TEMP POTENTIAL TOTAL3 TEMPAVG PRESSURE GPRESSURE VOLUME PRESSAVG GPRESSAVG
ENERGY: 0 0.2675 0.7415 19.0746 0.0000 -13867.3687 2467.8813 0.0000 0.0000 1854.2993 -9525.1044 310.9383 -11379.4037 -9524.7377 310.9383 637.3317 679.9829 44287.2002 637.3317 679.9829
ENERGY: 100000 1.0788 1.3505 20.0115 0.0000 -14416.4646 2499.6063 0.0000 0.0000 181.9377 -11712.4797 30.5082 -11894.4174 -11712.1573 30.8882 -82.5073 -32.4247 29298.1737 4.6250 4.6473
TCL: Running 100000 steps at 60 kelvin.
TCL: Setting parameter langevinTemp to 60
TCL: Running for 100000 steps
ETITLE: TS BOND ANGLE DIHED IMPRP ELECT VDW BOUNDARY MISC KINETIC TOTAL TEMP POTENTIAL TOTAL3 TEMPAVG PRESSURE GPRESSURE VOLUME PRESSAVG GPRESSAVG
ENERGY: 100000 1.0788 1.3505 20.0115 0.0000 -14416.4646 2499.6063 0.0000 0.0000 181.8452 -11712.5722 30.4927 -11894.4174 -11712.2048 30.4927 -79.3291 -32.2827 29298.1737 -79.3291 -32.2827
ENERGY: 200000 0.4369 1.0656 19.7645 0.0000 -14295.8416 2453.3760 0.0000 0.0000 353.3331 -11467.8656 59.2487 -11821.1987 -11466.7388 59.8873 -182.0596 -120.9391 29376.6336 5.0288 5.0533
TCL: Running 100000 steps at 90 kelvin.
TCL: Setting parameter langevinTemp to 90
TCL: Running for 100000 steps
ETITLE: TS BOND ANGLE DIHED IMPRP ELECT VDW BOUNDARY MISC KINETIC TOTAL TEMP POTENTIAL TOTAL3 TEMPAVG PRESSURE GPRESSURE VOLUME PRESSAVG GPRESSAVG
ENERGY: 200000 0.4369 1.0656 19.7645 0.0000 -14295.8416 2453.3760 0.0000 0.0000 353.1562 -11468.0425 59.2190 -11821.1987 -11467.3102 59.2190 -180.9538 -120.4656 29376.6336 -180.9538 -120.4656
ENERGY: 300000 0.7845 2.9748 18.8690 0.0000 -14279.1515 2525.1804 0.0000 0.0000 540.7009 -11190.6419 90.6675 -11731.3428 -11189.6586 89.8515 725.5179 784.1267 29338.2831 4.8780 4.7357
TCL: Running 100000 steps at 120 kelvin.
TCL: Setting parameter langevinTemp to 120
TCL: Running for 100000 steps
ETITLE: TS BOND ANGLE DIHED IMPRP ELECT VDW BOUNDARY MISC KINETIC TOTAL TEMP POTENTIAL TOTAL3 TEMPAVG PRESSURE GPRESSURE VOLUME PRESSAVG GPRESSAVG
ENERGY: 300000 0.7845 2.9748 18.8690 0.0000 -14279.1515 2525.1804 0.0000 0.0000 540.4299 -11190.9129 90.6220 -11731.3428 -11189.7362 90.6220 726.5542 784.0172 29338.2831 726.5542 784.0172
ENERGY: 400000 1.1064 1.7802 19.4587 0.0000 -13935.1604 2337.2198 0.0000 0.0000 732.1460 -10843.4492 122.7700 -11575.5952 -10842.8626 119.8281 -206.1447 -174.6125 29450.9626 1.7225 1.6667
TCL: Running 100000 steps at 150 kelvin.
TCL: Setting parameter langevinTemp to 150
TCL: Running for 100000 steps
ETITLE: TS BOND ANGLE DIHED IMPRP ELECT VDW BOUNDARY MISC KINETIC TOTAL TEMP POTENTIAL TOTAL3 TEMPAVG PRESSURE GPRESSURE VOLUME PRESSAVG GPRESSAVG
ENERGY: 400000 1.1064 1.7802 19.4587 0.0000 -13935.1604 2337.2198 0.0000 0.0000 731.7990 -10843.7962 122.7118 -11575.5952 -10842.2309 122.7118 -227.9020 -175.6620 29450.9626 -227.9020 -175.6620
ENERGY: 500000 1.0925 2.3159 22.8140 0.0000 -13595.9285 2172.8741 0.0000 0.0000 899.6338 -10497.1983 150.8552 -11396.8321 -10494.9540 149.8309 -933.8413 -920.5053 29659.0149 4.6666 4.7417
TCL: Running 100000 steps at 180 kelvin.
TCL: Setting parameter langevinTemp to 180
TCL: Running for 100000 steps
ETITLE: TS BOND ANGLE DIHED IMPRP ELECT VDW BOUNDARY MISC KINETIC TOTAL TEMP POTENTIAL TOTAL3 TEMPAVG PRESSURE GPRESSURE VOLUME PRESSAVG GPRESSAVG
ENERGY: 500000 1.0925 2.3159 22.8140 0.0000 -13595.9285 2172.8741 0.0000 0.0000 899.1968 -10497.6353 150.7819 -11396.8321 -10496.0097 150.7819 -971.0136 -920.5068 29659.0149 -971.0136 -920.5068
ENERGY: 600000 0.8971 1.8458 22.1259 0.0000 -13251.2925 2122.8881 0.0000 0.0000 1099.6892 -10003.8464 184.4015 -11103.5356 -10001.4860 179.8322 -299.4672 -228.7272 29443.3572 4.0906 4.0756
TCL: Running 100000 steps at 210 kelvin.
TCL: Setting parameter langevinTemp to 210
TCL: Running for 100000 steps
ETITLE: TS BOND ANGLE DIHED IMPRP ELECT VDW BOUNDARY MISC KINETIC TOTAL TEMP POTENTIAL TOTAL3 TEMPAVG PRESSURE GPRESSURE VOLUME PRESSAVG GPRESSAVG
ENERGY: 600000 0.8971 1.8458 22.1259 0.0000 -13251.2925 2122.8881 0.0000 0.0000 1099.1430 -10004.3926 184.3099 -11103.5356 -10002.1457 184.3099 -292.8110 -229.0288 29443.3572 -292.8110 -229.0288
ENERGY: 700000 2.0603 3.8353 18.9841 0.0000 -12581.9591 1894.8572 0.0000 0.0000 1289.8939 -9372.3282 216.2959 -10662.2221 -9369.7821 210.0092 -512.0414 -370.7513 29581.2626 2.7992 2.8464
TCL: Running 100000 steps at 240 kelvin.
TCL: Setting parameter langevinTemp to 240
TCL: Running for 100000 steps
ETITLE: TS BOND ANGLE DIHED IMPRP ELECT VDW BOUNDARY MISC KINETIC TOTAL TEMP POTENTIAL TOTAL3 TEMPAVG PRESSURE GPRESSURE VOLUME PRESSAVG GPRESSAVG
ENERGY: 700000 2.0603 3.8353 18.9841 0.0000 -12581.9591 1894.8572 0.0000 0.0000 1289.2504 -9372.9717 216.1880 -10662.2221 -9370.6324 216.1880 -450.4090 -371.9658 29581.2626 -450.4090 -371.9658
ENERGY: 800000 1.1779 3.8234 24.3613 0.0000 -11970.6514 1758.7913 0.0000 0.0000 1439.1864 -8743.3112 241.3301 -10182.4976 -8741.1576 239.5656 447.9764 548.8831 29097.5007 3.8583 3.8546
TCL: Running 100000 steps at 270 kelvin.
TCL: Setting parameter langevinTemp to 270
TCL: Running for 100000 steps
ETITLE: TS BOND ANGLE DIHED IMPRP ELECT VDW BOUNDARY MISC KINETIC TOTAL TEMP POTENTIAL TOTAL3 TEMPAVG PRESSURE GPRESSURE VOLUME PRESSAVG GPRESSAVG
ENERGY: 800000 1.1779 3.8234 24.3613 0.0000 -11970.6514 1758.7913 0.0000 0.0000 1438.4701 -8744.0274 241.2100 -10182.4976 -8741.4419 241.2100 459.9779 547.1902 29097.5007 459.9779 547.1902
ENERGY: 900000 1.2417 4.5779 21.6049 0.0000 -11431.0331 1655.0555 0.0000 0.0000 1608.5889 -8139.9642 269.7363 -9748.5530 -8136.2289 270.0619 535.7076 640.3434 30203.2826 4.3661 4.2727
TCL: Running 1000000 steps at 300 kelvin.
TCL: Setting parameter langevinTemp to 300
TCL: Running for 1000000 steps
ETITLE: TS BOND ANGLE DIHED IMPRP ELECT VDW BOUNDARY MISC KINETIC TOTAL TEMP POTENTIAL TOTAL3 TEMPAVG PRESSURE GPRESSURE VOLUME PRESSAVG GPRESSAVG
ENERGY: 900000 1.2417 4.5779 21.6049 0.0000 -11431.0331 1655.0555 0.0000 0.0000 1607.7535 -8140.7995 269.5963 -9748.5530 -8137.8087 269.5963 562.4606 638.6387 30203.2826 562.4606 638.6387
ENERGY: 1100000 2.9730 10.5918 21.3668 0.0000 -10855.7493 1447.0143 0.0000 0.0000 1802.4746 -7571.3288 302.2481 -9373.8035 -7567.2799 300.0581 -374.6117 -278.8506 31115.1085 2.8204 3.0018
ENERGY: 1300000 0.7847 6.1407 20.4046 0.0000 -10858.0786 1409.7194 0.0000 0.0000 1787.1559 -7633.8733 299.6794 -9421.0292 -7629.6523 299.9178 -261.5035 -227.5054 30535.9711 1.8823 2.0169
ENERGY: 1500000 0.8275 7.0962 24.4788 0.0000 -10949.7271 1581.0446 0.0000 0.0000 1870.2500 -7466.0300 313.6130 -9336.2800 -7462.6660 300.2582 1042.8391 1158.3957 30815.3975 3.2389 3.3938
ENERGY: 1700000 2.0610 5.5316 20.1700 0.0000 -10892.1539 1528.0638 0.0000 0.0000 1757.9687 -7578.3589 294.7851 -9336.3276 -7577.6313 299.9904 304.1113 393.4318 31358.0072 3.4189 3.1724
ENERGY: 1900000 1.7939 8.0670 21.0584 0.0000 -10860.0018 1488.3291 0.0000 0.0000 1754.4733 -7586.2802 294.1990 -9340.7535 -7583.5461 299.7757 635.2161 669.9421 30721.4537 3.8405 4.0537
TCL: Exiting due to exit command.
