Info: SIMULATION PARAMETERS:
Info: TIMESTEP               2
Info: NUMBER OF STEPS        0
Info: STEPS PER CYCLE        10
Info: PERIODIC CELL BASIS 1  36.281 0 0
Info: PERIODIC CELL BASIS 2  0 34.1 0
Info: PERIODIC CELL BASIS 3  0 0 35.897
Info: PERIODIC CELL CENTER   0 0 0
Info: WRAPPING WATERS AROUND PERIODIC BOUNDARIES ON OUTPUT.
Info: WRAPPING ALL CLUSTERS AROUND PERIODIC BOUNDARIES ON OUTPUT.
Info: FIRST LDB TIMESTEP     50
Info: LAST LDB TIMESTEP     -1
Info: HOM BACKGROUND SCALING 1
Info: PME BACKGROUND SCALING 1
Info: MIN ATOMS PER PATCH    40
Info: EMPTY PATCH LOAD       40 ATOMS
Info: INITIAL TEMPERATURE    300
Info: CENTER OF MASS MOVING INITIALLY? NO
Info: DIELECTRIC             1
Info: EXCLUDE                SCALED ONE-FOUR
Info: 1-4 ELECTROSTATICS SCALED BY 0.833333
Info: MODIFIED 1-4 VDW PARAMETERS WILL BE USED
Info: DCD FILENAME           mobley_2837389_equil.dcd
Info: DCD FREQUENCY          100000
Info: DCD FIRST STEP         100000
Info: DCD FILE WILL CONTAIN UNIT CELL DATA
Info: XST FILENAME           mobley_2837389_equil.xst
Info: XST FREQUENCY          100000
Info: NO VELOCITY DCD OUTPUT
Info: NO FORCE DCD OUTPUT
Info: OUTPUT FILENAME        mobley_2837389_equil
Info: BINARY OUTPUT FILES WILL BE USED
Info: RESTART FILENAME       mobley_2837389_equil.restart
Info: RESTART FREQUENCY      100000
Info: BINARY RESTART FILES WILL BE USED
Info: CUTOFF                 9
Info: PAIRLIST DISTANCE      11
Info: PAIRLIST SHRINK RATE   0.01
Info: PAIRLIST GROW RATE     0.01
Info: PAIRLIST TRIGGER       0.3
Info: PAIRLISTS PER CYCLE    2
Info: PAIRLISTS ENABLED
Info: MARGIN                 8
Info: HYDROGEN GROUP CUTOFF  2.5
Info: PATCH DIMENSION        21.5
Info: ENERGY OUTPUT STEPS    100000
Info: ENERGY EVALUATION STEPS    100000
Info: OUTPUT ENERGY PRECISION 4
Info: CROSSTERM ENERGY INCLUDED IN DIHEDRAL
Info: TIMING OUTPUT STEPS    1000000
Info: PRESSURE OUTPUT STEPS  100000
Info: LANGEVIN DYNAMICS ACTIVE
Info: LANGEVIN TEMPERATURE   30
Info: LANGEVIN USING BBK INTEGRATOR
Info: LANGEVIN DAMPING COEFFICIENT IS 1 INVERSE PS
Info: LANGEVIN DYNAMICS APPLIED TO HYDROGENS
Info: LANGEVIN PISTON PRESSURE CONTROL ACTIVE
Info:        TARGET PRESSURE IS 1.01325 BAR
Info:     OSCILLATION PERIOD IS 50 FS
Info:             DECAY TIME IS 25 FS
Info:     PISTON TEMPERATURE IS 300 K
Info:       PRESSURE CONTROL IS GROUP-BASED
Info:    INITIAL STRAIN RATE IS 0 0 0
Info:       CELL FLUCTUATION IS ISOTROPIC
Info: PARTICLE MESH EWALD (PME) ACTIVE
Info: PME TOLERANCE               1e-06
Info: PME EWALD COEFFICIENT       0.348832
Info: PME INTERPOLATION ORDER     4
Info: PME GRID DIMENSIONS         40 36 36
Info: PME MAXIMUM GRID SPACING    1
Info: FULL ELECTROSTATIC EVALUATION FREQUENCY      2
Info: USING VERLET I (r-RESPA) MTS SCHEME.
Info: C1 SPLITTING OF LONG RANGE ELECTROSTATICS
Info: PLACING ATOMS IN PATCHES BY HYDROGEN GROUPS
Info: RIGID BONDS TO HYDROGEN : ALL
Info:         ERROR TOLERANCE : 1e-08
Info:          MAX ITERATIONS : 100
Info: RIGID WATER USING SETTLE ALGORITHM
Info: RANDOM NUMBER SEED     1743160500
Info: USE HYDROGEN BONDS?    NO
Info: Using AMBER format force field!
Info: AMBER PARM FILE        mobley_2837389.prmtop
Info: COORDINATE PDB         mobley_2837389.pdb
Info: Exclusions will be read from PARM file!
Info: SCNB (VDW SCALING)     2
Info: USING ARITHMETIC MEAN TO COMBINE L-J SIGMA PARAMETERS
Info: BINARY COORDINATES     mobley_2837389_min.coor
Info: SUMMARY OF PARAMETERS:
Info: 8 BONDS
Info: 8 ANGLES
Info:   8 HARMONIC
Info:   0 COSINE-BASED
Info: 3 DIHEDRAL
Info: 0 IMPROPER
Info: 0 CROSSTERM
Info: 0 VDW
Info: 28 VDW_PAIRS
Info: 0 NBTHOLE_PAIRS
Info: STRUCTURE SUMMARY:
Info: 2944 ATOMS
Info: 2944 BONDS
Info: 15 ANGLES
Info: 25 DIHEDRALS
Info: 0 IMPROPERS
Info: 0 CROSSTERMS
Info: 2974 EXCLUSIONS
Info: 2939 RIGID BONDS
Info: 5893 DEGREES OF FREEDOM
Info: 983 HYDROGEN GROUPS
Info: 3 ATOMS IN LARGEST HYDROGEN GROUP
Info: 983 MIGRATION GROUPS
Info: 3 ATOMS IN LARGEST MIGRATION GROUP
Info: TOTAL MASS = 17686.7 amu
Info: TOTAL CHARGE = -0.000100017 e
Info: MASS DENSITY = 0.661325 g/cm^3
Info: ATOM DENSITY = 0.0662897 atoms/A^3
Info: ADDED 0 IMPLICIT EXCLUSIONS
Info: NONBONDED TABLE R-SQUARED SPACING: 0.0625
Info: NONBONDED TABLE SIZE: 705 POINTS
Info: REMOVING COM VELOCITY -0.0463299 0.027101 -0.124012
TCL: Running for 100000 steps
ETITLE: TS BOND ANGLE DIHED IMPRP ELECT VDW BOUNDARY MISC KINETIC TOTAL TEMP POTENTIAL TOTAL3 TEMPAVG PRESSURE GPRESSURE VOLUME PRESSAVG GPRESSAVG
ENERGY: 0 0.2250 2.7522 0.0552 0.0000 -13630.7117 2406.7597 0.0000 0.0000 1717.2421 -9503.6775 293.2820 -11220.9197 -9503.3523 293.2820 511.4585 544.9725 44411.1258 511.4585 544.9725
ENERGY: 100000 0.2530 3.5266 0.2308 0.0000 -14395.2785 2667.1184 0.0000 0.0000 175.6471 -11548.5025 29.9982 -11724.1496 -11547.9727 30.9353 1542.4099 1586.2230 29019.1208 3.4654 3.4834
TCL: Running 100000 steps at 60 kelvin.
TCL: Setting parameter langevinTemp to 60
TCL: Running for 100000 steps
ETITLE: TS BOND ANGLE DIHED IMPRP ELECT VDW BOUNDARY MISC KINETIC TOTAL TEMP POTENTIAL TOTAL3 TEMPAVG PRESSURE GPRESSURE VOLUME PRESSAVG GPRESSAVG
ENERGY: 100000 0.2530 3.5266 0.2308 0.0000 -14395.2785 2667.1184 0.0000 0.0000 175.5576 -11548.5920 29.9829 -11724.1496 -11548.3079 29.9829 1545.5947 1586.5155 29019.1208 1545.5947 1586.5155
ENERGY: 200000 0.8304 2.7371 0.4251 0.0000 -14013.1387 2337.1566 0.0000 0.0000 358.6112 -11313.3783 61.2460 -11671.9895 -11312.5406 60.2218 -895.7035 -827.5138 28679.4746 4.4897 4.5148
TCL: Running 100000 steps at 90 kelvin.
TCL: Setting parameter langevinTemp to 90
TCL: Running for 100000 steps
ETITLE: TS BOND ANGLE DIHED IMPRP ELECT VDW BOUNDARY MISC KINETIC TOTAL TEMP POTENTIAL TOTAL3 TEMPAVG PRESSURE GPRESSURE VOLUME PRESSAVG GPRESSAVG
ENERGY: 200000 0.8304 2.7371 0.4251 0.0000 -14013.1387 2337.1566 0.0000 0.0000 358.4265 -11313.5630 61.2145 -11671.9895 -11312.8417 61.2145 -873.8118 -827.8758 28679.4746 -873.8118 -827.8758
ENERGY: 300000 1.1295 2.7512 0.4960 0.0000 -13955.8296 2330.1159 0.0000 0.0000 519.2947 -11102.0423 88.6886 -11621.3371 -11100.1490 89.9399 -550.7004 -513.5482 28419.7013 4.6783 4.7134
TCL: Running 100000 steps at 120 kelvin.
TCL: Setting parameter langevinTemp to 120
TCL: Running for 100000 steps
ETITLE: TS BOND ANGLE DIHED IMPRP ELECT VDW BOUNDARY MISC KINETIC TOTAL TEMP POTENTIAL TOTAL3 TEMPAVG PRESSURE GPRESSURE VOLUME PRESSAVG GPRESSAVG
ENERGY: 300000 1.1295 2.7512 0.4960 0.0000 -13955.8296 2330.1159 0.0000 0.0000 519.0337 -11102.3033 88.6440 -11621.3371 -11101.2543 88.6440 -567.2330 -513.4329 28419.7013 -567.2330 -513.4329
ENERGY: 400000 0.1936 4.4881 1.0932 0.0000 -13833.4064 2415.6478 0.0000 0.0000 705.4745 -10706.5092 120.4856 -11411.9837 -10704.2590 119.8125 864.3590 932.0746 28510.4848 4.4716 4.4013
TCL: Running 100000 steps at 150 kelvin.
TCL: Setting parameter langevinTemp to 150
TCL: Running for 100000 steps
ETITLE: TS BOND ANGLE DIHED IMPRP ELECT VDW BOUNDARY MISC KINETIC TOTAL TEMP POTENTIAL TOTAL3 TEMPAVG PRESSURE GPRESSURE VOLUME PRESSAVG GPRESSAVG
ENERGY: 400000 0.1936 4.4881 1.0932 0.0000 -13833.4064 2415.6478 0.0000 0.0000 705.1311 -10706.8526 120.4270 -11411.9837 -10705.6205 120.4270 876.4616 933.3408 28510.4848 876.4616 933.3408
ENERGY: 500000 1.1911 3.0807 1.7779 0.0000 -13442.3039 2160.6672 0.0000 0.0000 870.9334 -10404.6535 148.7438 -11275.5869 -10402.6910 149.7317 -707.8295 -624.0815 28497.7932 3.4734 3.4409
TCL: Running 100000 steps at 180 kelvin.
TCL: Setting parameter langevinTemp to 180
TCL: Running for 100000 steps
ETITLE: TS BOND ANGLE DIHED IMPRP ELECT VDW BOUNDARY MISC KINETIC TOTAL TEMP POTENTIAL TOTAL3 TEMPAVG PRESSURE GPRESSURE VOLUME PRESSAVG GPRESSAVG
ENERGY: 500000 1.1911 3.0807 1.7779 0.0000 -13442.3039 2160.6672 0.0000 0.0000 870.5135 -10405.0735 148.6721 -11275.5869 -10403.5053 148.6721 -675.6742 -623.9884 28497.7932 -675.6742 -623.9884
ENERGY: 600000 0.1153 5.3345 0.7804 0.0000 -13250.3300 2268.6835 0.0000 0.0000 1054.8252 -9920.5910 180.1501 -10975.4162 -9919.3098 179.3610 1273.2100 1305.1265 28667.2447 3.3113 3.1118
TCL: Running 100000 steps at 210 kelvin.
TCL: Setting parameter langevinTemp to 210
TCL: Running for 100000 steps
ETITLE: TS BOND ANGLE DIHED IMPRP ELECT VDW BOUNDARY MISC KINETIC TOTAL TEMP POTENTIAL TOTAL3 TEMPAVG PRESSURE GPRESSURE VOLUME PRESSAVG GPRESSAVG
ENERGY: 600000 0.1153 5.3345 0.7804 0.0000 -13250.3300 2268.6835 0.0000 0.0000 1054.2891 -9921.1271 180.0585 -10975.4162 -9919.3068 180.0585 1245.1251 1304.9728 28667.2447 1245.1251 1304.9728
ENERGY: 700000 0.9512 3.6138 1.8202 0.0000 -12342.1962 1769.1929 0.0000 0.0000 1241.9938 -9324.6243 212.1160 -10566.6181 -9320.9931 209.7678 -1385.6752 -1253.1190 28740.4289 3.0806 3.1442
TCL: Running 100000 steps at 240 kelvin.
TCL: Setting parameter langevinTemp to 240
TCL: Running for 100000 steps
ETITLE: TS BOND ANGLE DIHED IMPRP ELECT VDW BOUNDARY MISC KINETIC TOTAL TEMP POTENTIAL TOTAL3 TEMPAVG PRESSURE GPRESSURE VOLUME PRESSAVG GPRESSAVG
ENERGY: 700000 0.9512 3.6138 1.8202 0.0000 -12342.1962 1769.1929 0.0000 0.0000 1241.3754 -9325.2427 212.0104 -10566.6181 -9322.2648 212.0104 -1324.2676 -1252.6904 28740.4289 -1324.2676 -1252.6904
ENERGY: 800000 3.2562 3.3749 1.5787 0.0000 -11899.0502 1801.1123 0.0000 0.0000 1430.0531 -8659.6750 244.2340 -10089.7281 -8658.2989 240.2313 568.1786 607.2082 29004.4997 4.7999 4.8981
TCL: Running 100000 steps at 270 kelvin.
TCL: Setting parameter langevinTemp to 270
TCL: Running for 100000 steps
ETITLE: TS BOND ANGLE DIHED IMPRP ELECT VDW BOUNDARY MISC KINETIC TOTAL TEMP POTENTIAL TOTAL3 TEMPAVG PRESSURE GPRESSURE VOLUME PRESSAVG GPRESSAVG
ENERGY: 800000 3.2562 3.3749 1.5787 0.0000 -11899.0502 1801.1123 0.0000 0.0000 1429.3418 -8660.3863 244.1125 -10089.7281 -8658.2290 244.1125 528.3125 606.4421 29004.4997 528.3125 606.4421
ENERGY: 900000 2.2759 4.0749 1.0632 0.0000 -11297.8527 1624.4146 0.0000 0.0000 1547.2612 -8118.7630 264.2516 -9666.0243 -8116.5928 270.1138 150.1189 248.9067 29495.4188 2.4784 2.4987
TCL: Running 1000000 steps at 300 kelvin.
TCL: Setting parameter langevinTemp to 300
TCL: Running for 1000000 steps
ETITLE: TS BOND ANGLE DIHED IMPRP ELECT VDW BOUNDARY MISC KINETIC TOTAL TEMP POTENTIAL TOTAL3 TEMPAVG PRESSURE GPRESSURE VOLUME PRESSAVG GPRESSAVG
ENERGY: 900000 2.2759 4.0749 1.0632 0.0000 -11297.8527 1624.4146 0.0000 0.0000 1546.4613 -8119.5630 264.1150 -9666.0243 -8117.2672 264.1150 171.7378 248.0191 29495.4188 171.7378 248.0191
ENERGY: 1100000 5.6230 4.8150 2.9568 0.0000 -10743.5707 1454.2459 0.0000 0.0000 1786.2200 -7489.7099 305.0625 -9275.9299 -7487.6563 300.4455 242.9630 310.3523 29980.5132 1.7633 1.7855
ENERGY: 1300000 2.1466 4.1073 3.5678 0.0000 -10768.8126 1509.2864 0.0000 0.0000 1788.2422 -7461.4625 305.4079 -9249.7046 -7459.1534 300.3466 665.0814 663.8513 30269.0495 3.0124 3.0712
ENERGY: 1500000 3.6392 5.4096 0.7017 0.0000 -10679.4456 1373.3205 0.0000 0.0000 1737.9392 -7558.4354 296.8168 -9296.3746 -7555.9523 300.4719 -581.9896 -500.8228 30025.9315 2.6945 2.6645
ENERGY: 1700000 0.9849 4.3620 1.2598 0.0000 -10638.4139 1456.3320 0.0000 0.0000 1788.8086 -7386.6665 305.5046 -9175.4751 -7383.3020 300.1141 304.1012 433.4081 30344.3724 4.2449 4.1893
ENERGY: 1900000 0.3350 3.7272 1.6107 0.0000 -10571.4101 1348.5134 0.0000 0.0000 1808.3087 -7408.9150 308.8350 -9217.2238 -7405.5902 300.6310 -519.3827 -363.4396 30296.0502 3.1304 3.2732
TCL: Exiting due to exit command.
