Info: SIMULATION PARAMETERS:
Info: TIMESTEP               2
Info: NUMBER OF STEPS        0
Info: STEPS PER CYCLE        10
Info: PERIODIC CELL BASIS 1  34.207 0 0
Info: PERIODIC CELL BASIS 2  0 33.399 0
Info: PERIODIC CELL BASIS 3  0 0 37.638
Info: PERIODIC CELL CENTER   0 0 0
Info: WRAPPING WATERS AROUND PERIODIC BOUNDARIES ON OUTPUT.
Info: WRAPPING ALL CLUSTERS AROUND PERIODIC BOUNDARIES ON OUTPUT.
Info: FIRST LDB TIMESTEP     50
Info: LAST LDB TIMESTEP     -1
Info: HOM BACKGROUND SCALING 1
Info: PME BACKGROUND SCALING 1
Info: MIN ATOMS PER PATCH    40
Info: EMPTY PATCH LOAD       40 ATOMS
Info: INITIAL TEMPERATURE    300
Info: CENTER OF MASS MOVING INITIALLY? NO
Info: DIELECTRIC             1
Info: EXCLUDE                SCALED ONE-FOUR
Info: 1-4 ELECTROSTATICS SCALED BY 0.833333
Info: MODIFIED 1-4 VDW PARAMETERS WILL BE USED
Info: DCD FILENAME           mobley_7977115_equil.dcd
Info: DCD FREQUENCY          100000
Info: DCD FIRST STEP         100000
Info: DCD FILE WILL CONTAIN UNIT CELL DATA
Info: XST FILENAME           mobley_7977115_equil.xst
Info: XST FREQUENCY          100000
Info: NO VELOCITY DCD OUTPUT
Info: NO FORCE DCD OUTPUT
Info: OUTPUT FILENAME        mobley_7977115_equil
Info: BINARY OUTPUT FILES WILL BE USED
Info: RESTART FILENAME       mobley_7977115_equil.restart
Info: RESTART FREQUENCY      100000
Info: BINARY RESTART FILES WILL BE USED
Info: CUTOFF                 9
Info: PAIRLIST DISTANCE      11
Info: PAIRLIST SHRINK RATE   0.01
Info: PAIRLIST GROW RATE     0.01
Info: PAIRLIST TRIGGER       0.3
Info: PAIRLISTS PER CYCLE    2
Info: PAIRLISTS ENABLED
Info: MARGIN                 8
Info: HYDROGEN GROUP CUTOFF  2.5
Info: PATCH DIMENSION        21.5
Info: ENERGY OUTPUT STEPS    100000
Info: ENERGY EVALUATION STEPS    100000
Info: OUTPUT ENERGY PRECISION 4
Info: CROSSTERM ENERGY INCLUDED IN DIHEDRAL
Info: TIMING OUTPUT STEPS    1000000
Info: PRESSURE OUTPUT STEPS  100000
Info: LANGEVIN DYNAMICS ACTIVE
Info: LANGEVIN TEMPERATURE   30
Info: LANGEVIN USING BBK INTEGRATOR
Info: LANGEVIN DAMPING COEFFICIENT IS 1 INVERSE PS
Info: LANGEVIN DYNAMICS APPLIED TO HYDROGENS
Info: LANGEVIN PISTON PRESSURE CONTROL ACTIVE
Info:        TARGET PRESSURE IS 1.01325 BAR
Info:     OSCILLATION PERIOD IS 50 FS
Info:             DECAY TIME IS 25 FS
Info:     PISTON TEMPERATURE IS 300 K
Info:       PRESSURE CONTROL IS GROUP-BASED
Info:    INITIAL STRAIN RATE IS 0 0 0
Info:       CELL FLUCTUATION IS ISOTROPIC
Info: PARTICLE MESH EWALD (PME) ACTIVE
Info: PME TOLERANCE               1e-06
Info: PME EWALD COEFFICIENT       0.348832
Info: PME INTERPOLATION ORDER     4
Info: PME GRID DIMENSIONS         36 36 40
Info: PME MAXIMUM GRID SPACING    1
Info: FULL ELECTROSTATIC EVALUATION FREQUENCY      2
Info: USING VERLET I (r-RESPA) MTS SCHEME.
Info: C1 SPLITTING OF LONG RANGE ELECTROSTATICS
Info: PLACING ATOMS IN PATCHES BY HYDROGEN GROUPS
Info: RIGID BONDS TO HYDROGEN : ALL
Info:         ERROR TOLERANCE : 1e-08
Info:          MAX ITERATIONS : 100
Info: RIGID WATER USING SETTLE ALGORITHM
Info: RANDOM NUMBER SEED     1743251161
Info: USE HYDROGEN BONDS?    NO
Info: Using AMBER format force field!
Info: AMBER PARM FILE        mobley_7977115.prmtop
Info: COORDINATE PDB         mobley_7977115.pdb
Info: Exclusions will be read from PARM file!
Info: SCNB (VDW SCALING)     2
Info: USING ARITHMETIC MEAN TO COMBINE L-J SIGMA PARAMETERS
Info: BINARY COORDINATES     mobley_7977115_min.coor
Info: SUMMARY OF PARAMETERS:
Info: 7 BONDS
Info: 7 ANGLES
Info:   7 HARMONIC
Info:   0 COSINE-BASED
Info: 9 DIHEDRAL
Info: 0 IMPROPER
Info: 0 CROSSTERM
Info: 0 VDW
Info: 21 VDW_PAIRS
Info: 0 NBTHOLE_PAIRS
Info: STRUCTURE SUMMARY:
Info: 2910 ATOMS
Info: 2909 BONDS
Info: 37 ANGLES
Info: 60 DIHEDRALS
Info: 0 IMPROPERS
Info: 0 CROSSTERMS
Info: 2994 EXCLUSIONS
Info: 2903 RIGID BONDS
Info: 5827 DEGREES OF FREEDOM
Info: 970 HYDROGEN GROUPS
Info: 4 ATOMS IN LARGEST HYDROGEN GROUP
Info: 970 MIGRATION GROUPS
Info: 4 ATOMS IN LARGEST MIGRATION GROUP
Info: TOTAL MASS = 17451.6 amu
Info: TOTAL CHARGE = 0.000200015 e
Info: MASS DENSITY = 0.673937 g/cm^3
Info: ATOM DENSITY = 0.0676734 atoms/A^3
Info: ADDED 0 IMPLICIT EXCLUSIONS
Info: NONBONDED TABLE R-SQUARED SPACING: 0.0625
Info: NONBONDED TABLE SIZE: 705 POINTS
Info: REMOVING COM VELOCITY -0.256821 0.0806821 0.188748
TCL: Running for 100000 steps
ETITLE: TS BOND ANGLE DIHED IMPRP ELECT VDW BOUNDARY MISC KINETIC TOTAL TEMP POTENTIAL TOTAL3 TEMPAVG PRESSURE GPRESSURE VOLUME PRESSAVG GPRESSAVG
ENERGY: 0 0.1119 0.5014 2.5229 0.0000 -13455.7362 2372.5419 0.0000 0.0000 1683.1604 -9396.8977 290.7173 -11080.0581 -9396.5980 290.7173 442.8789 483.3099 43000.6469 442.8789 483.3099
ENERGY: 100000 0.5851 1.6949 2.7415 0.0000 -14104.5861 2516.8389 0.0000 0.0000 174.2325 -11408.4933 30.0936 -11582.7257 -11407.9553 30.9258 318.0151 351.5557 28571.6222 3.6215 3.6619
TCL: Running 100000 steps at 60 kelvin.
TCL: Setting parameter langevinTemp to 60
TCL: Running for 100000 steps
ETITLE: TS BOND ANGLE DIHED IMPRP ELECT VDW BOUNDARY MISC KINETIC TOTAL TEMP POTENTIAL TOTAL3 TEMPAVG PRESSURE GPRESSURE VOLUME PRESSAVG GPRESSAVG
ENERGY: 100000 0.5851 1.6949 2.7415 0.0000 -14104.5861 2516.8389 0.0000 0.0000 174.1450 -11408.5808 30.0785 -11582.7257 -11408.1585 30.0785 309.8755 351.6583 28571.6222 309.8755 351.6583
ENERGY: 200000 0.1770 3.0380 2.8170 0.0000 -13826.1956 2307.1951 0.0000 0.0000 343.2807 -11169.6877 59.2918 -11512.9685 -11168.7424 59.9730 -1039.7921 -997.9124 28724.9920 3.5953 3.5880
TCL: Running 100000 steps at 90 kelvin.
TCL: Setting parameter langevinTemp to 90
TCL: Running for 100000 steps
ETITLE: TS BOND ANGLE DIHED IMPRP ELECT VDW BOUNDARY MISC KINETIC TOTAL TEMP POTENTIAL TOTAL3 TEMPAVG PRESSURE GPRESSURE VOLUME PRESSAVG GPRESSAVG
ENERGY: 200000 0.1770 3.0380 2.8170 0.0000 -13826.1956 2307.1951 0.0000 0.0000 343.0968 -11169.8717 59.2601 -11512.9685 -11168.7524 59.2601 -1049.7444 -997.9290 28724.9920 -1049.7444 -997.9290
ENERGY: 300000 0.3553 2.6229 3.3530 0.0000 -13816.1696 2383.2695 0.0000 0.0000 516.0313 -10910.5375 89.1295 -11426.5688 -10909.5389 90.1511 -5.5409 99.9239 28368.8544 3.5872 3.6917
TCL: Running 100000 steps at 120 kelvin.
TCL: Setting parameter langevinTemp to 120
TCL: Running for 100000 steps
ETITLE: TS BOND ANGLE DIHED IMPRP ELECT VDW BOUNDARY MISC KINETIC TOTAL TEMP POTENTIAL TOTAL3 TEMPAVG PRESSURE GPRESSURE VOLUME PRESSAVG GPRESSAVG
ENERGY: 300000 0.3553 2.6229 3.3530 0.0000 -13816.1696 2383.2695 0.0000 0.0000 515.7724 -10910.7964 89.0848 -11426.5688 -10909.7433 89.0848 37.5684 99.9270 28368.8544 37.5684 99.9270
ENERGY: 400000 0.3258 4.7021 2.7341 0.0000 -13659.6539 2386.6963 0.0000 0.0000 708.8921 -10556.3035 122.4406 -11265.1955 -10556.4807 119.7292 738.6668 796.6831 28386.1782 3.3099 3.3721
TCL: Running 100000 steps at 150 kelvin.
TCL: Setting parameter langevinTemp to 150
TCL: Running for 100000 steps
ETITLE: TS BOND ANGLE DIHED IMPRP ELECT VDW BOUNDARY MISC KINETIC TOTAL TEMP POTENTIAL TOTAL3 TEMPAVG PRESSURE GPRESSURE VOLUME PRESSAVG GPRESSAVG
ENERGY: 400000 0.3258 4.7021 2.7341 0.0000 -13659.6539 2386.6963 0.0000 0.0000 708.5317 -10556.6638 122.3784 -11265.1955 -10555.2310 122.3784 736.2243 795.0023 28386.1782 736.2243 795.0023
ENERGY: 500000 1.1202 2.8889 3.3411 0.0000 -13290.6653 2169.1634 0.0000 0.0000 881.7334 -10232.4184 152.2939 -11114.1517 -10230.0826 149.7789 -561.5141 -491.8214 28419.0678 3.0407 3.0113
TCL: Running 100000 steps at 180 kelvin.
TCL: Setting parameter langevinTemp to 180
TCL: Running for 100000 steps
ETITLE: TS BOND ANGLE DIHED IMPRP ELECT VDW BOUNDARY MISC KINETIC TOTAL TEMP POTENTIAL TOTAL3 TEMPAVG PRESSURE GPRESSURE VOLUME PRESSAVG GPRESSAVG
ENERGY: 500000 1.1202 2.8889 3.3411 0.0000 -13290.6653 2169.1634 0.0000 0.0000 881.3169 -10232.8348 152.2220 -11114.1517 -10230.6311 152.2220 -548.0958 -491.4162 28419.0678 -548.0958 -491.4162
ENERGY: 600000 0.5021 7.6911 3.5473 0.0000 -12963.6416 2148.8562 0.0000 0.0000 1014.9539 -9788.0910 175.3039 -10803.0449 -9786.6486 180.3152 544.4278 625.2371 28287.6834 5.0771 5.1427
TCL: Running 100000 steps at 210 kelvin.
TCL: Setting parameter langevinTemp to 210
TCL: Running for 100000 steps
ETITLE: TS BOND ANGLE DIHED IMPRP ELECT VDW BOUNDARY MISC KINETIC TOTAL TEMP POTENTIAL TOTAL3 TEMPAVG PRESSURE GPRESSURE VOLUME PRESSAVG GPRESSAVG
ENERGY: 600000 0.5021 7.6911 3.5473 0.0000 -12963.6416 2148.8562 0.0000 0.0000 1014.4419 -9788.6030 175.2155 -10803.0449 -9786.8077 175.2155 561.6383 624.4566 28287.6834 561.6383 624.4566
ENERGY: 700000 1.9419 7.6792 4.8570 0.0000 -12031.1981 1720.4687 0.0000 0.0000 1218.6308 -9077.6204 210.4832 -10296.2512 -9074.3172 209.9424 -1460.9279 -1268.6023 28854.1580 4.2208 4.2621
TCL: Running 100000 steps at 240 kelvin.
TCL: Setting parameter langevinTemp to 240
TCL: Running for 100000 steps
ETITLE: TS BOND ANGLE DIHED IMPRP ELECT VDW BOUNDARY MISC KINETIC TOTAL TEMP POTENTIAL TOTAL3 TEMPAVG PRESSURE GPRESSURE VOLUME PRESSAVG GPRESSAVG
ENERGY: 700000 1.9419 7.6792 4.8570 0.0000 -12031.1981 1720.4687 0.0000 0.0000 1218.0166 -9078.2346 210.3771 -10296.2512 -9075.8299 210.3771 -1360.4072 -1268.9084 28854.1580 -1360.4072 -1268.9084
ENERGY: 800000 1.0066 7.9668 5.3966 0.0000 -11454.7345 1595.5842 0.0000 0.0000 1418.9111 -8425.8691 245.0759 -9844.7802 -8423.6126 239.6172 -745.6948 -617.3892 29182.2433 3.5323 3.7463
TCL: Running 100000 steps at 270 kelvin.
TCL: Setting parameter langevinTemp to 270
TCL: Running for 100000 steps
ETITLE: TS BOND ANGLE DIHED IMPRP ELECT VDW BOUNDARY MISC KINETIC TOTAL TEMP POTENTIAL TOTAL3 TEMPAVG PRESSURE GPRESSURE VOLUME PRESSAVG GPRESSAVG
ENERGY: 800000 1.0066 7.9668 5.3966 0.0000 -11454.7345 1595.5842 0.0000 0.0000 1418.2215 -8426.5587 244.9568 -9844.7802 -8423.6276 244.9568 -699.4413 -619.0143 29182.2433 -699.4413 -619.0143
ENERGY: 900000 2.8296 15.0406 6.8277 0.0000 -10894.4677 1485.8625 0.0000 0.0000 1531.6415 -7852.2658 264.5468 -9383.9073 -7847.9864 269.9126 -92.4279 -45.3002 29064.6721 5.2176 4.9038
TCL: Running 1000000 steps at 300 kelvin.
TCL: Setting parameter langevinTemp to 300
TCL: Running for 1000000 steps
ETITLE: TS BOND ANGLE DIHED IMPRP ELECT VDW BOUNDARY MISC KINETIC TOTAL TEMP POTENTIAL TOTAL3 TEMPAVG PRESSURE GPRESSURE VOLUME PRESSAVG GPRESSAVG
ENERGY: 900000 2.8296 15.0406 6.8277 0.0000 -10894.4677 1485.8625 0.0000 0.0000 1530.8517 -7853.0556 264.4104 -9383.9073 -7851.3953 264.4104 -131.4666 -43.2544 29064.6721 -131.4666 -43.2544
ENERGY: 1100000 2.6610 10.2546 4.8714 0.0000 -10548.7008 1432.0651 0.0000 0.0000 1700.0043 -7398.8446 293.6266 -9098.8488 -7395.4471 300.5312 44.7820 84.6569 30029.7871 2.8342 2.8555
ENERGY: 1300000 1.3367 7.7595 3.5917 0.0000 -10484.4552 1439.5737 0.0000 0.0000 1767.9700 -7264.2236 305.3657 -9032.1936 -7261.3492 300.8045 573.1846 639.9916 30103.3186 3.8019 3.5764
ENERGY: 1500000 2.0959 8.9956 3.8179 0.0000 -10452.2782 1357.7906 0.0000 0.0000 1738.8236 -7340.7546 300.3315 -9079.5782 -7339.1432 300.0500 -273.9995 -240.0704 30259.5778 2.5233 2.6602
ENERGY: 1700000 0.8830 14.1346 3.8013 0.0000 -10487.3924 1389.7883 0.0000 0.0000 1732.7691 -7346.0162 299.2858 -9078.7853 -7344.0405 299.7083 -10.9379 70.7491 29765.0375 3.0189 3.1005
ENERGY: 1900000 6.2559 8.1028 5.2087 0.0000 -10542.0194 1398.5918 0.0000 0.0000 1723.0826 -7400.7776 297.6127 -9123.8602 -7397.2899 299.9712 -293.7165 -218.3109 29834.0319 2.7492 2.8885
TCL: Exiting due to exit command.
