Info: SIMULATION PARAMETERS:
Info: TIMESTEP               2
Info: NUMBER OF STEPS        0
Info: STEPS PER CYCLE        10
Info: PERIODIC CELL BASIS 1  34.986 0 0
Info: PERIODIC CELL BASIS 2  0 35.411 0
Info: PERIODIC CELL BASIS 3  0 0 35.723
Info: PERIODIC CELL CENTER   0 0 0
Info: WRAPPING WATERS AROUND PERIODIC BOUNDARIES ON OUTPUT.
Info: WRAPPING ALL CLUSTERS AROUND PERIODIC BOUNDARIES ON OUTPUT.
Info: FIRST LDB TIMESTEP     50
Info: LAST LDB TIMESTEP     -1
Info: HOM BACKGROUND SCALING 1
Info: PME BACKGROUND SCALING 1
Info: MIN ATOMS PER PATCH    40
Info: EMPTY PATCH LOAD       40 ATOMS
Info: INITIAL TEMPERATURE    300
Info: CENTER OF MASS MOVING INITIALLY? NO
Info: DIELECTRIC             1
Info: EXCLUDE                SCALED ONE-FOUR
Info: 1-4 ELECTROSTATICS SCALED BY 0.833333
Info: MODIFIED 1-4 VDW PARAMETERS WILL BE USED
Info: DCD FILENAME           mobley_7364468_equil.dcd
Info: DCD FREQUENCY          100000
Info: DCD FIRST STEP         100000
Info: DCD FILE WILL CONTAIN UNIT CELL DATA
Info: XST FILENAME           mobley_7364468_equil.xst
Info: XST FREQUENCY          100000
Info: NO VELOCITY DCD OUTPUT
Info: NO FORCE DCD OUTPUT
Info: OUTPUT FILENAME        mobley_7364468_equil
Info: BINARY OUTPUT FILES WILL BE USED
Info: RESTART FILENAME       mobley_7364468_equil.restart
Info: RESTART FREQUENCY      100000
Info: BINARY RESTART FILES WILL BE USED
Info: CUTOFF                 9
Info: PAIRLIST DISTANCE      11
Info: PAIRLIST SHRINK RATE   0.01
Info: PAIRLIST GROW RATE     0.01
Info: PAIRLIST TRIGGER       0.3
Info: PAIRLISTS PER CYCLE    2
Info: PAIRLISTS ENABLED
Info: MARGIN                 8
Info: HYDROGEN GROUP CUTOFF  2.5
Info: PATCH DIMENSION        21.5
Info: ENERGY OUTPUT STEPS    100000
Info: ENERGY EVALUATION STEPS    100000
Info: OUTPUT ENERGY PRECISION 4
Info: CROSSTERM ENERGY INCLUDED IN DIHEDRAL
Info: TIMING OUTPUT STEPS    1000000
Info: PRESSURE OUTPUT STEPS  100000
Info: LANGEVIN DYNAMICS ACTIVE
Info: LANGEVIN TEMPERATURE   30
Info: LANGEVIN USING BBK INTEGRATOR
Info: LANGEVIN DAMPING COEFFICIENT IS 1 INVERSE PS
Info: LANGEVIN DYNAMICS APPLIED TO HYDROGENS
Info: LANGEVIN PISTON PRESSURE CONTROL ACTIVE
Info:        TARGET PRESSURE IS 1.01325 BAR
Info:     OSCILLATION PERIOD IS 50 FS
Info:             DECAY TIME IS 25 FS
Info:     PISTON TEMPERATURE IS 300 K
Info:       PRESSURE CONTROL IS GROUP-BASED
Info:    INITIAL STRAIN RATE IS 0 0 0
Info:       CELL FLUCTUATION IS ISOTROPIC
Info: PARTICLE MESH EWALD (PME) ACTIVE
Info: PME TOLERANCE               1e-06
Info: PME EWALD COEFFICIENT       0.348832
Info: PME INTERPOLATION ORDER     4
Info: PME GRID DIMENSIONS         36 36 36
Info: PME MAXIMUM GRID SPACING    1
Info: FULL ELECTROSTATIC EVALUATION FREQUENCY      2
Info: USING VERLET I (r-RESPA) MTS SCHEME.
Info: C1 SPLITTING OF LONG RANGE ELECTROSTATICS
Info: PLACING ATOMS IN PATCHES BY HYDROGEN GROUPS
Info: RIGID BONDS TO HYDROGEN : ALL
Info:         ERROR TOLERANCE : 1e-08
Info:          MAX ITERATIONS : 100
Info: RIGID WATER USING SETTLE ALGORITHM
Info: RANDOM NUMBER SEED     1743221677
Info: USE HYDROGEN BONDS?    NO
Info: Using AMBER format force field!
Info: AMBER PARM FILE        mobley_7364468.prmtop
Info: COORDINATE PDB         mobley_7364468.pdb
Info: Exclusions will be read from PARM file!
Info: SCNB (VDW SCALING)     2
Info: USING ARITHMETIC MEAN TO COMBINE L-J SIGMA PARAMETERS
Info: BINARY COORDINATES     mobley_7364468_min.coor
Info: SUMMARY OF PARAMETERS:
Info: 10 BONDS
Info: 15 ANGLES
Info:   15 HARMONIC
Info:   0 COSINE-BASED
Info: 10 DIHEDRAL
Info: 0 IMPROPER
Info: 0 CROSSTERM
Info: 0 VDW
Info: 28 VDW_PAIRS
Info: 0 NBTHOLE_PAIRS
Info: STRUCTURE SUMMARY:
Info: 2940 ATOMS
Info: 2940 BONDS
Info: 45 ANGLES
Info: 69 DIHEDRALS
Info: 0 IMPROPERS
Info: 0 CROSSTERMS
Info: 3044 EXCLUSIONS
Info: 2930 RIGID BONDS
Info: 5890 DEGREES OF FREEDOM
Info: 982 HYDROGEN GROUPS
Info: 4 ATOMS IN LARGEST HYDROGEN GROUP
Info: 982 MIGRATION GROUPS
Info: 4 ATOMS IN LARGEST MIGRATION GROUP
Info: TOTAL MASS = 17649.8 amu
Info: TOTAL CHARGE = -3.72529e-08 e
Info: MASS DENSITY = 0.662243 g/cm^3
Info: ATOM DENSITY = 0.0664304 atoms/A^3
Info: ADDED 0 IMPLICIT EXCLUSIONS
Info: NONBONDED TABLE R-SQUARED SPACING: 0.0625
Info: NONBONDED TABLE SIZE: 705 POINTS
Info: REMOVING COM VELOCITY 0.173521 -0.120228 0.0407391
TCL: Running for 100000 steps
ETITLE: TS BOND ANGLE DIHED IMPRP ELECT VDW BOUNDARY MISC KINETIC TOTAL TEMP POTENTIAL TOTAL3 TEMPAVG PRESSURE GPRESSURE VOLUME PRESSAVG GPRESSAVG
ENERGY: 0 0.3747 1.3218 2.8534 0.0000 -13660.1034 2435.9098 0.0000 0.0000 1780.6685 -9438.9751 304.2693 -11219.6436 -9438.6045 304.2693 590.5634 623.1440 44256.8405 590.5634 623.1440
ENERGY: 100000 0.3819 2.0321 3.0954 0.0000 -14235.5941 2523.5907 0.0000 0.0000 177.3888 -11529.1051 30.3111 -11706.4939 -11528.3816 30.9332 503.8427 545.9398 28551.8008 3.9885 3.9524
TCL: Running 100000 steps at 60 kelvin.
TCL: Setting parameter langevinTemp to 60
TCL: Running for 100000 steps
ETITLE: TS BOND ANGLE DIHED IMPRP ELECT VDW BOUNDARY MISC KINETIC TOTAL TEMP POTENTIAL TOTAL3 TEMPAVG PRESSURE GPRESSURE VOLUME PRESSAVG GPRESSAVG
ENERGY: 100000 0.3819 2.0321 3.0954 0.0000 -14235.5941 2523.5907 0.0000 0.0000 177.3024 -11529.1915 30.2963 -11706.4939 -11528.6549 30.2963 494.2014 545.8642 28551.8008 494.2014 545.8642
ENERGY: 200000 0.7408 3.1256 3.9874 0.0000 -13991.6282 2318.3527 0.0000 0.0000 343.6986 -11321.7231 58.7290 -11665.4217 -11320.7639 60.0750 -900.4901 -851.8321 28476.1756 4.1439 4.0720
TCL: Running 100000 steps at 90 kelvin.
TCL: Setting parameter langevinTemp to 90
TCL: Running for 100000 steps
ETITLE: TS BOND ANGLE DIHED IMPRP ELECT VDW BOUNDARY MISC KINETIC TOTAL TEMP POTENTIAL TOTAL3 TEMPAVG PRESSURE GPRESSURE VOLUME PRESSAVG GPRESSAVG
ENERGY: 200000 0.7408 3.1256 3.9874 0.0000 -13991.6282 2318.3527 0.0000 0.0000 343.5216 -11321.9001 58.6988 -11665.4217 -11321.0796 58.6988 -892.7451 -851.7692 28476.1756 -892.7451 -851.7692
ENERGY: 300000 1.0233 5.4852 3.3962 0.0000 -13978.5127 2405.8218 0.0000 0.0000 528.4144 -11034.3718 90.2921 -11562.7862 -11033.0741 89.9871 176.3659 215.6944 28593.2182 4.1210 4.0201
TCL: Running 100000 steps at 120 kelvin.
TCL: Setting parameter langevinTemp to 120
TCL: Running for 100000 steps
ETITLE: TS BOND ANGLE DIHED IMPRP ELECT VDW BOUNDARY MISC KINETIC TOTAL TEMP POTENTIAL TOTAL3 TEMPAVG PRESSURE GPRESSURE VOLUME PRESSAVG GPRESSAVG
ENERGY: 300000 1.0233 5.4852 3.3962 0.0000 -13978.5127 2405.8218 0.0000 0.0000 528.1694 -11034.6168 90.2502 -11562.7862 -11033.5246 90.2502 176.3918 215.7789 28593.2182 176.3918 215.7789
ENERGY: 400000 1.4622 3.6804 3.3121 0.0000 -13757.8517 2356.5852 0.0000 0.0000 695.9448 -10696.8669 118.9186 -11392.8117 -10694.8172 119.8457 455.0505 492.5673 28519.3926 3.9931 3.9181
TCL: Running 100000 steps at 150 kelvin.
TCL: Setting parameter langevinTemp to 150
TCL: Running for 100000 steps
ETITLE: TS BOND ANGLE DIHED IMPRP ELECT VDW BOUNDARY MISC KINETIC TOTAL TEMP POTENTIAL TOTAL3 TEMPAVG PRESSURE GPRESSURE VOLUME PRESSAVG GPRESSAVG
ENERGY: 400000 1.4622 3.6804 3.3121 0.0000 -13757.8517 2356.5852 0.0000 0.0000 695.5825 -10697.2292 118.8567 -11392.8117 -10695.7778 118.8567 440.7726 492.9505 28519.3926 440.7726 492.9505
ENERGY: 500000 0.8293 6.7724 3.8475 0.0000 -13470.3929 2259.2854 0.0000 0.0000 880.9366 -10318.7217 150.5288 -11199.6583 -10315.9825 150.1726 215.8963 266.7723 28820.3438 4.3000 4.1114
TCL: Running 100000 steps at 180 kelvin.
TCL: Setting parameter langevinTemp to 180
TCL: Running for 100000 steps
ETITLE: TS BOND ANGLE DIHED IMPRP ELECT VDW BOUNDARY MISC KINETIC TOTAL TEMP POTENTIAL TOTAL3 TEMPAVG PRESSURE GPRESSURE VOLUME PRESSAVG GPRESSAVG
ENERGY: 500000 0.8293 6.7724 3.8475 0.0000 -13470.3929 2259.2854 0.0000 0.0000 880.5083 -10319.1500 150.4557 -11199.6583 -10317.6516 150.4557 216.0926 267.1466 28820.3438 216.0926 267.1466
ENERGY: 600000 3.1342 6.1053 3.4790 0.0000 -13060.9172 2126.6320 0.0000 0.0000 1070.8296 -9850.7371 182.9766 -10921.5667 -9846.9103 179.9023 361.7847 465.2855 28615.4077 3.6240 3.6626
TCL: Running 100000 steps at 210 kelvin.
TCL: Setting parameter langevinTemp to 210
TCL: Running for 100000 steps
ETITLE: TS BOND ANGLE DIHED IMPRP ELECT VDW BOUNDARY MISC KINETIC TOTAL TEMP POTENTIAL TOTAL3 TEMPAVG PRESSURE GPRESSURE VOLUME PRESSAVG GPRESSAVG
ENERGY: 600000 3.1342 6.1053 3.4790 0.0000 -13060.9172 2126.6320 0.0000 0.0000 1070.3158 -9851.2509 182.8888 -10921.5667 -9849.4254 182.8888 401.9958 466.0547 28615.4077 401.9958 466.0547
ENERGY: 700000 2.1989 8.6626 4.6991 0.0000 -12373.3727 1904.4468 0.0000 0.0000 1261.1728 -9192.1925 215.5012 -10453.3653 -9189.7314 209.5500 147.8317 218.7130 28653.3978 3.4370 3.5327
TCL: Running 100000 steps at 240 kelvin.
TCL: Setting parameter langevinTemp to 240
TCL: Running for 100000 steps
ETITLE: TS BOND ANGLE DIHED IMPRP ELECT VDW BOUNDARY MISC KINETIC TOTAL TEMP POTENTIAL TOTAL3 TEMPAVG PRESSURE GPRESSURE VOLUME PRESSAVG GPRESSAVG
ENERGY: 700000 2.1989 8.6626 4.6991 0.0000 -12373.3727 1904.4468 0.0000 0.0000 1260.5636 -9192.8016 215.3971 -10453.3653 -9190.4170 215.3971 142.3921 218.7281 28653.3978 142.3921 218.7281
ENERGY: 800000 3.8663 12.0973 4.0831 0.0000 -11892.7247 1782.6566 0.0000 0.0000 1423.0984 -8666.9231 243.1700 -10090.0214 -8663.8277 239.2645 489.9711 589.2448 28594.3188 4.7467 4.9378
TCL: Running 100000 steps at 270 kelvin.
TCL: Setting parameter langevinTemp to 270
TCL: Running for 100000 steps
ETITLE: TS BOND ANGLE DIHED IMPRP ELECT VDW BOUNDARY MISC KINETIC TOTAL TEMP POTENTIAL TOTAL3 TEMPAVG PRESSURE GPRESSURE VOLUME PRESSAVG GPRESSAVG
ENERGY: 800000 3.8663 12.0973 4.0831 0.0000 -11892.7247 1782.6566 0.0000 0.0000 1422.4163 -8667.6051 243.0535 -10090.0214 -8665.0245 243.0535 502.8818 590.3210 28594.3188 502.8818 590.3210
ENERGY: 900000 3.1037 10.3788 4.9913 0.0000 -11129.8298 1565.0827 0.0000 0.0000 1583.0419 -7963.2313 270.5001 -9546.2732 -7958.8286 270.2863 274.4100 337.9636 29485.8888 2.4403 2.4975
TCL: Running 1000000 steps at 300 kelvin.
TCL: Setting parameter langevinTemp to 300
TCL: Running for 1000000 steps
ETITLE: TS BOND ANGLE DIHED IMPRP ELECT VDW BOUNDARY MISC KINETIC TOTAL TEMP POTENTIAL TOTAL3 TEMPAVG PRESSURE GPRESSURE VOLUME PRESSAVG GPRESSAVG
ENERGY: 900000 3.1037 10.3788 4.9913 0.0000 -11129.8298 1565.0827 0.0000 0.0000 1582.2526 -7964.0206 270.3653 -9546.2732 -7961.6901 270.3653 245.7305 340.9016 29485.8888 245.7305 340.9016
ENERGY: 1100000 1.1628 11.7688 3.8627 0.0000 -10554.0202 1353.7039 0.0000 0.0000 1743.8163 -7439.7056 297.9723 -9183.5219 -7436.7762 300.7510 -409.9182 -311.7170 30336.9557 3.3154 3.1533
ENERGY: 1300000 5.8393 14.4587 5.0682 0.0000 -10636.6653 1424.9450 0.0000 0.0000 1834.1437 -7352.2104 313.4068 -9186.3540 -7349.8528 300.3783 -222.3373 -51.5411 30311.4294 3.5993 3.4173
ENERGY: 1500000 1.3794 10.6141 5.3968 0.0000 -10389.4955 1275.9649 0.0000 0.0000 1793.8511 -7302.2892 306.5219 -9096.1403 -7298.5374 300.2140 -1310.9487 -1214.0544 31254.3379 3.0674 3.2716
ENERGY: 1700000 4.8804 8.6328 4.7010 0.0000 -10770.2886 1420.6121 0.0000 0.0000 1766.3198 -7565.1424 301.8175 -9331.4623 -7563.5592 299.6098 -639.8909 -541.8669 30528.5185 1.9701 1.8771
ENERGY: 1900000 3.7061 10.5055 4.8593 0.0000 -10419.5356 1293.1095 0.0000 0.0000 1781.1140 -7326.2412 304.3454 -9107.3552 -7322.3077 300.2982 -1001.4857 -910.3357 31044.1737 3.7361 3.8347
TCL: Exiting due to exit command.
