Info: SIMULATION PARAMETERS:
Info: TIMESTEP               2
Info: NUMBER OF STEPS        0
Info: STEPS PER CYCLE        10
Info: PERIODIC CELL BASIS 1  34.986 0 0
Info: PERIODIC CELL BASIS 2  0 34.26 0
Info: PERIODIC CELL BASIS 3  0 0 36.199
Info: PERIODIC CELL CENTER   0 0 0
Info: WRAPPING WATERS AROUND PERIODIC BOUNDARIES ON OUTPUT.
Info: WRAPPING ALL CLUSTERS AROUND PERIODIC BOUNDARIES ON OUTPUT.
Info: FIRST LDB TIMESTEP     50
Info: LAST LDB TIMESTEP     -1
Info: HOM BACKGROUND SCALING 1
Info: PME BACKGROUND SCALING 1
Info: MIN ATOMS PER PATCH    40
Info: EMPTY PATCH LOAD       40 ATOMS
Info: INITIAL TEMPERATURE    300
Info: CENTER OF MASS MOVING INITIALLY? NO
Info: DIELECTRIC             1
Info: EXCLUDE                SCALED ONE-FOUR
Info: 1-4 ELECTROSTATICS SCALED BY 0.833333
Info: MODIFIED 1-4 VDW PARAMETERS WILL BE USED
Info: DCD FILENAME           mobley_6232400_equil.dcd
Info: DCD FREQUENCY          100000
Info: DCD FIRST STEP         100000
Info: DCD FILE WILL CONTAIN UNIT CELL DATA
Info: XST FILENAME           mobley_6232400_equil.xst
Info: XST FREQUENCY          100000
Info: NO VELOCITY DCD OUTPUT
Info: NO FORCE DCD OUTPUT
Info: OUTPUT FILENAME        mobley_6232400_equil
Info: BINARY OUTPUT FILES WILL BE USED
Info: RESTART FILENAME       mobley_6232400_equil.restart
Info: RESTART FREQUENCY      100000
Info: BINARY RESTART FILES WILL BE USED
Info: CUTOFF                 9
Info: PAIRLIST DISTANCE      11
Info: PAIRLIST SHRINK RATE   0.01
Info: PAIRLIST GROW RATE     0.01
Info: PAIRLIST TRIGGER       0.3
Info: PAIRLISTS PER CYCLE    2
Info: PAIRLISTS ENABLED
Info: MARGIN                 8
Info: HYDROGEN GROUP CUTOFF  2.5
Info: PATCH DIMENSION        21.5
Info: ENERGY OUTPUT STEPS    100000
Info: ENERGY EVALUATION STEPS    100000
Info: OUTPUT ENERGY PRECISION 4
Info: CROSSTERM ENERGY INCLUDED IN DIHEDRAL
Info: TIMING OUTPUT STEPS    1000000
Info: PRESSURE OUTPUT STEPS  100000
Info: LANGEVIN DYNAMICS ACTIVE
Info: LANGEVIN TEMPERATURE   30
Info: LANGEVIN USING BBK INTEGRATOR
Info: LANGEVIN DAMPING COEFFICIENT IS 1 INVERSE PS
Info: LANGEVIN DYNAMICS APPLIED TO HYDROGENS
Info: LANGEVIN PISTON PRESSURE CONTROL ACTIVE
Info:        TARGET PRESSURE IS 1.01325 BAR
Info:     OSCILLATION PERIOD IS 50 FS
Info:             DECAY TIME IS 25 FS
Info:     PISTON TEMPERATURE IS 300 K
Info:       PRESSURE CONTROL IS GROUP-BASED
Info:    INITIAL STRAIN RATE IS 0 0 0
Info:       CELL FLUCTUATION IS ISOTROPIC
Info: PARTICLE MESH EWALD (PME) ACTIVE
Info: PME TOLERANCE               1e-06
Info: PME EWALD COEFFICIENT       0.348832
Info: PME INTERPOLATION ORDER     4
Info: PME GRID DIMENSIONS         36 36 40
Info: PME MAXIMUM GRID SPACING    1
Info: FULL ELECTROSTATIC EVALUATION FREQUENCY      2
Info: USING VERLET I (r-RESPA) MTS SCHEME.
Info: C1 SPLITTING OF LONG RANGE ELECTROSTATICS
Info: PLACING ATOMS IN PATCHES BY HYDROGEN GROUPS
Info: RIGID BONDS TO HYDROGEN : ALL
Info:         ERROR TOLERANCE : 1e-08
Info:          MAX ITERATIONS : 100
Info: RIGID WATER USING SETTLE ALGORITHM
Info: RANDOM NUMBER SEED     1743227933
Info: USE HYDROGEN BONDS?    NO
Info: Using AMBER format force field!
Info: AMBER PARM FILE        mobley_6232400.prmtop
Info: COORDINATE PDB         mobley_6232400.pdb
Info: Exclusions will be read from PARM file!
Info: SCNB (VDW SCALING)     2
Info: USING ARITHMETIC MEAN TO COMBINE L-J SIGMA PARAMETERS
Info: BINARY COORDINATES     mobley_6232400_min.coor
Info: SUMMARY OF PARAMETERS:
Info: 9 BONDS
Info: 10 ANGLES
Info:   10 HARMONIC
Info:   0 COSINE-BASED
Info: 5 DIHEDRAL
Info: 0 IMPROPER
Info: 0 CROSSTERM
Info: 0 VDW
Info: 28 VDW_PAIRS
Info: 0 NBTHOLE_PAIRS
Info: STRUCTURE SUMMARY:
Info: 2956 ATOMS
Info: 2956 BONDS
Info: 19 ANGLES
Info: 30 DIHEDRALS
Info: 0 IMPROPERS
Info: 0 CROSSTERMS
Info: 2996 EXCLUSIONS
Info: 2948 RIGID BONDS
Info: 5920 DEGREES OF FREEDOM
Info: 989 HYDROGEN GROUPS
Info: 3 ATOMS IN LARGEST HYDROGEN GROUP
Info: 989 MIGRATION GROUPS
Info: 3 ATOMS IN LARGEST MIGRATION GROUP
Info: TOTAL MASS = 17780.8 amu
Info: TOTAL CHARGE = -0.000100096 e
Info: MASS DENSITY = 0.680507 g/cm^3
Info: ATOM DENSITY = 0.0681281 atoms/A^3
Info: ADDED 0 IMPLICIT EXCLUSIONS
Info: NONBONDED TABLE R-SQUARED SPACING: 0.0625
Info: NONBONDED TABLE SIZE: 705 POINTS
Info: REMOVING COM VELOCITY -0.0497393 -0.0617698 0.0324295
TCL: Running for 100000 steps
ETITLE: TS BOND ANGLE DIHED IMPRP ELECT VDW BOUNDARY MISC KINETIC TOTAL TEMP POTENTIAL TOTAL3 TEMPAVG PRESSURE GPRESSURE VOLUME PRESSAVG GPRESSAVG
ENERGY: 0 0.1295 0.3120 0.0051 0.0000 -13690.9010 2397.4118 0.0000 0.0000 1822.2590 -9470.7835 309.7981 -11293.0425 -9470.4187 309.7981 414.0603 450.0661 43388.8584 414.0603 450.0661
ENERGY: 100000 0.5688 0.4761 0.3711 0.0000 -14253.1380 2436.2411 0.0000 0.0000 170.5273 -11644.9535 28.9910 -11815.4809 -11644.3117 30.9543 -475.7289 -389.6578 29003.7211 2.8760 2.9434
TCL: Running 100000 steps at 60 kelvin.
TCL: Setting parameter langevinTemp to 60
TCL: Running for 100000 steps
ETITLE: TS BOND ANGLE DIHED IMPRP ELECT VDW BOUNDARY MISC KINETIC TOTAL TEMP POTENTIAL TOTAL3 TEMPAVG PRESSURE GPRESSURE VOLUME PRESSAVG GPRESSAVG
ENERGY: 100000 0.5688 0.4761 0.3711 0.0000 -14253.1380 2436.2411 0.0000 0.0000 170.4387 -11645.0422 28.9759 -11815.4809 -11644.6589 28.9759 -461.7072 -389.5706 29003.7211 -461.7072 -389.5706
ENERGY: 200000 0.2700 1.8570 0.5988 0.0000 -14294.9818 2535.9786 0.0000 0.0000 363.1690 -11393.1083 61.7415 -11756.2773 -11391.4411 59.9895 622.7874 655.4961 28986.4644 6.3781 6.2762
TCL: Running 100000 steps at 90 kelvin.
TCL: Setting parameter langevinTemp to 90
TCL: Running for 100000 steps
ETITLE: TS BOND ANGLE DIHED IMPRP ELECT VDW BOUNDARY MISC KINETIC TOTAL TEMP POTENTIAL TOTAL3 TEMPAVG PRESSURE GPRESSURE VOLUME PRESSAVG GPRESSAVG
ENERGY: 200000 0.2700 1.8570 0.5988 0.0000 -14294.9818 2535.9786 0.0000 0.0000 362.9916 -11393.2857 61.7114 -11756.2773 -11392.4944 61.7114 604.6988 655.6050 28986.4644 604.6988 655.6050
ENERGY: 300000 1.3336 1.7911 0.7811 0.0000 -14205.8686 2538.6063 0.0000 0.0000 527.1676 -11136.1890 89.6226 -11663.3566 -11135.0157 90.1421 1441.6430 1542.4027 28304.9119 4.4071 4.4804
TCL: Running 100000 steps at 120 kelvin.
TCL: Setting parameter langevinTemp to 120
TCL: Running for 100000 steps
ETITLE: TS BOND ANGLE DIHED IMPRP ELECT VDW BOUNDARY MISC KINETIC TOTAL TEMP POTENTIAL TOTAL3 TEMPAVG PRESSURE GPRESSURE VOLUME PRESSAVG GPRESSAVG
ENERGY: 300000 1.3336 1.7911 0.7811 0.0000 -14205.8686 2538.6063 0.0000 0.0000 526.8976 -11136.4590 89.5767 -11663.3566 -11135.3882 89.5767 1484.8003 1542.3556 28304.9119 1484.8003 1542.3556
ENERGY: 400000 1.6617 1.2857 1.4747 0.0000 -13696.5673 2173.1409 0.0000 0.0000 716.8777 -10802.1265 121.8748 -11519.0043 -10800.1350 120.1173 -1549.2828 -1509.5651 29218.5802 3.5926 3.5347
TCL: Running 100000 steps at 150 kelvin.
TCL: Setting parameter langevinTemp to 150
TCL: Running for 100000 steps
ETITLE: TS BOND ANGLE DIHED IMPRP ELECT VDW BOUNDARY MISC KINETIC TOTAL TEMP POTENTIAL TOTAL3 TEMPAVG PRESSURE GPRESSURE VOLUME PRESSAVG GPRESSAVG
ENERGY: 400000 1.6617 1.2857 1.4747 0.0000 -13696.5673 2173.1409 0.0000 0.0000 716.5337 -10802.4705 121.8163 -11519.0043 -10800.9560 121.8163 -1581.1786 -1509.4363 29218.5802 -1581.1786 -1509.4363
ENERGY: 500000 2.2673 1.2170 1.2104 0.0000 -13699.1475 2362.4385 0.0000 0.0000 863.1093 -10468.9051 146.7352 -11332.0143 -10466.4855 149.6583 767.4759 783.1474 28755.6157 4.3495 4.2836
TCL: Running 100000 steps at 180 kelvin.
TCL: Setting parameter langevinTemp to 180
TCL: Running for 100000 steps
ETITLE: TS BOND ANGLE DIHED IMPRP ELECT VDW BOUNDARY MISC KINETIC TOTAL TEMP POTENTIAL TOTAL3 TEMPAVG PRESSURE GPRESSURE VOLUME PRESSAVG GPRESSAVG
ENERGY: 500000 2.2673 1.2170 1.2104 0.0000 -13699.1475 2362.4385 0.0000 0.0000 862.6817 -10469.3327 146.6626 -11332.0143 -10467.8628 146.6626 733.1597 784.3245 28755.6157 733.1597 784.3245
ENERGY: 600000 1.0716 4.4232 2.4281 0.0000 -13252.2108 2191.2230 0.0000 0.0000 1046.1197 -10006.9451 177.8484 -11053.0648 -10004.6513 179.9535 452.6585 562.3546 29011.8869 3.0941 3.0050
TCL: Running 100000 steps at 210 kelvin.
TCL: Setting parameter langevinTemp to 210
TCL: Running for 100000 steps
ETITLE: TS BOND ANGLE DIHED IMPRP ELECT VDW BOUNDARY MISC KINETIC TOTAL TEMP POTENTIAL TOTAL3 TEMPAVG PRESSURE GPRESSURE VOLUME PRESSAVG GPRESSAVG
ENERGY: 600000 1.0716 4.4232 2.4281 0.0000 -13252.2108 2191.2230 0.0000 0.0000 1045.5879 -10007.4770 177.7580 -11053.0648 -10005.3987 177.7580 493.7503 562.0884 29011.8869 493.7503 562.0884
ENERGY: 700000 2.0262 1.1900 2.7341 0.0000 -12584.6639 1973.6874 0.0000 0.0000 1224.8141 -9380.2121 208.2279 -10605.0262 -9378.4578 209.9581 405.0179 451.0646 28852.0388 4.1030 4.2093
TCL: Running 100000 steps at 240 kelvin.
TCL: Setting parameter langevinTemp to 240
TCL: Running for 100000 steps
ETITLE: TS BOND ANGLE DIHED IMPRP ELECT VDW BOUNDARY MISC KINETIC TOTAL TEMP POTENTIAL TOTAL3 TEMPAVG PRESSURE GPRESSURE VOLUME PRESSAVG GPRESSAVG
ENERGY: 700000 2.0262 1.1900 2.7341 0.0000 -12584.6639 1973.6874 0.0000 0.0000 1224.2265 -9380.7997 208.1280 -10605.0262 -9379.0403 208.1280 358.1382 449.8948 28852.0388 358.1382 449.8948
ENERGY: 800000 3.3937 3.6733 4.4760 0.0000 -11788.4371 1614.0404 0.0000 0.0000 1373.2946 -8789.5590 233.4707 -10162.8536 -8785.4840 240.0971 -1149.2863 -1011.9770 29350.1162 4.6549 4.7252
TCL: Running 100000 steps at 270 kelvin.
TCL: Setting parameter langevinTemp to 270
TCL: Running for 100000 steps
ETITLE: TS BOND ANGLE DIHED IMPRP ELECT VDW BOUNDARY MISC KINETIC TOTAL TEMP POTENTIAL TOTAL3 TEMPAVG PRESSURE GPRESSURE VOLUME PRESSAVG GPRESSAVG
ENERGY: 800000 3.3937 3.6733 4.4760 0.0000 -11788.4371 1614.0404 0.0000 0.0000 1372.6053 -8790.2483 233.3535 -10162.8536 -8787.4929 233.3535 -1094.7392 -1011.8130 29350.1162 -1094.7392 -1011.8130
ENERGY: 900000 2.4785 3.1660 2.9338 0.0000 -11452.0992 1601.0861 0.0000 0.0000 1564.1022 -8278.3326 265.9095 -9842.4348 -8273.2109 269.9686 -98.9036 -48.6324 29733.7304 2.4253 2.3702
TCL: Running 1000000 steps at 300 kelvin.
TCL: Setting parameter langevinTemp to 300
TCL: Running for 1000000 steps
ETITLE: TS BOND ANGLE DIHED IMPRP ELECT VDW BOUNDARY MISC KINETIC TOTAL TEMP POTENTIAL TOTAL3 TEMPAVG PRESSURE GPRESSURE VOLUME PRESSAVG GPRESSAVG
ENERGY: 900000 2.4785 3.1660 2.9338 0.0000 -11452.0992 1601.0861 0.0000 0.0000 1563.3026 -8279.1322 265.7735 -9842.4348 -8276.6673 265.7735 -124.6927 -48.7830 29733.7304 -124.6927 -48.7830
ENERGY: 1100000 0.6336 1.5400 5.5604 0.0000 -10623.0079 1334.0839 0.0000 0.0000 1747.5518 -7533.6382 297.0973 -9281.1900 -7529.0687 300.3143 -773.6459 -708.7786 30614.4542 2.5449 2.6709
ENERGY: 1300000 2.0634 3.0230 2.8061 0.0000 -10689.1382 1400.0180 0.0000 0.0000 1773.2857 -7507.9419 301.4723 -9281.2276 -7505.2355 299.9930 -255.3849 -210.0579 30406.0240 4.3915 4.4619
ENERGY: 1500000 2.1139 3.1518 2.1553 0.0000 -10797.7955 1474.3134 0.0000 0.0000 1769.7168 -7546.3442 300.8655 -9316.0610 -7542.7985 300.1590 366.5948 446.1538 30324.1220 2.3635 2.4192
ENERGY: 1700000 1.9920 1.6853 3.4703 0.0000 -10697.7281 1368.8560 0.0000 0.0000 1765.6472 -7556.0773 300.1737 -9321.7244 -7549.7258 300.1144 -967.9866 -871.8413 31392.2691 2.8794 2.8953
ENERGY: 1900000 3.0091 2.2986 5.0089 0.0000 -10794.6534 1533.1497 0.0000 0.0000 1755.5747 -7495.6125 298.4613 -9251.1871 -7492.1987 299.8608 725.9073 860.4730 30394.6465 2.4234 2.4265
TCL: Exiting due to exit command.
