Info: SIMULATION PARAMETERS:
Info: TIMESTEP               2
Info: NUMBER OF STEPS        0
Info: STEPS PER CYCLE        10
Info: PERIODIC CELL BASIS 1  37.38 0 0
Info: PERIODIC CELL BASIS 2  0 34.26 0
Info: PERIODIC CELL BASIS 3  0 0 34.229
Info: PERIODIC CELL CENTER   0 0 0
Info: WRAPPING WATERS AROUND PERIODIC BOUNDARIES ON OUTPUT.
Info: WRAPPING ALL CLUSTERS AROUND PERIODIC BOUNDARIES ON OUTPUT.
Info: FIRST LDB TIMESTEP     50
Info: LAST LDB TIMESTEP     -1
Info: HOM BACKGROUND SCALING 1
Info: PME BACKGROUND SCALING 1
Info: MIN ATOMS PER PATCH    40
Info: EMPTY PATCH LOAD       40 ATOMS
Info: INITIAL TEMPERATURE    300
Info: CENTER OF MASS MOVING INITIALLY? NO
Info: DIELECTRIC             1
Info: EXCLUDE                SCALED ONE-FOUR
Info: 1-4 ELECTROSTATICS SCALED BY 0.833333
Info: MODIFIED 1-4 VDW PARAMETERS WILL BE USED
Info: DCD FILENAME           mobley_4371692_equil.dcd
Info: DCD FREQUENCY          100000
Info: DCD FIRST STEP         100000
Info: DCD FILE WILL CONTAIN UNIT CELL DATA
Info: XST FILENAME           mobley_4371692_equil.xst
Info: XST FREQUENCY          100000
Info: NO VELOCITY DCD OUTPUT
Info: NO FORCE DCD OUTPUT
Info: OUTPUT FILENAME        mobley_4371692_equil
Info: BINARY OUTPUT FILES WILL BE USED
Info: RESTART FILENAME       mobley_4371692_equil.restart
Info: RESTART FREQUENCY      100000
Info: BINARY RESTART FILES WILL BE USED
Info: CUTOFF                 9
Info: PAIRLIST DISTANCE      11
Info: PAIRLIST SHRINK RATE   0.01
Info: PAIRLIST GROW RATE     0.01
Info: PAIRLIST TRIGGER       0.3
Info: PAIRLISTS PER CYCLE    2
Info: PAIRLISTS ENABLED
Info: MARGIN                 8
Info: HYDROGEN GROUP CUTOFF  2.5
Info: PATCH DIMENSION        21.5
Info: ENERGY OUTPUT STEPS    100000
Info: ENERGY EVALUATION STEPS    100000
Info: OUTPUT ENERGY PRECISION 4
Info: CROSSTERM ENERGY INCLUDED IN DIHEDRAL
Info: TIMING OUTPUT STEPS    1000000
Info: PRESSURE OUTPUT STEPS  100000
Info: LANGEVIN DYNAMICS ACTIVE
Info: LANGEVIN TEMPERATURE   30
Info: LANGEVIN USING BBK INTEGRATOR
Info: LANGEVIN DAMPING COEFFICIENT IS 1 INVERSE PS
Info: LANGEVIN DYNAMICS APPLIED TO HYDROGENS
Info: LANGEVIN PISTON PRESSURE CONTROL ACTIVE
Info:        TARGET PRESSURE IS 1.01325 BAR
Info:     OSCILLATION PERIOD IS 50 FS
Info:             DECAY TIME IS 25 FS
Info:     PISTON TEMPERATURE IS 300 K
Info:       PRESSURE CONTROL IS GROUP-BASED
Info:    INITIAL STRAIN RATE IS 0 0 0
Info:       CELL FLUCTUATION IS ISOTROPIC
Info: PARTICLE MESH EWALD (PME) ACTIVE
Info: PME TOLERANCE               1e-06
Info: PME EWALD COEFFICIENT       0.348832
Info: PME INTERPOLATION ORDER     4
Info: PME GRID DIMENSIONS         40 36 36
Info: PME MAXIMUM GRID SPACING    1
Info: FULL ELECTROSTATIC EVALUATION FREQUENCY      2
Info: USING VERLET I (r-RESPA) MTS SCHEME.
Info: C1 SPLITTING OF LONG RANGE ELECTROSTATICS
Info: PLACING ATOMS IN PATCHES BY HYDROGEN GROUPS
Info: RIGID BONDS TO HYDROGEN : ALL
Info:         ERROR TOLERANCE : 1e-08
Info:          MAX ITERATIONS : 100
Info: RIGID WATER USING SETTLE ALGORITHM
Info: RANDOM NUMBER SEED     1743222876
Info: USE HYDROGEN BONDS?    NO
Info: Using AMBER format force field!
Info: AMBER PARM FILE        mobley_4371692.prmtop
Info: COORDINATE PDB         mobley_4371692.pdb
Info: Exclusions will be read from PARM file!
Info: SCNB (VDW SCALING)     2
Info: USING ARITHMETIC MEAN TO COMBINE L-J SIGMA PARAMETERS
Info: BINARY COORDINATES     mobley_4371692_min.coor
Info: SUMMARY OF PARAMETERS:
Info: 10 BONDS
Info: 10 ANGLES
Info:   10 HARMONIC
Info:   0 COSINE-BASED
Info: 6 DIHEDRAL
Info: 0 IMPROPER
Info: 0 CROSSTERM
Info: 0 VDW
Info: 36 VDW_PAIRS
Info: 0 NBTHOLE_PAIRS
Info: STRUCTURE SUMMARY:
Info: 2949 ATOMS
Info: 2951 BONDS
Info: 46 ANGLES
Info: 85 DIHEDRALS
Info: 0 IMPROPERS
Info: 0 CROSSTERMS
Info: 3058 EXCLUSIONS
Info: 2931 RIGID BONDS
Info: 5916 DEGREES OF FREEDOM
Info: 992 HYDROGEN GROUPS
Info: 3 ATOMS IN LARGEST HYDROGEN GROUP
Info: 992 MIGRATION GROUPS
Info: 3 ATOMS IN LARGEST MIGRATION GROUP
Info: TOTAL MASS = 17786.8 amu
Info: TOTAL CHARGE = 0.000100076 e
Info: MASS DENSITY = 0.673808 g/cm^3
Info: ATOM DENSITY = 0.067275 atoms/A^3
Info: ADDED 0 IMPLICIT EXCLUSIONS
Info: NONBONDED TABLE R-SQUARED SPACING: 0.0625
Info: NONBONDED TABLE SIZE: 705 POINTS
Info: REMOVING COM VELOCITY 0.0126601 0.183244 -0.0553584
TCL: Running for 100000 steps
ETITLE: TS BOND ANGLE DIHED IMPRP ELECT VDW BOUNDARY MISC KINETIC TOTAL TEMP POTENTIAL TOTAL3 TEMPAVG PRESSURE GPRESSURE VOLUME PRESSAVG GPRESSAVG
ENERGY: 0 1.5772 2.1407 1.7820 0.0000 -13500.1791 2343.7756 0.0000 0.0000 1713.0737 -9437.8299 291.4327 -11150.9036 -9437.4981 291.4327 92.3391 129.1624 43834.9855 92.3391 129.1624
ENERGY: 100000 2.0790 2.2972 2.7117 0.0000 -14176.2637 2454.4337 0.0000 0.0000 171.9356 -11542.8066 29.2501 -11714.7422 -11542.4282 30.9315 -83.5986 -9.4491 28704.7324 4.0246 4.0523
TCL: Running 100000 steps at 60 kelvin.
TCL: Setting parameter langevinTemp to 60
TCL: Running for 100000 steps
ETITLE: TS BOND ANGLE DIHED IMPRP ELECT VDW BOUNDARY MISC KINETIC TOTAL TEMP POTENTIAL TOTAL3 TEMPAVG PRESSURE GPRESSURE VOLUME PRESSAVG GPRESSAVG
ENERGY: 100000 2.0790 2.2972 2.7117 0.0000 -14176.2637 2454.4337 0.0000 0.0000 171.8489 -11542.8933 29.2354 -11714.7422 -11542.5210 29.2354 -78.1023 -9.5286 28704.7324 -78.1023 -9.5286
ENERGY: 200000 1.7941 3.6363 2.4098 0.0000 -14063.2556 2408.5732 0.0000 0.0000 346.2913 -11300.5509 58.9120 -11646.8422 -11300.1219 60.0185 157.1679 210.4183 28211.2115 4.0289 4.0664
TCL: Running 100000 steps at 90 kelvin.
TCL: Setting parameter langevinTemp to 90
TCL: Running for 100000 steps
ETITLE: TS BOND ANGLE DIHED IMPRP ELECT VDW BOUNDARY MISC KINETIC TOTAL TEMP POTENTIAL TOTAL3 TEMPAVG PRESSURE GPRESSURE VOLUME PRESSAVG GPRESSAVG
ENERGY: 200000 1.7941 3.6363 2.4098 0.0000 -14063.2556 2408.5732 0.0000 0.0000 346.1202 -11300.7220 58.8829 -11646.8422 -11300.0080 58.8829 151.0772 209.9422 28211.2115 151.0772 209.9422
ENERGY: 300000 4.1335 3.4114 7.3228 0.0000 -13836.7526 2302.3415 0.0000 0.0000 534.3534 -10985.1900 90.9056 -11519.5434 -10984.1781 89.8413 -509.8629 -434.9452 28387.9718 3.5719 3.4838
TCL: Running 100000 steps at 120 kelvin.
TCL: Setting parameter langevinTemp to 120
TCL: Running for 100000 steps
ETITLE: TS BOND ANGLE DIHED IMPRP ELECT VDW BOUNDARY MISC KINETIC TOTAL TEMP POTENTIAL TOTAL3 TEMPAVG PRESSURE GPRESSURE VOLUME PRESSAVG GPRESSAVG
ENERGY: 300000 4.1335 3.4114 7.3228 0.0000 -13836.7526 2302.3415 0.0000 0.0000 534.0849 -10985.4585 90.8600 -11519.5434 -10983.8975 90.8600 -490.9629 -436.2026 28387.9718 -490.9629 -436.2026
ENERGY: 400000 4.1176 4.6587 3.0820 0.0000 -13660.6427 2258.2860 0.0000 0.0000 683.8289 -10706.6695 116.3348 -11390.4983 -10704.2703 119.9595 -321.8637 -240.9992 28318.9962 4.6984 4.7712
TCL: Running 100000 steps at 150 kelvin.
TCL: Setting parameter langevinTemp to 150
TCL: Running for 100000 steps
ETITLE: TS BOND ANGLE DIHED IMPRP ELECT VDW BOUNDARY MISC KINETIC TOTAL TEMP POTENTIAL TOTAL3 TEMPAVG PRESSURE GPRESSURE VOLUME PRESSAVG GPRESSAVG
ENERGY: 400000 4.1176 4.6587 3.0820 0.0000 -13660.6427 2258.2860 0.0000 0.0000 683.4664 -10707.0320 116.2731 -11390.4983 -10705.8109 116.2731 -307.3967 -240.1627 28318.9962 -307.3967 -240.1627
ENERGY: 500000 3.6606 5.5815 1.6145 0.0000 -13655.0443 2411.1220 0.0000 0.0000 881.6740 -10351.3917 149.9927 -11233.0657 -10350.0532 149.8809 1648.0749 1678.4920 28324.7359 3.8943 3.7268
TCL: Running 100000 steps at 180 kelvin.
TCL: Setting parameter langevinTemp to 180
TCL: Running for 100000 steps
ETITLE: TS BOND ANGLE DIHED IMPRP ELECT VDW BOUNDARY MISC KINETIC TOTAL TEMP POTENTIAL TOTAL3 TEMPAVG PRESSURE GPRESSURE VOLUME PRESSAVG GPRESSAVG
ENERGY: 500000 3.6606 5.5815 1.6145 0.0000 -13655.0443 2411.1220 0.0000 0.0000 881.2352 -10351.8305 149.9181 -11233.0657 -10350.4925 149.9181 1634.6170 1678.5854 28324.7359 1634.6170 1678.5854
ENERGY: 600000 5.2537 5.9686 8.0145 0.0000 -13145.4908 2212.3134 0.0000 0.0000 1087.1229 -9826.8178 184.9443 -10913.9407 -9824.9119 180.1189 807.2871 827.9590 29026.4839 4.8230 4.8760
TCL: Running 100000 steps at 210 kelvin.
TCL: Setting parameter langevinTemp to 210
TCL: Running for 100000 steps
ETITLE: TS BOND ANGLE DIHED IMPRP ELECT VDW BOUNDARY MISC KINETIC TOTAL TEMP POTENTIAL TOTAL3 TEMPAVG PRESSURE GPRESSURE VOLUME PRESSAVG GPRESSAVG
ENERGY: 600000 5.2537 5.9686 8.0145 0.0000 -13145.4908 2212.3134 0.0000 0.0000 1086.6122 -9827.3285 184.8574 -10913.9407 -9825.9445 184.8574 763.4792 828.4768 29026.4839 763.4792 828.4768
ENERGY: 700000 3.6414 6.6609 5.2571 0.0000 -12333.3770 1896.4776 0.0000 0.0000 1265.7189 -9155.6212 215.3275 -10421.3402 -9151.9841 210.0291 144.4815 212.7146 28875.3177 4.0814 3.9526
TCL: Running 100000 steps at 240 kelvin.
TCL: Setting parameter langevinTemp to 240
TCL: Running for 100000 steps
ETITLE: TS BOND ANGLE DIHED IMPRP ELECT VDW BOUNDARY MISC KINETIC TOTAL TEMP POTENTIAL TOTAL3 TEMPAVG PRESSURE GPRESSURE VOLUME PRESSAVG GPRESSAVG
ENERGY: 700000 3.6414 6.6609 5.2571 0.0000 -12333.3770 1896.4776 0.0000 0.0000 1265.1062 -9156.2340 215.2233 -10421.3402 -9153.8319 215.2233 140.8113 214.3511 28875.3177 140.8113 214.3511
ENERGY: 800000 5.4159 8.2370 8.3264 0.0000 -11783.3753 1767.4467 0.0000 0.0000 1394.3108 -8599.6384 237.2039 -9993.9492 -8594.1873 239.6805 674.2081 750.6605 28976.6251 4.2428 4.1441
TCL: Running 100000 steps at 270 kelvin.
TCL: Setting parameter langevinTemp to 270
TCL: Running for 100000 steps
ETITLE: TS BOND ANGLE DIHED IMPRP ELECT VDW BOUNDARY MISC KINETIC TOTAL TEMP POTENTIAL TOTAL3 TEMPAVG PRESSURE GPRESSURE VOLUME PRESSAVG GPRESSAVG
ENERGY: 800000 5.4159 8.2370 8.3264 0.0000 -11783.3753 1767.4467 0.0000 0.0000 1393.5915 -8600.3577 237.0815 -9993.9492 -8598.1838 237.0815 658.8227 753.2526 28976.6251 658.8227 753.2526
ENERGY: 900000 8.0169 8.0829 8.9394 0.0000 -11250.1513 1565.1353 0.0000 0.0000 1559.1978 -8100.7789 265.2549 -9659.9767 -8098.1194 270.0450 -238.4832 -84.8530 29479.2902 3.7149 3.5721
TCL: Running 1000000 steps at 300 kelvin.
TCL: Setting parameter langevinTemp to 300
TCL: Running for 1000000 steps
ETITLE: TS BOND ANGLE DIHED IMPRP ELECT VDW BOUNDARY MISC KINETIC TOTAL TEMP POTENTIAL TOTAL3 TEMPAVG PRESSURE GPRESSURE VOLUME PRESSAVG GPRESSAVG
ENERGY: 900000 8.0169 8.0829 8.9394 0.0000 -11250.1513 1565.1353 0.0000 0.0000 1558.3854 -8101.5913 265.1167 -9659.9767 -8098.9256 265.1167 -173.6448 -86.5512 29479.2902 -173.6448 -86.5512
ENERGY: 1100000 7.0320 7.1508 8.2275 0.0000 -10632.4255 1446.3064 0.0000 0.0000 1723.7293 -7439.9795 293.2454 -9163.7088 -7433.9658 300.8629 215.0269 345.3902 30231.5134 1.4612 1.1826
ENERGY: 1300000 4.7319 8.3977 5.1684 0.0000 -10639.4169 1479.5670 0.0000 0.0000 1804.2521 -7337.2997 306.9442 -9141.5518 -7336.3050 300.4123 785.9808 860.5861 30229.0875 2.6468 2.6053
ENERGY: 1500000 9.2455 6.6668 12.0229 0.0000 -10618.7798 1383.0225 0.0000 0.0000 1841.7276 -7366.0945 313.3196 -9207.8222 -7360.8748 299.7646 -311.8678 -233.0843 30136.9722 3.4290 3.4880
ENERGY: 1700000 5.4100 7.4440 5.3360 0.0000 -10655.1841 1400.7891 0.0000 0.0000 1736.4093 -7499.7957 295.4026 -9236.2050 -7497.0749 299.7734 -231.4843 -186.2014 30481.8533 2.8063 2.9364
ENERGY: 1900000 3.8829 8.8574 14.3726 0.0000 -10695.5157 1407.0970 0.0000 0.0000 1788.4946 -7472.8112 304.2635 -9261.3058 -7471.2324 299.8518 -318.6639 -288.7829 30366.5557 3.1658 3.2185
TCL: Exiting due to exit command.
