Info: SIMULATION PARAMETERS:
Info: TIMESTEP               2
Info: NUMBER OF STEPS        0
Info: STEPS PER CYCLE        10
Info: PERIODIC CELL BASIS 1  31.7308 0 0
Info: PERIODIC CELL BASIS 2  0 31.2073 0
Info: PERIODIC CELL BASIS 3  0 0 30.8046
Info: PERIODIC CELL CENTER   0 0 0
Info: WRAPPING WATERS AROUND PERIODIC BOUNDARIES ON OUTPUT.
Info: WRAPPING ALL CLUSTERS AROUND PERIODIC BOUNDARIES ON OUTPUT.
Info: FIRST LDB TIMESTEP     50
Info: LAST LDB TIMESTEP     -1
Info: HOM BACKGROUND SCALING 1
Info: PME BACKGROUND SCALING 1
Info: MIN ATOMS PER PATCH    40
Info: EMPTY PATCH LOAD       40 ATOMS
Info: VELOCITY FILE          mobley_8983100_equil.vel
Info: CENTER OF MASS MOVING INITIALLY? NO
Info: DIELECTRIC             1
Info: EXCLUDE                SCALED ONE-FOUR
Info: 1-4 ELECTROSTATICS SCALED BY 0.833333
Info: MODIFIED 1-4 VDW PARAMETERS WILL BE USED
Info: DCD FILENAME           mobley_8983100_prod.dcd
Info: DCD FREQUENCY          100000
Info: DCD FIRST STEP         100000
Info: DCD FILE WILL CONTAIN UNIT CELL DATA
Info: XST FILENAME           mobley_8983100_prod.xst
Info: XST FREQUENCY          100000
Info: NO VELOCITY DCD OUTPUT
Info: NO FORCE DCD OUTPUT
Info: OUTPUT FILENAME        mobley_8983100_prod
Info: BINARY OUTPUT FILES WILL BE USED
Info: RESTART FILENAME       mobley_8983100_prod.restart
Info: RESTART FREQUENCY      100000
Info: BINARY RESTART FILES WILL BE USED
Info: CUTOFF                 9
Info: PAIRLIST DISTANCE      11
Info: PAIRLIST SHRINK RATE   0.01
Info: PAIRLIST GROW RATE     0.01
Info: PAIRLIST TRIGGER       0.3
Info: PAIRLISTS PER CYCLE    2
Info: PAIRLISTS ENABLED
Info: MARGIN                 2
Info: HYDROGEN GROUP CUTOFF  2.5
Info: PATCH DIMENSION        15.5
Info: ENERGY OUTPUT STEPS    100000
Info: ENERGY EVALUATION STEPS    100000
Info: OUTPUT ENERGY PRECISION 4
Info: CROSSTERM ENERGY INCLUDED IN DIHEDRAL
Info: TIMING OUTPUT STEPS    1000000
Info: PRESSURE OUTPUT STEPS  100000
Info: ALCHEMICAL FEP ON
Info: FEP CURRENT LAMBDA VALUE     1
Info: FEP COMPARISON LAMBDA VALUE  0.95
Info: FEP INTRA-ALCHEMICAL NON-BONDED INTERACTIONS WILL BE RETAINED
Info: FEP INTRA-ALCHEMICAL BONDED INTERACTIONS WILL BE RETAINED
Info: FEP VDW SHIFTING COEFFICIENT 5
Info: FEP ELEC. ACTIVE FOR ANNIHILATED PARTICLES BETWEEN LAMBDA = 0 AND LAMBDA = 0.5
Info: FEP ELEC. ACTIVE FOR EXNIHILATED PARTICLES BETWEEN LAMBDA = 0.5 AND LAMBDA = 1
Info: FEP VDW ACTIVE FOR ANNIHILATED PARTICLES BETWEEN LAMBDA = 0 AND LAMBDA = 1
Info: FEP VDW ACTIVE FOR EXNIHILATED PARTICLES BETWEEN LAMBDA = 0 AND LAMBDA = 1
Info: FEP BOND ACTIVE FOR ANNIHILATED PARTICLES BETWEEN LAMBDA = 1 AND LAMBDA = 1
Info: FEP BOND ACTIVE FOR EXNIHILATED PARTICLES BETWEEN LAMBDA = 0 AND LAMBDA = 0
Info: LANGEVIN DYNAMICS ACTIVE
Info: LANGEVIN TEMPERATURE   300
Info: LANGEVIN USING BBK INTEGRATOR
Info: LANGEVIN DAMPING COEFFICIENT IS 1 INVERSE PS
Info: LANGEVIN DYNAMICS APPLIED TO HYDROGENS
Info: LANGEVIN PISTON PRESSURE CONTROL ACTIVE
Info:        TARGET PRESSURE IS 1.01325 BAR
Info:     OSCILLATION PERIOD IS 50 FS
Info:             DECAY TIME IS 25 FS
Info:     PISTON TEMPERATURE IS 300 K
Info:       PRESSURE CONTROL IS GROUP-BASED
Info:    INITIAL STRAIN RATE IS -0.000276896 -0.000276896 -0.000276896
Info:       CELL FLUCTUATION IS ISOTROPIC
Info: PARTICLE MESH EWALD (PME) ACTIVE
Info: PME TOLERANCE               1e-06
Info: PME EWALD COEFFICIENT       0.348832
Info: PME INTERPOLATION ORDER     4
Info: PME GRID DIMENSIONS         32 32 32
Info: PME MAXIMUM GRID SPACING    1
Info: PME CALCULATION WILL BE PERFORMED ON GPU
Info: FULL ELECTROSTATIC EVALUATION FREQUENCY      2
Info: USING VERLET I (r-RESPA) MTS SCHEME.
Info: C1 SPLITTING OF LONG RANGE ELECTROSTATICS
Info: PLACING ATOMS IN PATCHES BY HYDROGEN GROUPS
Info: RIGID BONDS TO HYDROGEN : ALL
Info:         ERROR TOLERANCE : 1e-08
Info:          MAX ITERATIONS : 100
Info: RIGID WATER USING SETTLE ALGORITHM
Info: RANDOM NUMBER SEED     1743478074
Info: USE HYDROGEN BONDS?    NO
Info: Using AMBER format force field!
Info: AMBER PARM FILE        mobley_8983100.prmtop
Info: COORDINATE PDB         mobley_8983100.pdb
Info: Exclusions will be read from PARM file!
Info: SCNB (VDW SCALING)     2
Info: USING ARITHMETIC MEAN TO COMBINE L-J SIGMA PARAMETERS
Info: BINARY COORDINATES     mobley_8983100_equil.coor
Info: SUMMARY OF PARAMETERS:
Info: 4 BONDS
Info: 2 ANGLES
Info:   2 HARMONIC
Info:   0 COSINE-BASED
Info: 0 DIHEDRAL
Info: 0 IMPROPER
Info: 0 CROSSTERM
Info: 0 VDW
Info: 15 VDW_PAIRS
Info: 0 NBTHOLE_PAIRS
Info: To read alchdata from file: mobley_8983100.pdb
Info: To read alchflag data from column: 5
Info: STRUCTURE SUMMARY:
Info: 2960 ATOMS
Info: 2959 BONDS
Info: 6 ANGLES
Info: 0 DIHEDRALS
Info: 0 IMPROPERS
Info: 0 CROSSTERMS
Info: 2965 EXCLUSIONS
Info: 2958 RIGID BONDS
Info: ALCH: 0 ATOMS TO DISAPPEAR IN FINAL STATE
Info: ALCH: 5 ATOMS TO APPEAR IN FINAL STATE
Info: 5922 DEGREES OF FREEDOM
Info: 987 HYDROGEN GROUPS
Info: 4 ATOMS IN LARGEST HYDROGEN GROUP
Info: 987 MIGRATION GROUPS
Info: 4 ATOMS IN LARGEST MIGRATION GROUP
Info: TOTAL MASS = 17840.7 amu
Info: TOTAL CHARGE = 3.72529e-09 e
Info: MASS DENSITY = 0.971221 g/cm^3
Info: ATOM DENSITY = 0.0970373 atoms/A^3
Info: ADDED 0 IMPLICIT EXCLUSIONS
Info: NONBONDED TABLE R-SQUARED SPACING: 0.0625
Info: NONBONDED TABLE SIZE: 705 POINTS
Info: REDUCING NUMBER OF PATCHES TO IMPROVE LOAD BALANCE
Info: REMOVING COM VELOCITY -0.181723 0.123768 -0.159271
Info: Use 3D box decompostion in PME FFT.
Info: Updated CUDA force table with 4096 elements.
Info: Updated CUDA LJ table with 5 x 5 elements.
Info: Found 8 unique exclusion lists needing 8 bytes
TCL: Running for 1500000 steps
ETITLE: TS BOND ANGLE DIHED IMPRP ELECT VDW BOUNDARY MISC KINETIC TOTAL TEMP POTENTIAL TOTALAVG TEMPAVG PRESSURE GPRESSURE VOLUME PRESSAVG GPRESSAVG
ENERGY: 0 0.4434 1.0564 0.0000 0.0000 -10816.0829 1489.6421 0.0000 0.0000 1762.8559 -7562.0851 299.5979 -9324.9411 -7562.0851 299.5979 227.2307 316.0924 30503.7350 227.2307 316.0924
ENERGY: 300000 0.4308 1.2635 0.0000 0.0000 -10823.8662 1509.2679 0.0000 0.0000 1772.8165 -7540.0876 301.2907 -9312.9041 -7544.3174 300.2746 479.2206 500.9165 30505.0494 361.3624 403.0555
ENERGY: 600000 0.0001 2.9719 0.0000 0.0000 -10872.3776 1548.3871 0.0000 0.0000 1762.2064 -7558.8121 299.4875 -9321.0185 -7521.9166 302.8238 600.9624 644.7742 30706.2922 256.5624 306.3475
ENERGY: 900000 0.7174 3.3617 0.0000 0.0000 -10680.7449 1447.1767 0.0000 0.0000 1823.5384 -7405.9508 309.9109 -9229.4892 -7509.8513 303.5330 369.9685 447.0220 30328.9628 142.3385 195.8779
ENERGY: 1200000 0.1698 1.8749 0.0000 0.0000 -10683.9596 1392.1592 0.0000 0.0000 1724.7871 -7564.9685 293.1281 -9289.7557 -7518.4018 301.9317 -353.2521 -342.7326 30510.2607 138.3271 187.7520
ENERGY: 1500000 0.3170 3.2040 0.0000 0.0000 -10781.9313 1503.0796 0.0000 0.0000 1713.7362 -7561.5944 291.2500 -9275.3306 -7525.4650 301.3012 264.1778 341.6729 30949.6139 69.9583 119.5047
TCL: Running FEP window   2: Lambda1 0.95   Lambda2 0.8999999999999999 [dLambda -0.050000000000000044]
TCL: Setting parameter firsttimestep to 0
TCL: Setting parameter alchLambda to 0.95
Info: NONBONDED TABLE R-SQUARED SPACING: 0.0625
Info: NONBONDED TABLE SIZE: 705 POINTS
TCL: Setting parameter alchLambda2 to 0.8999999999999999
Info: NONBONDED TABLE R-SQUARED SPACING: 0.0625
Info: NONBONDED TABLE SIZE: 705 POINTS
TCL: Running for 1500000 steps
ETITLE: TS BOND ANGLE DIHED IMPRP ELECT VDW BOUNDARY MISC KINETIC TOTAL TEMP POTENTIAL TOTALAVG TEMPAVG PRESSURE GPRESSURE VOLUME PRESSAVG GPRESSAVG
ENERGY: 0 0.3170 3.2040 0.0000 0.0000 -10781.8543 1503.2824 0.0000 0.0000 1712.9020 -7562.1488 291.1082 -9275.0509 -7562.1488 291.1082 250.4518 337.1701 30949.6139 250.4518 337.1701
ENERGY: 300000 0.1371 0.8392 0.0000 0.0000 -10692.9916 1404.5097 0.0000 0.0000 1785.1089 -7502.3967 303.3798 -9287.5056 -7542.1294 299.8984 -146.6667 -95.6495 30208.3109 -23.5048 51.0450
ENERGY: 600000 0.0653 3.1309 0.0000 0.0000 -10734.2688 1433.2796 0.0000 0.0000 1724.4561 -7573.3370 293.0719 -9297.7931 -7565.0102 297.4389 -373.3920 -236.5951 30912.7631 -98.1784 -29.7981
ENERGY: 900000 0.1135 3.5807 0.0000 0.0000 -10663.9233 1382.6336 0.0000 0.0000 1700.6961 -7576.8994 289.0338 -9277.5955 -7572.6038 296.4000 -575.1242 -533.1304 30787.8038 -107.3157 -47.0282
ENERGY: 1200000 0.0914 1.4210 0.0000 0.0000 -10795.9809 1522.3486 0.0000 0.0000 1781.7800 -7490.3400 302.8141 -9272.1200 -7565.6416 296.9998 706.6741 758.5207 30404.9622 -80.2765 -25.1177
ENERGY: 1500000 0.0188 3.9632 0.0000 0.0000 -10751.5810 1490.9680 0.0000 0.0000 1701.3598 -7555.2713 289.1466 -9256.6311 -7559.0256 297.2963 134.8030 222.3889 30886.4779 -98.2291 -43.2186
TCL: Running FEP window   3: Lambda1 0.8999999999999999 Lambda2 0.8499999999999999 [dLambda -0.050000000000000044]
TCL: Setting parameter firsttimestep to 0
TCL: Setting parameter alchLambda to 0.8999999999999999
Info: NONBONDED TABLE R-SQUARED SPACING: 0.0625
Info: NONBONDED TABLE SIZE: 705 POINTS
TCL: Setting parameter alchLambda2 to 0.8499999999999999
Info: NONBONDED TABLE R-SQUARED SPACING: 0.0625
Info: NONBONDED TABLE SIZE: 705 POINTS
TCL: Running for 1500000 steps
ETITLE: TS BOND ANGLE DIHED IMPRP ELECT VDW BOUNDARY MISC KINETIC TOTAL TEMP POTENTIAL TOTALAVG TEMPAVG PRESSURE GPRESSURE VOLUME PRESSAVG GPRESSAVG
ENERGY: 0 0.0188 3.9632 0.0000 0.0000 -10751.4573 1490.9117 0.0000 0.0000 1700.4595 -7556.1042 288.9936 -9256.5637 -7556.1042 288.9936 114.9681 214.1400 30886.4779 114.9681 214.1400
ENERGY: 300000 0.2352 1.6899 0.0000 0.0000 -10747.7570 1463.3993 0.0000 0.0000 1759.4736 -7522.9591 299.0231 -9282.4327 -7530.3447 297.9579 52.2005 112.1768 30693.1411 -203.9395 -126.1693
ENERGY: 600000 0.0037 0.9913 0.0000 0.0000 -10831.6607 1511.7996 0.0000 0.0000 1847.6282 -7471.2379 314.0050 -9318.8660 -7525.1634 301.0211 692.6960 812.7029 30242.0394 -42.4947 41.5778
ENERGY: 900000 0.0016 3.7712 0.0000 0.0000 -10843.7076 1454.9921 0.0000 0.0000 1736.2832 -7648.6595 295.0819 -9384.9427 -7544.4622 299.4308 -113.6543 -64.2079 30413.7279 -160.9288 -81.9589
ENERGY: 1200000 0.1447 1.6502 0.0000 0.0000 -10734.4478 1375.9131 0.0000 0.0000 1788.4902 -7568.2496 303.9545 -9356.7397 -7536.3387 301.1796 -554.0143 -445.1606 30354.2634 -247.2888 -168.3380
ENERGY: 1500000 0.0081 2.9508 0.0000 0.0000 -10681.1185 1374.9098 0.0000 0.0000 1747.1395 -7556.1103 296.9269 -9303.2498 -7531.6919 301.7537 -524.6340 -474.1664 30549.2886 -233.2138 -158.7373
TCL: Running FEP window   4: Lambda1 0.8499999999999999 Lambda2 0.7999999999999998 [dLambda -0.050000000000000044]
TCL: Setting parameter firsttimestep to 0
TCL: Setting parameter alchLambda to 0.8499999999999999
Info: NONBONDED TABLE R-SQUARED SPACING: 0.0625
Info: NONBONDED TABLE SIZE: 705 POINTS
TCL: Setting parameter alchLambda2 to 0.7999999999999998
Info: NONBONDED TABLE R-SQUARED SPACING: 0.0625
Info: NONBONDED TABLE SIZE: 705 POINTS
TCL: Running for 1500000 steps
ETITLE: TS BOND ANGLE DIHED IMPRP ELECT VDW BOUNDARY MISC KINETIC TOTAL TEMP POTENTIAL TOTALAVG TEMPAVG PRESSURE GPRESSURE VOLUME PRESSAVG GPRESSAVG
ENERGY: 0 0.0081 2.9508 0.0000 0.0000 -10681.0905 1374.6956 0.0000 0.0000 1746.2468 -7557.1891 296.7752 -9303.4360 -7557.1891 296.7752 -557.3221 -482.9671 30549.2886 -557.3221 -482.9671
ENERGY: 300000 0.4485 0.7291 0.0000 0.0000 -10695.7643 1409.8379 0.0000 0.0000 1769.9433 -7514.8054 300.8024 -9284.7487 -7546.0493 299.9421 -336.5748 -258.8990 30734.3391 -381.9318 -298.1002
ENERGY: 600000 0.0018 1.8941 0.0000 0.0000 -10771.5198 1443.0375 0.0000 0.0000 1791.5349 -7535.0515 304.4719 -9326.5864 -7552.7756 300.0938 -15.3417 60.7800 30530.4230 -387.8676 -318.7570
ENERGY: 900000 0.1307 2.2582 0.0000 0.0000 -10841.1503 1549.0034 0.0000 0.0000 1743.6914 -7546.0667 296.3409 -9289.7580 -7559.4409 298.6501 861.8150 927.8924 30365.2135 -176.8824 -112.1649
ENERGY: 1200000 0.0251 1.9846 0.0000 0.0000 -10766.6094 1439.5585 0.0000 0.0000 1750.5998 -7574.4414 297.5150 -9325.0412 -7543.1051 299.5834 -324.2867 -259.6700 31023.2929 -176.1662 -108.7660
ENERGY: 1500000 0.0011 1.4405 0.0000 0.0000 -10741.4006 1395.7794 0.0000 0.0000 1757.7100 -7586.4697 298.7234 -9344.1797 -7543.3492 299.7298 -547.5945 -429.3284 30742.8505 -238.1321 -169.6344
TCL: Running FEP window   5: Lambda1 0.7999999999999998 Lambda2 0.7499999999999998 [dLambda -0.050000000000000044]
TCL: Setting parameter firsttimestep to 0
TCL: Setting parameter alchLambda to 0.7999999999999998
Info: NONBONDED TABLE R-SQUARED SPACING: 0.0625
Info: NONBONDED TABLE SIZE: 705 POINTS
TCL: Setting parameter alchLambda2 to 0.7499999999999998
Info: NONBONDED TABLE R-SQUARED SPACING: 0.0625
Info: NONBONDED TABLE SIZE: 705 POINTS
TCL: Running for 1500000 steps
ETITLE: TS BOND ANGLE DIHED IMPRP ELECT VDW BOUNDARY MISC KINETIC TOTAL TEMP POTENTIAL TOTALAVG TEMPAVG PRESSURE GPRESSURE VOLUME PRESSAVG GPRESSAVG
ENERGY: 0 0.0011 1.4405 0.0000 0.0000 -10741.2503 1395.8385 0.0000 0.0000 1756.8454 -7587.1250 298.5764 -9343.9703 -7587.1250 298.5764 -504.3208 -434.4552 30742.8505 -504.3208 -434.4552
ENERGY: 300000 0.0012 1.7277 0.0000 0.0000 -10708.8706 1406.8532 0.0000 0.0000 1756.1492 -7544.1393 298.4581 -9300.2885 -7541.2562 300.7733 -370.3914 -378.0111 31025.2424 -293.9731 -254.1570
ENERGY: 600000 0.0024 3.5582 0.0000 0.0000 -10551.5388 1338.0182 0.0000 0.0000 1757.2448 -7452.7153 298.6443 -9209.9600 -7532.1640 300.0808 -595.4056 -508.1836 30568.8772 -364.0376 -316.8423
ENERGY: 900000 0.3592 2.6321 0.0000 0.0000 -10704.4988 1386.0346 0.0000 0.0000 1723.6518 -7591.8211 292.9352 -9315.4729 -7531.0899 300.0001 -776.1087 -723.0444 30907.6081 -334.6809 -293.2574
ENERGY: 1200000 1.3772 2.5939 0.0000 0.0000 -10616.8578 1410.0616 0.0000 0.0000 1730.9424 -7471.8827 294.1742 -9202.8251 -7529.7742 299.5159 -10.7075 36.5294 30325.0547 -141.9935 -100.7983
ENERGY: 1500000 0.2193 0.7895 0.0000 0.0000 -10803.4374 1487.9287 0.0000 0.0000 1763.7130 -7550.7870 299.7436 -9314.4999 -7537.8272 299.1336 129.7214 204.0525 30838.4270 -98.5763 -53.0593
TCL: Running FEP window   6: Lambda1 0.7499999999999998 Lambda2 0.6999999999999997 [dLambda -0.050000000000000044]
TCL: Setting parameter firsttimestep to 0
TCL: Setting parameter alchLambda to 0.7499999999999998
Info: NONBONDED TABLE R-SQUARED SPACING: 0.0625
Info: NONBONDED TABLE SIZE: 705 POINTS
TCL: Setting parameter alchLambda2 to 0.6999999999999997
Info: NONBONDED TABLE R-SQUARED SPACING: 0.0625
Info: NONBONDED TABLE SIZE: 705 POINTS
TCL: Running for 1500000 steps
ETITLE: TS BOND ANGLE DIHED IMPRP ELECT VDW BOUNDARY MISC KINETIC TOTAL TEMP POTENTIAL TOTALAVG TEMPAVG PRESSURE GPRESSURE VOLUME PRESSAVG GPRESSAVG
ENERGY: 0 0.2193 0.7895 0.0000 0.0000 -10803.1890 1488.2243 0.0000 0.0000 1762.8448 -7551.1112 299.5960 -9313.9560 -7551.1112 299.5960 131.6124 201.9706 30838.4270 131.6124 201.9706
ENERGY: 300000 0.0177 0.8717 0.0000 0.0000 -10672.4061 1406.1744 0.0000 0.0000 1828.5770 -7436.7654 310.7672 -9265.3424 -7511.0141 301.0543 -360.2750 -356.5882 31211.8750 124.7490 182.6190
ENERGY: 600000 0.1145 3.4513 0.0000 0.0000 -10709.8446 1456.3749 0.0000 0.0000 1793.5929 -7456.3111 304.8217 -9249.9040 -7523.3685 301.7014 215.6522 322.9121 30399.5814 163.9889 221.5181
ENERGY: 900000 0.1804 1.6532 0.0000 0.0000 -10697.1259 1409.8851 0.0000 0.0000 1760.1990 -7525.2081 299.1464 -9285.4072 -7536.5072 299.1009 -318.9626 -241.5848 30660.2929 123.1286 183.1145
ENERGY: 1200000 0.0998 1.4418 0.0000 0.0000 -10612.4084 1353.7277 0.0000 0.0000 1746.4589 -7510.6802 296.8112 -9257.1391 -7534.4057 299.6791 -740.9925 -695.2522 30847.3414 25.7111 81.6772
ENERGY: 1500000 0.2690 1.5667 0.0000 0.0000 -10768.0675 1432.1311 0.0000 0.0000 1753.7062 -7580.3945 298.0429 -9334.1007 -7530.2789 299.8837 -145.3741 -59.2252 30381.9487 -74.1885 -16.1157
TCL: Running FEP window   7: Lambda1 0.6999999999999997 Lambda2 0.6499999999999997 [dLambda -0.050000000000000044]
TCL: Setting parameter firsttimestep to 0
TCL: Setting parameter alchLambda to 0.6999999999999997
Info: NONBONDED TABLE R-SQUARED SPACING: 0.0625
Info: NONBONDED TABLE SIZE: 705 POINTS
TCL: Setting parameter alchLambda2 to 0.6499999999999997
Info: NONBONDED TABLE R-SQUARED SPACING: 0.0625
Info: NONBONDED TABLE SIZE: 705 POINTS
TCL: Running for 1500000 steps
ETITLE: TS BOND ANGLE DIHED IMPRP ELECT VDW BOUNDARY MISC KINETIC TOTAL TEMP POTENTIAL TOTALAVG TEMPAVG PRESSURE GPRESSURE VOLUME PRESSAVG GPRESSAVG
ENERGY: 0 0.2690 1.5667 0.0000 0.0000 -10767.9006 1432.2651 0.0000 0.0000 1752.8280 -7580.9718 297.8937 -9333.7998 -7580.9718 297.8937 -137.2963 -61.5089 30381.9487 -137.2963 -61.5089
ENERGY: 300000 0.0783 1.2791 0.0000 0.0000 -10834.1720 1490.3387 0.0000 0.0000 1778.1619 -7564.3140 302.1992 -9342.4759 -7566.4176 296.9819 440.5177 494.4067 30320.4863 24.4417 79.8551
ENERGY: 600000 0.0859 1.5711 0.0000 0.0000 -10754.2705 1428.0768 0.0000 0.0000 1785.6403 -7538.8964 303.4701 -9324.5367 -7541.1674 298.5714 -64.6120 37.8897 30238.4686 103.0591 161.0020
ENERGY: 900000 0.0164 1.6893 0.0000 0.0000 -10743.5756 1396.0328 0.0000 0.0000 1734.7141 -7611.1230 294.8152 -9345.8371 -7554.2814 298.8806 -501.9061 -362.5180 30225.9176 97.0795 149.1260
ENERGY: 1200000 0.0132 2.1411 0.0000 0.0000 -10766.7920 1435.4289 0.0000 0.0000 1797.8287 -7531.3800 305.5416 -9329.2088 -7553.6866 299.7960 -135.5963 -147.7538 30738.4152 25.7416 71.9308
ENERGY: 1500000 0.0919 3.2570 0.0000 0.0000 -10741.3442 1396.1741 0.0000 0.0000 1768.1269 -7573.6943 300.4937 -9341.8212 -7553.9309 300.3762 -654.3469 -525.4079 31075.8034 59.3293 111.5938
TCL: Running FEP window   8: Lambda1 0.6499999999999997 Lambda2 0.5999999999999996 [dLambda -0.050000000000000044]
TCL: Setting parameter firsttimestep to 0
TCL: Setting parameter alchLambda to 0.6499999999999997
Info: NONBONDED TABLE R-SQUARED SPACING: 0.0625
Info: NONBONDED TABLE SIZE: 705 POINTS
TCL: Setting parameter alchLambda2 to 0.5999999999999996
Info: NONBONDED TABLE R-SQUARED SPACING: 0.0625
Info: NONBONDED TABLE SIZE: 705 POINTS
TCL: Running for 1500000 steps
ETITLE: TS BOND ANGLE DIHED IMPRP ELECT VDW BOUNDARY MISC KINETIC TOTAL TEMP POTENTIAL TOTALAVG TEMPAVG PRESSURE GPRESSURE VOLUME PRESSAVG GPRESSAVG
ENERGY: 0 0.0919 3.2570 0.0000 0.0000 -10741.4031 1396.2996 0.0000 0.0000 1767.2700 -7574.4845 300.3481 -9341.7546 -7574.4845 300.3481 -615.1069 -529.6407 31075.8034 -615.1069 -529.6407
ENERGY: 300000 0.0420 1.4413 0.0000 0.0000 -10783.5055 1445.1532 0.0000 0.0000 1745.7978 -7591.0711 296.6989 -9336.8689 -7533.3482 299.7983 216.0605 232.1940 30073.2099 -101.4793 -44.9080
ENERGY: 600000 0.1250 2.7231 0.0000 0.0000 -10752.8827 1482.4842 0.0000 0.0000 1774.9488 -7492.6016 301.6531 -9267.5504 -7534.2745 299.7281 197.0963 329.0305 30753.1080 -22.1293 60.6670
ENERGY: 900000 0.3030 0.8716 0.0000 0.0000 -10921.0846 1479.6131 0.0000 0.0000 1766.5320 -7673.7650 300.2227 -9440.2969 -7545.1022 300.9512 -203.3687 -86.7379 30320.3917 -29.1154 57.7278
ENERGY: 1200000 0.0609 2.2419 0.0000 0.0000 -10758.6296 1415.6720 0.0000 0.0000 1788.8211 -7551.8337 304.0107 -9340.6547 -7544.1026 301.1135 -241.6396 -175.9303 30295.1313 -0.7083 81.0018
ENERGY: 1500000 0.0116 1.2250 0.0000 0.0000 -10685.6251 1434.5446 0.0000 0.0000 1771.9029 -7477.9411 301.1355 -9249.8439 -7544.7562 300.8396 -417.5658 -336.8739 31345.1309 -83.3311 -0.4587
TCL: Running FEP window   9: Lambda1 0.5999999999999996 Lambda2 0.5499999999999996 [dLambda -0.050000000000000044]
TCL: Setting parameter firsttimestep to 0
TCL: Setting parameter alchLambda to 0.5999999999999996
Info: NONBONDED TABLE R-SQUARED SPACING: 0.0625
Info: NONBONDED TABLE SIZE: 705 POINTS
TCL: Setting parameter alchLambda2 to 0.5499999999999996
Info: NONBONDED TABLE R-SQUARED SPACING: 0.0625
Info: NONBONDED TABLE SIZE: 705 POINTS
TCL: Running for 1500000 steps
ETITLE: TS BOND ANGLE DIHED IMPRP ELECT VDW BOUNDARY MISC KINETIC TOTAL TEMP POTENTIAL TOTALAVG TEMPAVG PRESSURE GPRESSURE VOLUME PRESSAVG GPRESSAVG
ENERGY: 0 0.0116 1.2250 0.0000 0.0000 -10685.5259 1434.7896 0.0000 0.0000 1771.0250 -7478.4747 300.9863 -9249.4997 -7478.4747 300.9863 -423.4176 -336.6127 31345.1309 -423.4176 -336.6127
ENERGY: 300000 0.0348 1.2434 0.0000 0.0000 -10637.9740 1360.0112 0.0000 0.0000 1846.7050 -7429.9796 313.8481 -9276.6846 -7506.5447 302.8747 -693.4464 -580.6232 30822.0708 -260.0622 -191.2670
ENERGY: 600000 0.0102 6.1518 0.0000 0.0000 -10832.7713 1504.0578 0.0000 0.0000 1760.7825 -7561.7691 299.2455 -9322.5515 -7526.1129 300.9794 566.1445 579.8201 30093.9612 -44.0551 7.8336
ENERGY: 900000 0.0045 0.5773 0.0000 0.0000 -10651.4796 1397.1234 0.0000 0.0000 1772.1470 -7481.6273 301.1769 -9253.7743 -7525.1541 301.7513 -145.9749 -182.8450 30615.0855 -148.6576 -102.4135
ENERGY: 1200000 0.3753 2.7295 0.0000 0.0000 -10779.1310 1462.5106 0.0000 0.0000 1692.3512 -7621.1645 287.6156 -9313.5157 -7532.3839 300.9631 311.0250 349.6892 29971.4419 -76.2574 -29.1038
ENERGY: 1500000 0.4790 3.2385 0.0000 0.0000 -10868.8838 1489.3097 0.0000 0.0000 1785.0653 -7590.7912 303.3724 -9375.8565 -7528.4123 301.0486 325.1696 341.8503 30153.9172 -24.8700 19.0613
TCL: Running FEP window  10: Lambda1 0.5499999999999996 Lambda2 0.4999999999999996 [dLambda -0.04999999999999999]
TCL: Setting parameter firsttimestep to 0
TCL: Setting parameter alchLambda to 0.5499999999999996
Info: NONBONDED TABLE R-SQUARED SPACING: 0.0625
Info: NONBONDED TABLE SIZE: 705 POINTS
TCL: Setting parameter alchLambda2 to 0.4999999999999996
Info: NONBONDED TABLE R-SQUARED SPACING: 0.0625
Info: NONBONDED TABLE SIZE: 705 POINTS
TCL: Running for 1500000 steps
ETITLE: TS BOND ANGLE DIHED IMPRP ELECT VDW BOUNDARY MISC KINETIC TOTAL TEMP POTENTIAL TOTALAVG TEMPAVG PRESSURE GPRESSURE VOLUME PRESSAVG GPRESSAVG
ENERGY: 0 0.4790 3.2385 0.0000 0.0000 -10868.7366 1489.6195 0.0000 0.0000 1784.1860 -7591.2136 303.2230 -9375.3996 -7591.2136 303.2230 236.4746 341.0860 30153.9172 236.4746 341.0860
ENERGY: 300000 0.0573 2.2564 0.0000 0.0000 -10691.5213 1431.8670 0.0000 0.0000 1739.6301 -7517.7105 295.6507 -9257.3406 -7540.8663 300.6099 58.6127 142.9883 30269.3211 237.4280 308.4122
ENERGY: 600000 0.1069 1.8582 0.0000 0.0000 -10874.4371 1490.2005 0.0000 0.0000 1758.5595 -7623.7120 298.8677 -9382.2715 -7557.6777 298.8309 -116.1690 -24.2711 30735.0322 106.2841 186.1753
ENERGY: 900000 0.3387 2.4768 0.0000 0.0000 -10625.6271 1333.2107 0.0000 0.0000 1741.0854 -7548.5155 295.8980 -9289.6009 -7544.8477 298.8156 -1076.0353 -1091.4693 31045.1051 -124.8818 -61.5296
ENERGY: 1200000 0.4163 1.5211 0.0000 0.0000 -10722.3538 1442.6765 0.0000 0.0000 1772.3957 -7505.3442 301.2192 -9277.7399 -7546.3941 299.6203 211.5896 229.3332 30250.6862 9.2054 65.8953
ENERGY: 1500000 0.0086 1.5395 0.0000 0.0000 -10821.7613 1513.4878 0.0000 0.0000 1741.3483 -7565.3770 295.9427 -9306.7254 -7542.0384 300.2417 370.6941 448.5140 30313.8737 47.5874 105.2201
TCL: Running FEP window  11: Lambda1 0.4999999999999996 Lambda2 0.4499999999999996 [dLambda -0.04999999999999999]
TCL: Setting parameter firsttimestep to 0
TCL: Setting parameter alchLambda to 0.4999999999999996
Info: NONBONDED TABLE R-SQUARED SPACING: 0.0625
Info: NONBONDED TABLE SIZE: 705 POINTS
TCL: Setting parameter alchLambda2 to 0.4499999999999996
Info: NONBONDED TABLE R-SQUARED SPACING: 0.0625
Info: NONBONDED TABLE SIZE: 705 POINTS
TCL: Running for 1500000 steps
ETITLE: TS BOND ANGLE DIHED IMPRP ELECT VDW BOUNDARY MISC KINETIC TOTAL TEMP POTENTIAL TOTALAVG TEMPAVG PRESSURE GPRESSURE VOLUME PRESSAVG GPRESSAVG
ENERGY: 0 0.0086 1.5395 0.0000 0.0000 -10821.6730 1513.7620 0.0000 0.0000 1740.4389 -7565.9241 295.7881 -9306.3630 -7565.9241 295.7881 367.5173 449.0398 30313.8737 367.5173 449.0398
ENERGY: 300000 0.1839 2.4303 0.0000 0.0000 -10790.9200 1449.8991 0.0000 0.0000 1739.2266 -7599.1801 295.5821 -9338.4067 -7517.9064 301.1582 138.0641 166.5615 30105.7705 253.0158 325.6298
ENERGY: 600000 0.0721 2.2821 0.0000 0.0000 -10806.0365 1492.5021 0.0000 0.0000 1724.1373 -7587.0429 293.0177 -9311.1802 -7532.4920 299.1028 260.1295 301.8471 30558.4396 212.8063 283.1254
ENERGY: 900000 0.5462 1.2642 0.0000 0.0000 -10651.0092 1407.3936 0.0000 0.0000 1724.1219 -7517.6833 293.0151 -9241.8052 -7548.7589 296.6175 -212.1269 -181.2040 30655.6660 60.5963 121.5174
ENERGY: 1200000 0.0356 1.3640 0.0000 0.0000 -10751.5716 1392.7837 0.0000 0.0000 1709.3617 -7648.0266 290.5066 -9357.3883 -7542.9394 297.3691 -845.0381 -730.1330 30651.3298 97.7617 158.6466
ENERGY: 1500000 0.8767 0.6144 0.0000 0.0000 -10626.2809 1428.4962 0.0000 0.0000 1776.3416 -7419.9521 301.8898 -9196.2937 -7529.3812 298.1953 46.3395 153.3193 30756.8351 105.2124 162.1837
TCL: Running FEP window  12: Lambda1 0.4499999999999996 Lambda2 0.39999999999999963 [dLambda -0.04999999999999999]
TCL: Setting parameter firsttimestep to 0
TCL: Setting parameter alchLambda to 0.4499999999999996
Info: NONBONDED TABLE R-SQUARED SPACING: 0.0625
Info: NONBONDED TABLE SIZE: 705 POINTS
TCL: Setting parameter alchLambda2 to 0.39999999999999963
Info: NONBONDED TABLE R-SQUARED SPACING: 0.0625
Info: NONBONDED TABLE SIZE: 705 POINTS
TCL: Running for 1500000 steps
ETITLE: TS BOND ANGLE DIHED IMPRP ELECT VDW BOUNDARY MISC KINETIC TOTAL TEMP POTENTIAL TOTALAVG TEMPAVG PRESSURE GPRESSURE VOLUME PRESSAVG GPRESSAVG
ENERGY: 0 0.8767 0.6144 0.0000 0.0000 -10626.2794 1428.4472 0.0000 0.0000 1775.4503 -7420.8909 301.7383 -9196.3412 -7420.8909 301.7383 73.0335 149.2020 30756.8351 73.0335 149.2020
ENERGY: 300000 0.0783 1.7097 0.0000 0.0000 -10860.2039 1537.5180 0.0000 0.0000 1789.9941 -7530.9038 304.2101 -9320.8979 -7508.6959 303.3564 547.8258 609.2291 30473.5163 24.2486 103.4467
ENERGY: 600000 0.1528 2.7437 0.0000 0.0000 -10622.8312 1398.0396 0.0000 0.0000 1775.6380 -7446.2571 301.7702 -9221.8951 -7519.0979 300.9150 -195.1647 -143.3824 30537.7023 -92.7938 -29.6445
ENERGY: 900000 2.2715 2.8551 0.0000 0.0000 -10722.5198 1411.2811 0.0000 0.0000 1761.9344 -7544.1776 299.4413 -9306.1120 -7519.1093 301.3250 -36.6398 -58.9874 30469.8164 -25.6143 14.1667
ENERGY: 1200000 0.2152 0.8154 0.0000 0.0000 -10755.9243 1466.1669 0.0000 0.0000 1770.4638 -7518.2630 300.8909 -9288.7268 -7526.2518 301.3891 10.3562 104.4254 30502.8751 -57.4285 -13.0449
ENERGY: 1500000 0.2348 4.6746 0.0000 0.0000 -10651.3516 1345.5469 0.0000 0.0000 1740.4695 -7560.4259 295.7933 -9300.8954 -7536.8994 300.1084 -981.8094 -900.4780 30731.4239 -109.8930 -62.2124
TCL: Running FEP window  13: Lambda1 0.39999999999999963 Lambda2 0.34999999999999964 [dLambda -0.04999999999999999]
TCL: Setting parameter firsttimestep to 0
TCL: Setting parameter alchLambda to 0.39999999999999963
Info: NONBONDED TABLE R-SQUARED SPACING: 0.0625
Info: NONBONDED TABLE SIZE: 705 POINTS
TCL: Setting parameter alchLambda2 to 0.34999999999999964
Info: NONBONDED TABLE R-SQUARED SPACING: 0.0625
Info: NONBONDED TABLE SIZE: 705 POINTS
TCL: Running for 1500000 steps
ETITLE: TS BOND ANGLE DIHED IMPRP ELECT VDW BOUNDARY MISC KINETIC TOTAL TEMP POTENTIAL TOTALAVG TEMPAVG PRESSURE GPRESSURE VOLUME PRESSAVG GPRESSAVG
ENERGY: 0 0.2348 4.6746 0.0000 0.0000 -10651.3510 1345.5926 0.0000 0.0000 1739.5994 -7561.2496 295.6455 -9300.8490 -7561.2496 295.6455 -990.7986 -902.4792 30731.4239 -990.7986 -902.4792
ENERGY: 300000 1.0141 1.7991 0.0000 0.0000 -10850.5646 1499.8040 0.0000 0.0000 1754.5452 -7593.4023 298.1855 -9347.9475 -7537.3006 299.1682 210.9262 267.1726 30499.6840 -318.4947 -243.3719
ENERGY: 600000 0.0732 1.8991 0.0000 0.0000 -10830.7205 1496.9873 0.0000 0.0000 1768.7107 -7563.0501 300.5929 -9331.7608 -7543.4713 298.3678 201.1165 305.6746 30692.1357 -321.5481 -242.8082
ENERGY: 900000 0.2095 1.8523 0.0000 0.0000 -10719.5713 1429.1881 0.0000 0.0000 1762.9016 -7525.4197 299.6057 -9288.3213 -7543.4238 299.3787 50.4522 135.3210 30333.1812 -176.7268 -103.6430
ENERGY: 1200000 0.0224 2.8187 0.0000 0.0000 -10807.6488 1466.2814 0.0000 0.0000 1677.7763 -7660.7500 285.1386 -9338.5263 -7549.6607 299.0572 -259.7544 -153.2772 30701.7469 -184.9618 -105.1406
ENERGY: 1500000 0.2807 1.2421 0.0000 0.0000 -10731.1819 1414.3999 0.0000 0.0000 1804.2303 -7511.0289 306.6295 -9315.2592 -7561.4592 299.0995 -326.2192 -255.6996 30339.5547 -195.0500 -117.2386
TCL: Running FEP window  14: Lambda1 0.34999999999999964 Lambda2 0.29999999999999966 [dLambda -0.04999999999999999]
TCL: Setting parameter firsttimestep to 0
TCL: Setting parameter alchLambda to 0.34999999999999964
Info: NONBONDED TABLE R-SQUARED SPACING: 0.0625
Info: NONBONDED TABLE SIZE: 705 POINTS
TCL: Setting parameter alchLambda2 to 0.29999999999999966
Info: NONBONDED TABLE R-SQUARED SPACING: 0.0625
Info: NONBONDED TABLE SIZE: 705 POINTS
TCL: Running for 1500000 steps
ETITLE: TS BOND ANGLE DIHED IMPRP ELECT VDW BOUNDARY MISC KINETIC TOTAL TEMP POTENTIAL TOTALAVG TEMPAVG PRESSURE GPRESSURE VOLUME PRESSAVG GPRESSAVG
ENERGY: 0 0.2807 1.2421 0.0000 0.0000 -10731.1816 1414.4123 0.0000 0.0000 1803.3535 -7511.8930 306.4805 -9315.2466 -7511.8930 306.4805 -351.5070 -256.7617 30339.5547 -351.5070 -256.7617
ENERGY: 300000 0.0005 1.4800 0.0000 0.0000 -10899.5562 1558.9143 0.0000 0.0000 1816.2698 -7522.8916 308.6756 -9339.1615 -7523.5985 305.6313 931.8383 956.1979 30197.1549 138.1430 182.3241
ENERGY: 600000 0.1558 2.5001 0.0000 0.0000 -10722.5596 1449.8822 0.0000 0.0000 1752.4066 -7517.6149 297.8221 -9270.0215 -7525.5646 301.7096 204.3524 228.8084 30401.4918 221.6214 270.4189
ENERGY: 900000 0.1250 3.0715 0.0000 0.0000 -10853.7249 1534.5194 0.0000 0.0000 1790.6348 -7525.3741 304.3190 -9316.0089 -7517.7791 303.1991 697.6291 719.4182 30458.4802 239.6645 287.1885
ENERGY: 1200000 0.9495 2.3635 0.0000 0.0000 -10721.6732 1389.2450 0.0000 0.0000 1746.2430 -7582.8722 296.7746 -9329.1152 -7521.4966 301.5219 -561.5279 -457.2263 30457.6597 213.6557 267.7432
ENERGY: 1500000 0.1142 1.2958 0.0000 0.0000 -10815.6872 1493.3410 0.0000 0.0000 1776.6114 -7544.3248 301.9357 -9320.9362 -7517.5439 302.0075 462.9852 485.8533 30233.8788 265.6205 316.9827
TCL: Running FEP window  15: Lambda1 0.29999999999999966 Lambda2 0.24999999999999967 [dLambda -0.04999999999999999]
TCL: Setting parameter firsttimestep to 0
TCL: Setting parameter alchLambda to 0.29999999999999966
Info: NONBONDED TABLE R-SQUARED SPACING: 0.0625
Info: NONBONDED TABLE SIZE: 705 POINTS
TCL: Setting parameter alchLambda2 to 0.24999999999999967
Info: NONBONDED TABLE R-SQUARED SPACING: 0.0625
Info: NONBONDED TABLE SIZE: 705 POINTS
TCL: Running for 1500000 steps
ETITLE: TS BOND ANGLE DIHED IMPRP ELECT VDW BOUNDARY MISC KINETIC TOTAL TEMP POTENTIAL TOTALAVG TEMPAVG PRESSURE GPRESSURE VOLUME PRESSAVG GPRESSAVG
ENERGY: 0 0.1142 1.2958 0.0000 0.0000 -10815.6869 1493.6461 0.0000 0.0000 1775.7404 -7544.8903 301.7877 -9320.6308 -7544.8903 301.7877 412.1173 487.8129 30233.8788 412.1173 487.8129
ENERGY: 300000 0.0038 0.9541 0.0000 0.0000 -10758.9713 1516.1278 0.0000 0.0000 1828.4837 -7413.4018 310.7514 -9241.8855 -7500.9094 303.3001 678.0411 801.7896 30425.6600 88.8206 203.8370
ENERGY: 600000 0.0013 0.7578 0.0000 0.0000 -10639.1627 1383.8914 0.0000 0.0000 1784.8363 -7469.6759 303.3335 -9254.5122 -7495.8934 304.7290 -541.0775 -479.9691 30910.9275 -116.7826 -32.3251
ENERGY: 900000 0.5701 1.1834 0.0000 0.0000 -10827.0878 1473.5444 0.0000 0.0000 1733.2726 -7618.5173 294.5702 -9351.7899 -7516.0178 303.5698 -60.9939 -5.6222 30493.6457 -72.9135 -0.4039
ENERGY: 1200000 0.0043 2.5031 0.0000 0.0000 -10825.6841 1441.9321 0.0000 0.0000 1759.0493 -7622.1954 298.9510 -9381.2447 -7519.3727 302.2514 -270.3964 -157.4522 30434.5972 -132.1302 -56.7145
ENERGY: 1500000 0.0005 2.0604 0.0000 0.0000 -10872.1837 1479.7552 0.0000 0.0000 1763.6415 -7626.7262 299.7314 -9390.3677 -7528.1613 301.3432 22.9681 112.8928 30372.0147 -149.3744 -71.7449
TCL: Running FEP window  16: Lambda1 0.24999999999999967 Lambda2 0.19999999999999968 [dLambda -0.04999999999999999]
TCL: Setting parameter firsttimestep to 0
TCL: Setting parameter alchLambda to 0.24999999999999967
Info: NONBONDED TABLE R-SQUARED SPACING: 0.0625
Info: NONBONDED TABLE SIZE: 705 POINTS
TCL: Setting parameter alchLambda2 to 0.19999999999999968
Info: NONBONDED TABLE R-SQUARED SPACING: 0.0625
Info: NONBONDED TABLE SIZE: 705 POINTS
TCL: Running for 1500000 steps
ETITLE: TS BOND ANGLE DIHED IMPRP ELECT VDW BOUNDARY MISC KINETIC TOTAL TEMP POTENTIAL TOTALAVG TEMPAVG PRESSURE GPRESSURE VOLUME PRESSAVG GPRESSAVG
ENERGY: 0 0.0005 2.0604 0.0000 0.0000 -10872.1835 1480.0655 0.0000 0.0000 1762.7813 -7627.2759 299.5852 -9390.0571 -7627.2759 299.5852 32.7395 114.8923 30372.0147 32.7395 114.8923
ENERGY: 300000 1.0822 2.5027 0.0000 0.0000 -10756.8817 1428.8704 0.0000 0.0000 1736.7387 -7587.6877 295.1593 -9324.4264 -7589.8971 297.8447 -322.8715 -275.0536 30465.7913 -190.8322 -123.0488
ENERGY: 600000 0.0144 2.3070 0.0000 0.0000 -10749.2642 1395.9689 0.0000 0.0000 1718.3868 -7632.5870 292.0404 -9350.9738 -7578.4958 297.6743 -544.6601 -472.2726 30379.6642 -383.5097 -316.0124
ENERGY: 900000 0.1396 1.6987 0.0000 0.0000 -10588.5252 1325.4728 0.0000 0.0000 1824.7468 -7436.4673 310.1163 -9261.2141 -7561.8749 300.6575 -662.4937 -620.6098 30373.2093 -460.5303 -389.6504
ENERGY: 1200000 0.6178 1.5252 0.0000 0.0000 -10765.7116 1490.5487 0.0000 0.0000 1735.8261 -7537.1938 295.0042 -9273.0198 -7561.1883 299.9359 195.0019 243.9647 30703.5463 -425.3094 -356.6740
ENERGY: 1500000 0.2116 1.9495 0.0000 0.0000 -10707.8544 1428.7198 0.0000 0.0000 1709.4539 -7567.5196 290.5222 -9276.9735 -7555.2400 299.1007 -83.8869 -87.7915 30618.9067 -404.0076 -340.1171
TCL: Running FEP window  17: Lambda1 0.19999999999999968 Lambda2 0.1499999999999997 [dLambda -0.04999999999999999]
TCL: Setting parameter firsttimestep to 0
TCL: Setting parameter alchLambda to 0.19999999999999968
Info: NONBONDED TABLE R-SQUARED SPACING: 0.0625
Info: NONBONDED TABLE SIZE: 705 POINTS
TCL: Setting parameter alchLambda2 to 0.1499999999999997
Info: NONBONDED TABLE R-SQUARED SPACING: 0.0625
Info: NONBONDED TABLE SIZE: 705 POINTS
TCL: Running for 1500000 steps
ETITLE: TS BOND ANGLE DIHED IMPRP ELECT VDW BOUNDARY MISC KINETIC TOTAL TEMP POTENTIAL TOTALAVG TEMPAVG PRESSURE GPRESSURE VOLUME PRESSAVG GPRESSAVG
ENERGY: 0 0.2116 1.9495 0.0000 0.0000 -10707.8537 1428.5077 0.0000 0.0000 1708.5115 -7568.6733 290.3621 -9277.1848 -7568.6733 290.3621 -176.5174 -92.6958 30618.9067 -176.5174 -92.6958
ENERGY: 300000 0.0022 2.8197 0.0000 0.0000 -10748.3801 1433.8452 0.0000 0.0000 1746.7021 -7565.0110 296.8526 -9311.7130 -7574.2949 297.8618 -148.2204 -111.0453 30480.5104 -161.2401 -113.1569
ENERGY: 600000 0.3818 4.5243 0.0000 0.0000 -10816.8468 1455.6584 0.0000 0.0000 1716.2541 -7640.0281 291.6779 -9356.2823 -7591.2765 297.4816 -185.9765 -129.3560 30525.9238 -74.2675 -24.8616
ENERGY: 900000 0.2508 1.4577 0.0000 0.0000 -10892.3252 1564.8812 0.0000 0.0000 1826.1855 -7499.5500 310.3608 -9325.7355 -7575.1558 299.4264 1024.7391 1133.3464 29996.3633 135.5491 192.8301
ENERGY: 1200000 0.0868 1.3344 0.0000 0.0000 -10785.9993 1471.2894 0.0000 0.0000 1756.9995 -7556.2892 298.6026 -9313.2887 -7573.3660 299.3156 -4.3041 107.5878 30746.9871 129.9199 193.5711
ENERGY: 1500000 0.0082 2.8550 0.0000 0.0000 -10788.3152 1460.0569 0.0000 0.0000 1781.1918 -7544.2033 302.7141 -9325.3951 -7575.4964 299.1934 -26.2060 28.7818 30371.8226 87.5016 151.9190
TCL: Running FEP window  18: Lambda1 0.1499999999999997 Lambda2 0.09999999999999969 [dLambda -0.05 ]
TCL: Setting parameter firsttimestep to 0
TCL: Setting parameter alchLambda to 0.1499999999999997
Info: NONBONDED TABLE R-SQUARED SPACING: 0.0625
Info: NONBONDED TABLE SIZE: 705 POINTS
TCL: Setting parameter alchLambda2 to 0.09999999999999969
Info: NONBONDED TABLE R-SQUARED SPACING: 0.0625
Info: NONBONDED TABLE SIZE: 705 POINTS
TCL: Running for 1500000 steps
ETITLE: TS BOND ANGLE DIHED IMPRP ELECT VDW BOUNDARY MISC KINETIC TOTAL TEMP POTENTIAL TOTALAVG TEMPAVG PRESSURE GPRESSURE VOLUME PRESSAVG GPRESSAVG
ENERGY: 0 0.0082 2.8550 0.0000 0.0000 -10788.3160 1460.2883 0.0000 0.0000 1780.3378 -7544.8266 302.5690 -9325.1644 -7544.8266 302.5690 -50.7123 27.5611 30371.8226 -50.7123 27.5611
ENERGY: 300000 0.2841 1.9207 0.0000 0.0000 -10743.7191 1461.5504 0.0000 0.0000 1813.0633 -7466.9006 308.1307 -9279.9639 -7539.2274 302.7537 -114.7462 -39.4920 30904.0104 2.7264 77.2555
ENERGY: 600000 0.0096 1.1839 0.0000 0.0000 -10665.0122 1368.3988 0.0000 0.0000 1720.2694 -7575.1505 292.3603 -9295.4199 -7533.9737 300.7023 -689.3780 -548.7435 30385.1123 -186.8461 -92.5224
ENERGY: 900000 0.2900 4.3636 0.0000 0.0000 -10815.7016 1477.1179 0.0000 0.0000 1824.6448 -7509.2854 310.0990 -9333.9301 -7535.8869 300.0258 228.1561 257.6181 30183.0653 -198.5910 -120.4276
ENERGY: 1200000 0.0807 2.4875 0.0000 0.0000 -10704.0751 1386.7955 0.0000 0.0000 1777.4138 -7537.2977 302.0720 -9314.7114 -7542.1793 300.1535 -334.8154 -282.1255 30195.4917 -219.4493 -139.1692
ENERGY: 1500000 0.0552 1.7535 0.0000 0.0000 -10773.6932 1438.4662 0.0000 0.0000 1806.5929 -7526.8255 307.0310 -9333.4184 -7543.5217 301.0216 -76.5369 -41.3410 30400.2728 -187.9599 -114.1511
TCL: Running FEP window  19: Lambda1 0.09999999999999969 Lambda2 0.049999999999999684 [dLambda -0.05 ]
TCL: Setting parameter firsttimestep to 0
TCL: Setting parameter alchLambda to 0.09999999999999969
Info: NONBONDED TABLE R-SQUARED SPACING: 0.0625
Info: NONBONDED TABLE SIZE: 705 POINTS
TCL: Setting parameter alchLambda2 to 0.049999999999999684
Info: NONBONDED TABLE R-SQUARED SPACING: 0.0625
Info: NONBONDED TABLE SIZE: 705 POINTS
TCL: Running for 1500000 steps
ETITLE: TS BOND ANGLE DIHED IMPRP ELECT VDW BOUNDARY MISC KINETIC TOTAL TEMP POTENTIAL TOTALAVG TEMPAVG PRESSURE GPRESSURE VOLUME PRESSAVG GPRESSAVG
ENERGY: 0 0.0552 1.7535 0.0000 0.0000 -10773.6938 1438.5874 0.0000 0.0000 1805.6889 -7527.6087 306.8774 -9333.2977 -7527.6087 306.8774 -114.2709 -43.2749 30400.2728 -114.2709 -43.2749
ENERGY: 300000 0.0076 2.1413 0.0000 0.0000 -10785.6331 1514.9725 0.0000 0.0000 1718.0669 -7550.4447 291.9860 -9268.5116 -7556.3415 297.3678 401.6717 443.2944 30539.4184 79.9815 148.2246
ENERGY: 600000 0.4445 2.5304 0.0000 0.0000 -10737.9317 1436.9184 0.0000 0.0000 1754.5856 -7543.4527 298.1924 -9298.0383 -7516.4913 300.4452 29.8061 93.4694 30155.3853 109.7213 164.1554
ENERGY: 900000 0.1130 0.9802 0.0000 0.0000 -10725.3901 1420.4396 0.0000 0.0000 1769.8906 -7533.9668 300.7935 -9303.8574 -7529.8620 298.6915 -279.5107 -203.3146 30630.3327 52.8418 107.4231
ENERGY: 1200000 0.0000 2.1293 0.0000 0.0000 -10888.7602 1517.1400 0.0000 0.0000 1731.8340 -7637.6569 294.3257 -9369.4909 -7546.5389 298.7957 267.2223 335.5209 30499.0140 119.5823 175.0865
ENERGY: 1500000 0.0138 1.6468 0.0000 0.0000 -10795.1847 1485.2431 0.0000 0.0000 1782.5555 -7525.7256 302.9459 -9308.2811 -7547.9472 299.2786 331.0632 354.1706 30722.8185 177.8499 227.0056
TCL: Running FEP window  20: Lambda1 0.049999999999999684 Lambda2 0.0    [dLambda -0.049999999999999684]
TCL: Setting parameter firsttimestep to 0
TCL: Setting parameter alchLambda to 0.049999999999999684
Info: NONBONDED TABLE R-SQUARED SPACING: 0.0625
Info: NONBONDED TABLE SIZE: 705 POINTS
TCL: Setting parameter alchLambda2 to 0.0
Info: NONBONDED TABLE R-SQUARED SPACING: 0.0625
Info: NONBONDED TABLE SIZE: 705 POINTS
TCL: Running for 1500000 steps
ETITLE: TS BOND ANGLE DIHED IMPRP ELECT VDW BOUNDARY MISC KINETIC TOTAL TEMP POTENTIAL TOTALAVG TEMPAVG PRESSURE GPRESSURE VOLUME PRESSAVG GPRESSAVG
ENERGY: 0 0.0138 1.6468 0.0000 0.0000 -10795.1843 1485.0914 0.0000 0.0000 1781.6845 -7526.7478 302.7979 -9308.4323 -7526.7478 302.7979 270.3523 352.7048 30722.8185 270.3523 352.7048
ENERGY: 300000 0.0600 1.3634 0.0000 0.0000 -10759.5473 1473.3208 0.0000 0.0000 1818.9987 -7465.8043 309.1394 -9284.8031 -7539.0488 298.6259 199.1966 325.4964 30438.6763 65.6807 151.4225
ENERGY: 600000 0.0721 3.4531 0.0000 0.0000 -10850.1047 1506.0358 0.0000 0.0000 1752.3604 -7588.1834 297.8142 -9340.5438 -7544.9452 298.0532 619.8956 683.9307 29822.4447 76.4666 163.6664
ENERGY: 900000 1.1750 1.9289 0.0000 0.0000 -10656.5577 1353.2778 0.0000 0.0000 1750.6662 -7549.5098 297.5263 -9300.1760 -7550.0422 296.9600 -964.7634 -896.7963 30910.9666 -90.3529 -16.4863
ENERGY: 1200000 0.0206 2.4060 0.0000 0.0000 -10798.5393 1467.2077 0.0000 0.0000 1735.2034 -7593.7016 294.8984 -9328.9050 -7548.3026 297.1320 25.6972 100.1477 30293.4454 -124.7477 -57.4251
ENERGY: 1500000 0.2134 1.8611 0.0000 0.0000 -10770.9346 1452.5225 0.0000 0.0000 1788.1148 -7528.2227 303.8907 -9316.3375 -7551.7459 297.5745 206.8469 266.4937 30067.5990 -39.6531 24.8786
TCL: Exiting due to exit command.
