Info: SIMULATION PARAMETERS:
Info: TIMESTEP               2
Info: NUMBER OF STEPS        0
Info: STEPS PER CYCLE        10
Info: PERIODIC CELL BASIS 1  36.592 0 0
Info: PERIODIC CELL BASIS 2  0 36.762 0
Info: PERIODIC CELL BASIS 3  0 0 31.855
Info: PERIODIC CELL CENTER   0 0 0
Info: WRAPPING WATERS AROUND PERIODIC BOUNDARIES ON OUTPUT.
Info: WRAPPING ALL CLUSTERS AROUND PERIODIC BOUNDARIES ON OUTPUT.
Info: FIRST LDB TIMESTEP     50
Info: LAST LDB TIMESTEP     -1
Info: HOM BACKGROUND SCALING 1
Info: PME BACKGROUND SCALING 1
Info: MIN ATOMS PER PATCH    40
Info: EMPTY PATCH LOAD       40 ATOMS
Info: INITIAL TEMPERATURE    300
Info: CENTER OF MASS MOVING INITIALLY? NO
Info: DIELECTRIC             1
Info: EXCLUDE                SCALED ONE-FOUR
Info: 1-4 ELECTROSTATICS SCALED BY 0.833333
Info: MODIFIED 1-4 VDW PARAMETERS WILL BE USED
Info: DCD FILENAME           mobley_282648_equil.dcd
Info: DCD FREQUENCY          100000
Info: DCD FIRST STEP         100000
Info: DCD FILE WILL CONTAIN UNIT CELL DATA
Info: XST FILENAME           mobley_282648_equil.xst
Info: XST FREQUENCY          100000
Info: NO VELOCITY DCD OUTPUT
Info: NO FORCE DCD OUTPUT
Info: OUTPUT FILENAME        mobley_282648_equil
Info: BINARY OUTPUT FILES WILL BE USED
Info: RESTART FILENAME       mobley_282648_equil.restart
Info: RESTART FREQUENCY      100000
Info: BINARY RESTART FILES WILL BE USED
Info: CUTOFF                 9
Info: PAIRLIST DISTANCE      11
Info: PAIRLIST SHRINK RATE   0.01
Info: PAIRLIST GROW RATE     0.01
Info: PAIRLIST TRIGGER       0.3
Info: PAIRLISTS PER CYCLE    2
Info: PAIRLISTS ENABLED
Info: MARGIN                 8
Info: HYDROGEN GROUP CUTOFF  2.5
Info: PATCH DIMENSION        21.5
Info: ENERGY OUTPUT STEPS    100000
Info: ENERGY EVALUATION STEPS    100000
Info: OUTPUT ENERGY PRECISION 4
Info: CROSSTERM ENERGY INCLUDED IN DIHEDRAL
Info: TIMING OUTPUT STEPS    1000000
Info: PRESSURE OUTPUT STEPS  100000
Info: LANGEVIN DYNAMICS ACTIVE
Info: LANGEVIN TEMPERATURE   30
Info: LANGEVIN USING BBK INTEGRATOR
Info: LANGEVIN DAMPING COEFFICIENT IS 1 INVERSE PS
Info: LANGEVIN DYNAMICS APPLIED TO HYDROGENS
Info: LANGEVIN PISTON PRESSURE CONTROL ACTIVE
Info:        TARGET PRESSURE IS 1.01325 BAR
Info:     OSCILLATION PERIOD IS 50 FS
Info:             DECAY TIME IS 25 FS
Info:     PISTON TEMPERATURE IS 300 K
Info:       PRESSURE CONTROL IS GROUP-BASED
Info:    INITIAL STRAIN RATE IS 0 0 0
Info:       CELL FLUCTUATION IS ISOTROPIC
Info: PARTICLE MESH EWALD (PME) ACTIVE
Info: PME TOLERANCE               1e-06
Info: PME EWALD COEFFICIENT       0.348832
Info: PME INTERPOLATION ORDER     4
Info: PME GRID DIMENSIONS         40 40 32
Info: PME MAXIMUM GRID SPACING    1
Info: FULL ELECTROSTATIC EVALUATION FREQUENCY      2
Info: USING VERLET I (r-RESPA) MTS SCHEME.
Info: C1 SPLITTING OF LONG RANGE ELECTROSTATICS
Info: PLACING ATOMS IN PATCHES BY HYDROGEN GROUPS
Info: RIGID BONDS TO HYDROGEN : ALL
Info:         ERROR TOLERANCE : 1e-08
Info:          MAX ITERATIONS : 100
Info: RIGID WATER USING SETTLE ALGORITHM
Info: RANDOM NUMBER SEED     1743215193
Info: USE HYDROGEN BONDS?    NO
Info: Using AMBER format force field!
Info: AMBER PARM FILE        mobley_282648.prmtop
Info: COORDINATE PDB         mobley_282648.pdb
Info: Exclusions will be read from PARM file!
Info: SCNB (VDW SCALING)     2
Info: USING ARITHMETIC MEAN TO COMBINE L-J SIGMA PARAMETERS
Info: BINARY COORDINATES     mobley_282648_min.coor
Info: SUMMARY OF PARAMETERS:
Info: 4 BONDS
Info: 2 ANGLES
Info:   2 HARMONIC
Info:   0 COSINE-BASED
Info: 2 DIHEDRAL
Info: 0 IMPROPER
Info: 0 CROSSTERM
Info: 0 VDW
Info: 10 VDW_PAIRS
Info: 0 NBTHOLE_PAIRS
Info: STRUCTURE SUMMARY:
Info: 2919 ATOMS
Info: 2920 BONDS
Info: 30 ANGLES
Info: 54 DIHEDRALS
Info: 0 IMPROPERS
Info: 0 CROSSTERMS
Info: 2988 EXCLUSIONS
Info: 2909 RIGID BONDS
Info: 5848 DEGREES OF FREEDOM
Info: 977 HYDROGEN GROUPS
Info: 3 ATOMS IN LARGEST HYDROGEN GROUP
Info: 977 MIGRATION GROUPS
Info: 3 ATOMS IN LARGEST MIGRATION GROUP
Info: TOTAL MASS = 17549.6 amu
Info: TOTAL CHARGE = -0.000300005 e
Info: MASS DENSITY = 0.680087 g/cm^3
Info: ATOM DENSITY = 0.0681195 atoms/A^3
Info: ADDED 0 IMPLICIT EXCLUSIONS
Info: NONBONDED TABLE R-SQUARED SPACING: 0.0625
Info: NONBONDED TABLE SIZE: 705 POINTS
Info: REMOVING COM VELOCITY -0.0895869 -0.181248 0.098128
TCL: Running for 100000 steps
ETITLE: TS BOND ANGLE DIHED IMPRP ELECT VDW BOUNDARY MISC KINETIC TOTAL TEMP POTENTIAL TOTAL3 TEMPAVG PRESSURE GPRESSURE VOLUME PRESSAVG GPRESSAVG
ENERGY: 0 0.3385 0.0222 0.0099 0.0000 -13519.1394 2387.1902 0.0000 0.0000 1761.7365 -9369.8420 303.1964 -11131.5786 -9369.5072 303.1964 298.9275 331.2004 42851.1900 298.9275 331.2004
ENERGY: 100000 0.9169 0.4208 0.8460 0.0000 -13957.5926 2360.7595 0.0000 0.0000 177.4630 -11417.1864 30.5415 -11594.6493 -11416.6815 30.8334 -881.6001 -851.8926 28891.6393 4.0865 4.1168
TCL: Running 100000 steps at 60 kelvin.
TCL: Setting parameter langevinTemp to 60
TCL: Running for 100000 steps
ETITLE: TS BOND ANGLE DIHED IMPRP ELECT VDW BOUNDARY MISC KINETIC TOTAL TEMP POTENTIAL TOTAL3 TEMPAVG PRESSURE GPRESSURE VOLUME PRESSAVG GPRESSAVG
ENERGY: 100000 0.9169 0.4208 0.8460 0.0000 -13957.5926 2360.7595 0.0000 0.0000 177.3753 -11417.2740 30.5264 -11594.6493 -11416.8343 30.5264 -897.4245 -851.9522 28891.6393 -897.4245 -851.9522
ENERGY: 200000 1.2989 0.6994 0.7568 0.0000 -14009.0847 2488.5983 0.0000 0.0000 342.1108 -11175.6205 58.8776 -11517.7313 -11175.4477 59.8711 613.8430 644.6224 28404.9302 2.5406 2.6823
TCL: Running 100000 steps at 90 kelvin.
TCL: Setting parameter langevinTemp to 90
TCL: Running for 100000 steps
ETITLE: TS BOND ANGLE DIHED IMPRP ELECT VDW BOUNDARY MISC KINETIC TOTAL TEMP POTENTIAL TOTAL3 TEMPAVG PRESSURE GPRESSURE VOLUME PRESSAVG GPRESSAVG
ENERGY: 200000 1.2989 0.6994 0.7568 0.0000 -14009.0847 2488.5983 0.0000 0.0000 341.9372 -11175.7941 58.8477 -11517.7313 -11175.2721 58.8477 588.1170 644.1853 28404.9302 588.1170 644.1853
ENERGY: 300000 0.6785 1.9551 1.3517 0.0000 -13762.2839 2334.2578 0.0000 0.0000 531.7416 -10892.2993 91.5132 -11424.0409 -10890.9588 90.0639 -183.8664 -153.6759 28447.4551 3.5412 3.4341
TCL: Running 100000 steps at 120 kelvin.
TCL: Setting parameter langevinTemp to 120
TCL: Running for 100000 steps
ETITLE: TS BOND ANGLE DIHED IMPRP ELECT VDW BOUNDARY MISC KINETIC TOTAL TEMP POTENTIAL TOTAL3 TEMPAVG PRESSURE GPRESSURE VOLUME PRESSAVG GPRESSAVG
ENERGY: 300000 0.6785 1.9551 1.3517 0.0000 -13762.2839 2334.2578 0.0000 0.0000 531.4888 -10892.5520 91.4697 -11424.0409 -10891.1486 91.4697 -193.7719 -153.7839 28447.4551 -193.7719 -153.7839
ENERGY: 400000 1.0864 2.0420 2.3719 0.0000 -13620.2814 2328.2537 0.0000 0.0000 713.5572 -10572.9704 122.8038 -11286.5275 -10571.3363 119.9276 385.5321 393.4868 28319.6431 3.5462 3.4822
TCL: Running 100000 steps at 150 kelvin.
TCL: Setting parameter langevinTemp to 150
TCL: Running for 100000 steps
ETITLE: TS BOND ANGLE DIHED IMPRP ELECT VDW BOUNDARY MISC KINETIC TOTAL TEMP POTENTIAL TOTAL3 TEMPAVG PRESSURE GPRESSURE VOLUME PRESSAVG GPRESSAVG
ENERGY: 400000 1.0864 2.0420 2.3719 0.0000 -13620.2814 2328.2537 0.0000 0.0000 713.2171 -10573.3104 122.7453 -11286.5275 -10572.0508 122.7453 343.4146 392.9729 28319.6431 343.4146 392.9729
ENERGY: 500000 2.6068 2.8362 4.1546 0.0000 -13372.8246 2239.7356 0.0000 0.0000 882.6739 -10240.8174 151.9089 -11123.4914 -10238.5015 150.0249 36.4296 86.4807 28443.2411 3.9500 4.1184
TCL: Running 100000 steps at 180 kelvin.
TCL: Setting parameter langevinTemp to 180
TCL: Running for 100000 steps
ETITLE: TS BOND ANGLE DIHED IMPRP ELECT VDW BOUNDARY MISC KINETIC TOTAL TEMP POTENTIAL TOTAL3 TEMPAVG PRESSURE GPRESSURE VOLUME PRESSAVG GPRESSAVG
ENERGY: 500000 2.6068 2.8362 4.1546 0.0000 -13372.8246 2239.7356 0.0000 0.0000 882.2317 -10241.2597 151.8328 -11123.4914 -10239.7063 151.8328 36.2280 85.6424 28443.2411 36.2280 85.6424
ENERGY: 600000 2.2283 1.5548 2.0202 0.0000 -13072.2198 2172.4198 0.0000 0.0000 1036.9381 -9857.0585 178.4579 -10893.9966 -9854.1249 180.3011 702.4044 747.0569 28098.5460 2.8515 2.8468
TCL: Running 100000 steps at 210 kelvin.
TCL: Setting parameter langevinTemp to 210
TCL: Running for 100000 steps
ETITLE: TS BOND ANGLE DIHED IMPRP ELECT VDW BOUNDARY MISC KINETIC TOTAL TEMP POTENTIAL TOTAL3 TEMPAVG PRESSURE GPRESSURE VOLUME PRESSAVG GPRESSAVG
ENERGY: 600000 2.2283 1.5548 2.0202 0.0000 -13072.2198 2172.4198 0.0000 0.0000 1036.4331 -9857.5635 178.3710 -10893.9966 -9855.4230 178.3710 694.9507 746.4421 28098.5460 694.9507 746.4421
ENERGY: 700000 1.6174 2.5162 1.4456 0.0000 -12295.8168 1941.8426 0.0000 0.0000 1197.4124 -9150.9826 206.0757 -10348.3950 -9149.0819 210.2607 868.6860 984.5508 27969.7488 3.9282 3.8918
TCL: Running 100000 steps at 240 kelvin.
TCL: Setting parameter langevinTemp to 240
TCL: Running for 100000 steps
ETITLE: TS BOND ANGLE DIHED IMPRP ELECT VDW BOUNDARY MISC KINETIC TOTAL TEMP POTENTIAL TOTAL3 TEMPAVG PRESSURE GPRESSURE VOLUME PRESSAVG GPRESSAVG
ENERGY: 700000 1.6174 2.5162 1.4456 0.0000 -12295.8168 1941.8426 0.0000 0.0000 1196.7986 -9151.5964 205.9701 -10348.3950 -9149.5931 205.9701 915.0344 983.9019 27969.7488 915.0344 983.9019
ENERGY: 800000 3.2459 6.0248 3.3311 0.0000 -11819.5216 1804.9886 0.0000 0.0000 1336.5307 -8665.4005 230.0181 -10001.9312 -8660.0379 239.8723 483.9112 546.2386 28979.1437 4.0922 4.0908
TCL: Running 100000 steps at 270 kelvin.
TCL: Setting parameter langevinTemp to 270
TCL: Running for 100000 steps
ETITLE: TS BOND ANGLE DIHED IMPRP ELECT VDW BOUNDARY MISC KINETIC TOTAL TEMP POTENTIAL TOTAL3 TEMPAVG PRESSURE GPRESSURE VOLUME PRESSAVG GPRESSAVG
ENERGY: 800000 3.2459 6.0248 3.3311 0.0000 -11819.5216 1804.9886 0.0000 0.0000 1335.8148 -8666.1164 229.8949 -10001.9312 -8663.8958 229.8949 468.7570 548.0324 28979.1437 468.7570 548.0324
ENERGY: 900000 3.2772 2.2775 4.9058 0.0000 -11039.8179 1539.7894 0.0000 0.0000 1550.6656 -7938.9024 266.8709 -9489.5680 -7938.0144 270.2922 -52.2990 37.2766 29612.8936 5.1950 5.1509
TCL: Running 1000000 steps at 300 kelvin.
TCL: Setting parameter langevinTemp to 300
TCL: Running for 1000000 steps
ETITLE: TS BOND ANGLE DIHED IMPRP ELECT VDW BOUNDARY MISC KINETIC TOTAL TEMP POTENTIAL TOTAL3 TEMPAVG PRESSURE GPRESSURE VOLUME PRESSAVG GPRESSAVG
ENERGY: 900000 3.2772 2.2775 4.9058 0.0000 -11039.8179 1539.7894 0.0000 0.0000 1549.8836 -7939.6844 266.7363 -9489.5680 -7937.0955 266.7363 -45.8175 32.5422 29612.8936 -45.8175 32.5422
ENERGY: 1100000 0.2898 1.5445 5.2167 0.0000 -10567.3972 1409.8294 0.0000 0.0000 1712.7827 -7437.7341 294.7714 -9150.5168 -7436.1267 300.2434 -296.6826 -196.9537 30295.1744 3.5062 3.3036
ENERGY: 1300000 5.4670 5.2012 3.8220 0.0000 -10586.5652 1447.0051 0.0000 0.0000 1736.6187 -7388.4512 298.8736 -9125.0699 -7385.3750 300.4837 366.5823 377.8825 29765.3119 3.8719 3.8052
ENERGY: 1500000 4.7164 4.2618 5.0832 0.0000 -10482.1076 1406.8991 0.0000 0.0000 1718.3403 -7342.8068 295.7278 -9061.1471 -7336.0011 300.0036 18.0006 134.2326 30275.4079 1.5625 1.6205
ENERGY: 1700000 1.6174 2.7703 3.5521 0.0000 -10486.3090 1372.2061 0.0000 0.0000 1725.6610 -7380.5020 296.9877 -9106.1630 -7376.5271 299.4834 -63.2793 -76.6681 29956.5393 3.5457 3.4523
ENERGY: 1900000 3.0017 2.9202 6.7903 0.0000 -10756.3919 1546.4672 0.0000 0.0000 1734.2681 -7462.9444 298.4690 -9197.2125 -7458.0802 299.7890 837.5177 897.4993 29897.8828 3.3057 3.4803
TCL: Exiting due to exit command.
