Info: SIMULATION PARAMETERS:
Info: TIMESTEP               2
Info: NUMBER OF STEPS        0
Info: STEPS PER CYCLE        10
Info: PERIODIC CELL BASIS 1  34.986 0 0
Info: PERIODIC CELL BASIS 2  0 36.032 0
Info: PERIODIC CELL BASIS 3  0 0 34.954
Info: PERIODIC CELL CENTER   0 0 0
Info: WRAPPING WATERS AROUND PERIODIC BOUNDARIES ON OUTPUT.
Info: WRAPPING ALL CLUSTERS AROUND PERIODIC BOUNDARIES ON OUTPUT.
Info: FIRST LDB TIMESTEP     50
Info: LAST LDB TIMESTEP     -1
Info: HOM BACKGROUND SCALING 1
Info: PME BACKGROUND SCALING 1
Info: MIN ATOMS PER PATCH    40
Info: EMPTY PATCH LOAD       40 ATOMS
Info: INITIAL TEMPERATURE    300
Info: CENTER OF MASS MOVING INITIALLY? NO
Info: DIELECTRIC             1
Info: EXCLUDE                SCALED ONE-FOUR
Info: 1-4 ELECTROSTATICS SCALED BY 0.833333
Info: MODIFIED 1-4 VDW PARAMETERS WILL BE USED
Info: DCD FILENAME           mobley_8614858_equil.dcd
Info: DCD FREQUENCY          100000
Info: DCD FIRST STEP         100000
Info: DCD FILE WILL CONTAIN UNIT CELL DATA
Info: XST FILENAME           mobley_8614858_equil.xst
Info: XST FREQUENCY          100000
Info: NO VELOCITY DCD OUTPUT
Info: NO FORCE DCD OUTPUT
Info: OUTPUT FILENAME        mobley_8614858_equil
Info: BINARY OUTPUT FILES WILL BE USED
Info: RESTART FILENAME       mobley_8614858_equil.restart
Info: RESTART FREQUENCY      100000
Info: BINARY RESTART FILES WILL BE USED
Info: CUTOFF                 9
Info: PAIRLIST DISTANCE      11
Info: PAIRLIST SHRINK RATE   0.01
Info: PAIRLIST GROW RATE     0.01
Info: PAIRLIST TRIGGER       0.3
Info: PAIRLISTS PER CYCLE    2
Info: PAIRLISTS ENABLED
Info: MARGIN                 8
Info: HYDROGEN GROUP CUTOFF  2.5
Info: PATCH DIMENSION        21.5
Info: ENERGY OUTPUT STEPS    100000
Info: ENERGY EVALUATION STEPS    100000
Info: OUTPUT ENERGY PRECISION 4
Info: CROSSTERM ENERGY INCLUDED IN DIHEDRAL
Info: TIMING OUTPUT STEPS    1000000
Info: PRESSURE OUTPUT STEPS  100000
Info: LANGEVIN DYNAMICS ACTIVE
Info: LANGEVIN TEMPERATURE   30
Info: LANGEVIN USING BBK INTEGRATOR
Info: LANGEVIN DAMPING COEFFICIENT IS 1 INVERSE PS
Info: LANGEVIN DYNAMICS APPLIED TO HYDROGENS
Info: LANGEVIN PISTON PRESSURE CONTROL ACTIVE
Info:        TARGET PRESSURE IS 1.01325 BAR
Info:     OSCILLATION PERIOD IS 50 FS
Info:             DECAY TIME IS 25 FS
Info:     PISTON TEMPERATURE IS 300 K
Info:       PRESSURE CONTROL IS GROUP-BASED
Info:    INITIAL STRAIN RATE IS 0 0 0
Info:       CELL FLUCTUATION IS ISOTROPIC
Info: PARTICLE MESH EWALD (PME) ACTIVE
Info: PME TOLERANCE               1e-06
Info: PME EWALD COEFFICIENT       0.348832
Info: PME INTERPOLATION ORDER     4
Info: PME GRID DIMENSIONS         36 40 36
Info: PME MAXIMUM GRID SPACING    1
Info: FULL ELECTROSTATIC EVALUATION FREQUENCY      2
Info: USING VERLET I (r-RESPA) MTS SCHEME.
Info: C1 SPLITTING OF LONG RANGE ELECTROSTATICS
Info: PLACING ATOMS IN PATCHES BY HYDROGEN GROUPS
Info: RIGID BONDS TO HYDROGEN : ALL
Info:         ERROR TOLERANCE : 1e-08
Info:          MAX ITERATIONS : 100
Info: RIGID WATER USING SETTLE ALGORITHM
Info: RANDOM NUMBER SEED     1743256862
Info: USE HYDROGEN BONDS?    NO
Info: Using AMBER format force field!
Info: AMBER PARM FILE        mobley_8614858.prmtop
Info: COORDINATE PDB         mobley_8614858.pdb
Info: Exclusions will be read from PARM file!
Info: SCNB (VDW SCALING)     2
Info: USING ARITHMETIC MEAN TO COMBINE L-J SIGMA PARAMETERS
Info: BINARY COORDINATES     mobley_8614858_min.coor
Info: SUMMARY OF PARAMETERS:
Info: 4 BONDS
Info: 3 ANGLES
Info:   3 HARMONIC
Info:   0 COSINE-BASED
Info: 5 DIHEDRAL
Info: 0 IMPROPER
Info: 0 CROSSTERM
Info: 0 VDW
Info: 10 VDW_PAIRS
Info: 0 NBTHOLE_PAIRS
Info: STRUCTURE SUMMARY:
Info: 2906 ATOMS
Info: 2905 BONDS
Info: 42 ANGLES
Info: 62 DIHEDRALS
Info: 0 IMPROPERS
Info: 0 CROSSTERMS
Info: 3001 EXCLUSIONS
Info: 2899 RIGID BONDS
Info: 5819 DEGREES OF FREEDOM
Info: 968 HYDROGEN GROUPS
Info: 4 ATOMS IN LARGEST HYDROGEN GROUP
Info: 968 MIGRATION GROUPS
Info: 4 ATOMS IN LARGEST MIGRATION GROUP
Info: TOTAL MASS = 17413.6 amu
Info: TOTAL CHARGE = 0.00060001 e
Info: MASS DENSITY = 0.656247 g/cm^3
Info: ATOM DENSITY = 0.0659502 atoms/A^3
Info: ADDED 0 IMPLICIT EXCLUSIONS
Info: NONBONDED TABLE R-SQUARED SPACING: 0.0625
Info: NONBONDED TABLE SIZE: 705 POINTS
Info: REMOVING COM VELOCITY -0.0525153 0.07872 0.171734
TCL: Running for 100000 steps
ETITLE: TS BOND ANGLE DIHED IMPRP ELECT VDW BOUNDARY MISC KINETIC TOTAL TEMP POTENTIAL TOTAL3 TEMPAVG PRESSURE GPRESSURE VOLUME PRESSAVG GPRESSAVG
ENERGY: 0 0.0737 0.2294 1.6447 0.0000 -13347.3070 2362.6185 0.0000 0.0000 1696.3001 -9286.4406 293.3896 -10982.7407 -9286.1201 293.3896 527.2451 565.6646 44063.5560 527.2451 565.6646
ENERGY: 100000 0.1822 1.3081 1.7569 0.0000 -13911.0167 2386.5193 0.0000 0.0000 172.1549 -11349.0954 29.7757 -11521.2502 -11348.7116 30.9012 -356.8910 -286.9810 28750.2991 4.6881 4.7290
TCL: Running 100000 steps at 60 kelvin.
TCL: Setting parameter langevinTemp to 60
TCL: Running for 100000 steps
ETITLE: TS BOND ANGLE DIHED IMPRP ELECT VDW BOUNDARY MISC KINETIC TOTAL TEMP POTENTIAL TOTAL3 TEMPAVG PRESSURE GPRESSURE VOLUME PRESSAVG GPRESSAVG
ENERGY: 100000 0.1822 1.3081 1.7569 0.0000 -13911.0167 2386.5193 0.0000 0.0000 172.0730 -11349.1772 29.7615 -11521.2502 -11348.7983 29.7615 -352.1311 -287.0789 28750.2991 -352.1311 -287.0789
ENERGY: 200000 0.2762 2.8950 2.0724 0.0000 -13749.8755 2316.9407 0.0000 0.0000 348.9931 -11078.6980 60.3613 -11427.6912 -11077.8456 60.0080 -524.4540 -490.9790 28848.5004 4.1140 4.0401
TCL: Running 100000 steps at 90 kelvin.
TCL: Setting parameter langevinTemp to 90
TCL: Running for 100000 steps
ETITLE: TS BOND ANGLE DIHED IMPRP ELECT VDW BOUNDARY MISC KINETIC TOTAL TEMP POTENTIAL TOTAL3 TEMPAVG PRESSURE GPRESSURE VOLUME PRESSAVG GPRESSAVG
ENERGY: 200000 0.2762 2.8950 2.0724 0.0000 -13749.8755 2316.9407 0.0000 0.0000 348.8224 -11078.8687 60.3318 -11427.6912 -11078.1089 60.3318 -554.4780 -491.4256 28848.5004 -554.4780 -491.4256
ENERGY: 300000 0.3262 2.9844 1.8594 0.0000 -13699.5087 2350.4340 0.0000 0.0000 519.5353 -10824.3695 89.8581 -11343.9048 -10822.7219 89.9866 31.9850 57.6663 28849.9621 4.8548 4.7599
TCL: Running 100000 steps at 120 kelvin.
TCL: Setting parameter langevinTemp to 120
TCL: Running for 100000 steps
ETITLE: TS BOND ANGLE DIHED IMPRP ELECT VDW BOUNDARY MISC KINETIC TOTAL TEMP POTENTIAL TOTAL3 TEMPAVG PRESSURE GPRESSURE VOLUME PRESSAVG GPRESSAVG
ENERGY: 300000 0.3262 2.9844 1.8594 0.0000 -13699.5087 2350.4340 0.0000 0.0000 519.2826 -10824.6222 89.8144 -11343.9048 -10823.5411 89.8144 5.9820 57.6469 28849.9621 5.9820 57.6469
ENERGY: 400000 1.0674 5.1369 2.0719 0.0000 -13584.7914 2343.1026 0.0000 0.0000 678.7843 -10554.6282 117.4015 -11233.4126 -10552.6516 119.9983 372.6248 413.8079 28759.7047 2.9767 3.0898
TCL: Running 100000 steps at 150 kelvin.
TCL: Setting parameter langevinTemp to 150
TCL: Running for 100000 steps
ETITLE: TS BOND ANGLE DIHED IMPRP ELECT VDW BOUNDARY MISC KINETIC TOTAL TEMP POTENTIAL TOTAL3 TEMPAVG PRESSURE GPRESSURE VOLUME PRESSAVG GPRESSAVG
ENERGY: 400000 1.0674 5.1369 2.0719 0.0000 -13584.7914 2343.1026 0.0000 0.0000 678.4493 -10554.9633 117.3436 -11233.4126 -10553.5939 117.3436 360.4312 413.7980 28759.7047 360.4312 413.7980
ENERGY: 500000 0.6333 5.0967 1.8914 0.0000 -13342.3376 2266.5102 0.0000 0.0000 892.9963 -10175.2095 154.4513 -11068.2058 -10173.7137 150.0550 301.3465 336.9067 28607.8203 5.5990 5.5555
TCL: Running 100000 steps at 180 kelvin.
TCL: Setting parameter langevinTemp to 180
TCL: Running for 100000 steps
ETITLE: TS BOND ANGLE DIHED IMPRP ELECT VDW BOUNDARY MISC KINETIC TOTAL TEMP POTENTIAL TOTAL3 TEMPAVG PRESSURE GPRESSURE VOLUME PRESSAVG GPRESSAVG
ENERGY: 500000 0.6333 5.0967 1.8914 0.0000 -13342.3376 2266.5102 0.0000 0.0000 892.5769 -10175.6289 154.3788 -11068.2058 -10173.8642 154.3788 273.9468 336.4141 28607.8203 273.9468 336.4141
ENERGY: 600000 1.4494 6.1631 3.1345 0.0000 -12860.7510 2066.8609 0.0000 0.0000 1025.4578 -9757.6854 177.3617 -10783.1432 -9756.7851 179.8773 -107.5406 -121.6694 28617.3723 3.6419 3.8014
TCL: Running 100000 steps at 210 kelvin.
TCL: Setting parameter langevinTemp to 210
TCL: Running for 100000 steps
ETITLE: TS BOND ANGLE DIHED IMPRP ELECT VDW BOUNDARY MISC KINETIC TOTAL TEMP POTENTIAL TOTAL3 TEMPAVG PRESSURE GPRESSURE VOLUME PRESSAVG GPRESSAVG
ENERGY: 600000 1.4494 6.1631 3.1345 0.0000 -12860.7510 2066.8609 0.0000 0.0000 1024.9320 -9758.2112 177.2707 -10783.1432 -9756.0444 177.2707 -175.6600 -124.1753 28617.3723 -175.6600 -124.1753
ENERGY: 700000 1.5221 11.8488 2.6011 0.0000 -12259.5415 1930.1138 0.0000 0.0000 1201.1391 -9112.3165 207.7473 -10313.4556 -9108.3854 209.7886 720.1190 813.0999 27963.6939 3.6858 3.7002
TCL: Running 100000 steps at 240 kelvin.
TCL: Setting parameter langevinTemp to 240
TCL: Running for 100000 steps
ETITLE: TS BOND ANGLE DIHED IMPRP ELECT VDW BOUNDARY MISC KINETIC TOTAL TEMP POTENTIAL TOTAL3 TEMPAVG PRESSURE GPRESSURE VOLUME PRESSAVG GPRESSAVG
ENERGY: 700000 1.5221 11.8488 2.6011 0.0000 -12259.5415 1930.1138 0.0000 0.0000 1200.5267 -9112.9289 207.6414 -10313.4556 -9111.2359 207.6414 731.4071 813.9327 27963.6939 731.4071 813.9327
ENERGY: 800000 1.7632 9.7922 2.5215 0.0000 -11547.5457 1647.6376 0.0000 0.0000 1308.2637 -8577.5675 226.2754 -9885.8312 -8573.8636 239.9380 -613.7498 -523.4969 28710.2999 4.1168 4.1514
TCL: Running 100000 steps at 270 kelvin.
TCL: Setting parameter langevinTemp to 270
TCL: Running for 100000 steps
ETITLE: TS BOND ANGLE DIHED IMPRP ELECT VDW BOUNDARY MISC KINETIC TOTAL TEMP POTENTIAL TOTAL3 TEMPAVG PRESSURE GPRESSURE VOLUME PRESSAVG GPRESSAVG
ENERGY: 800000 1.7632 9.7922 2.5215 0.0000 -11547.5457 1647.6376 0.0000 0.0000 1307.5828 -8578.2484 226.1576 -9885.8312 -8576.1560 226.1576 -608.8389 -522.9725 28710.2999 -608.8389 -522.9725
ENERGY: 900000 0.8639 7.4808 3.3701 0.0000 -11031.1910 1535.0240 0.0000 0.0000 1547.0844 -7937.3679 267.5815 -9484.4522 -7933.1827 269.5330 21.1193 64.1944 28934.2585 2.9058 2.9219
TCL: Running 1000000 steps at 300 kelvin.
TCL: Setting parameter langevinTemp to 300
TCL: Running for 1000000 steps
ETITLE: TS BOND ANGLE DIHED IMPRP ELECT VDW BOUNDARY MISC KINETIC TOTAL TEMP POTENTIAL TOTAL3 TEMPAVG PRESSURE GPRESSURE VOLUME PRESSAVG GPRESSAVG
ENERGY: 900000 0.8639 7.4808 3.3701 0.0000 -11031.1910 1535.0240 0.0000 0.0000 1546.2954 -7938.1568 267.4450 -9484.4522 -7935.3891 267.4450 -24.7982 65.7202 28934.2585 -24.7982 65.7202
ENERGY: 1100000 1.3106 19.1062 2.6724 0.0000 -10579.8498 1480.0893 0.0000 0.0000 1734.2527 -7342.4186 299.9538 -9076.6713 -7341.1142 300.5769 452.7491 534.2067 29934.7941 3.0318 3.0581
ENERGY: 1300000 2.6892 8.7280 3.8231 0.0000 -10522.1494 1431.2503 0.0000 0.0000 1723.3407 -7352.3180 298.0665 -9075.6588 -7347.7038 300.1386 418.2357 478.1508 29371.1918 2.7596 2.8228
ENERGY: 1500000 2.5414 7.6826 2.2482 0.0000 -10397.8394 1355.4818 0.0000 0.0000 1739.3362 -7290.5492 300.8331 -9029.8854 -7287.9844 300.0727 -353.5220 -298.3083 29801.1741 3.3257 3.2904
ENERGY: 1700000 1.8397 16.5232 4.1834 0.0000 -10506.7531 1478.4466 0.0000 0.0000 1827.8686 -7177.8916 316.1455 -9005.7601 -7177.5153 300.1922 862.3909 930.8725 29788.1505 2.5528 2.6160
ENERGY: 1900000 4.7176 11.4623 2.7929 0.0000 -10441.3984 1336.4854 0.0000 0.0000 1786.5277 -7299.4125 308.9952 -9085.9402 -7297.9838 300.5949 -687.4925 -586.8565 29962.5064 2.7675 2.7796
TCL: Exiting due to exit command.
