Info: SIMULATION PARAMETERS:
Info: TIMESTEP               2
Info: NUMBER OF STEPS        0
Info: STEPS PER CYCLE        10
Info: PERIODIC CELL BASIS 1  34.986 0 0
Info: PERIODIC CELL BASIS 2  0 34.696 0
Info: PERIODIC CELL BASIS 3  0 0 35.856
Info: PERIODIC CELL CENTER   0 0 0
Info: WRAPPING WATERS AROUND PERIODIC BOUNDARIES ON OUTPUT.
Info: WRAPPING ALL CLUSTERS AROUND PERIODIC BOUNDARIES ON OUTPUT.
Info: FIRST LDB TIMESTEP     50
Info: LAST LDB TIMESTEP     -1
Info: HOM BACKGROUND SCALING 1
Info: PME BACKGROUND SCALING 1
Info: MIN ATOMS PER PATCH    40
Info: EMPTY PATCH LOAD       40 ATOMS
Info: INITIAL TEMPERATURE    300
Info: CENTER OF MASS MOVING INITIALLY? NO
Info: DIELECTRIC             1
Info: EXCLUDE                SCALED ONE-FOUR
Info: 1-4 ELECTROSTATICS SCALED BY 0.833333
Info: MODIFIED 1-4 VDW PARAMETERS WILL BE USED
Info: DCD FILENAME           mobley_7732703_equil.dcd
Info: DCD FREQUENCY          100000
Info: DCD FIRST STEP         100000
Info: DCD FILE WILL CONTAIN UNIT CELL DATA
Info: XST FILENAME           mobley_7732703_equil.xst
Info: XST FREQUENCY          100000
Info: NO VELOCITY DCD OUTPUT
Info: NO FORCE DCD OUTPUT
Info: OUTPUT FILENAME        mobley_7732703_equil
Info: BINARY OUTPUT FILES WILL BE USED
Info: RESTART FILENAME       mobley_7732703_equil.restart
Info: RESTART FREQUENCY      100000
Info: BINARY RESTART FILES WILL BE USED
Info: CUTOFF                 9
Info: PAIRLIST DISTANCE      11
Info: PAIRLIST SHRINK RATE   0.01
Info: PAIRLIST GROW RATE     0.01
Info: PAIRLIST TRIGGER       0.3
Info: PAIRLISTS PER CYCLE    2
Info: PAIRLISTS ENABLED
Info: MARGIN                 8
Info: HYDROGEN GROUP CUTOFF  2.5
Info: PATCH DIMENSION        21.5
Info: ENERGY OUTPUT STEPS    100000
Info: ENERGY EVALUATION STEPS    100000
Info: OUTPUT ENERGY PRECISION 4
Info: CROSSTERM ENERGY INCLUDED IN DIHEDRAL
Info: TIMING OUTPUT STEPS    1000000
Info: PRESSURE OUTPUT STEPS  100000
Info: LANGEVIN DYNAMICS ACTIVE
Info: LANGEVIN TEMPERATURE   30
Info: LANGEVIN USING BBK INTEGRATOR
Info: LANGEVIN DAMPING COEFFICIENT IS 1 INVERSE PS
Info: LANGEVIN DYNAMICS APPLIED TO HYDROGENS
Info: LANGEVIN PISTON PRESSURE CONTROL ACTIVE
Info:        TARGET PRESSURE IS 1.01325 BAR
Info:     OSCILLATION PERIOD IS 50 FS
Info:             DECAY TIME IS 25 FS
Info:     PISTON TEMPERATURE IS 300 K
Info:       PRESSURE CONTROL IS GROUP-BASED
Info:    INITIAL STRAIN RATE IS 0 0 0
Info:       CELL FLUCTUATION IS ISOTROPIC
Info: PARTICLE MESH EWALD (PME) ACTIVE
Info: PME TOLERANCE               1e-06
Info: PME EWALD COEFFICIENT       0.348832
Info: PME INTERPOLATION ORDER     4
Info: PME GRID DIMENSIONS         36 36 36
Info: PME MAXIMUM GRID SPACING    1
Info: FULL ELECTROSTATIC EVALUATION FREQUENCY      2
Info: USING VERLET I (r-RESPA) MTS SCHEME.
Info: C1 SPLITTING OF LONG RANGE ELECTROSTATICS
Info: PLACING ATOMS IN PATCHES BY HYDROGEN GROUPS
Info: RIGID BONDS TO HYDROGEN : ALL
Info:         ERROR TOLERANCE : 1e-08
Info:          MAX ITERATIONS : 100
Info: RIGID WATER USING SETTLE ALGORITHM
Info: RANDOM NUMBER SEED     1742864030
Info: USE HYDROGEN BONDS?    NO
Info: Using AMBER format force field!
Info: AMBER PARM FILE        mobley_7732703.prmtop
Info: COORDINATE PDB         mobley_7732703.pdb
Info: Exclusions will be read from PARM file!
Info: SCNB (VDW SCALING)     2
Info: USING ARITHMETIC MEAN TO COMBINE L-J SIGMA PARAMETERS
Info: BINARY COORDINATES     mobley_7732703_min.coor
Info: SUMMARY OF PARAMETERS:
Info: 4 BONDS
Info: 2 ANGLES
Info:   2 HARMONIC
Info:   0 COSINE-BASED
Info: 0 DIHEDRAL
Info: 0 IMPROPER
Info: 0 CROSSTERM
Info: 0 VDW
Info: 15 VDW_PAIRS
Info: 0 NBTHOLE_PAIRS
Info: STRUCTURE SUMMARY:
Info: 2945 ATOMS
Info: 2944 BONDS
Info: 6 ANGLES
Info: 0 DIHEDRALS
Info: 0 IMPROPERS
Info: 0 CROSSTERMS
Info: 2950 EXCLUSIONS
Info: 2940 RIGID BONDS
Info: 5895 DEGREES OF FREEDOM
Info: 985 HYDROGEN GROUPS
Info: 3 ATOMS IN LARGEST HYDROGEN GROUP
Info: 985 MIGRATION GROUPS
Info: 3 ATOMS IN LARGEST MIGRATION GROUP
Info: TOTAL MASS = 17804.6 amu
Info: TOTAL CHARGE = 9.99942e-05 e
Info: MASS DENSITY = 0.679291 g/cm^3
Info: ATOM DENSITY = 0.0676628 atoms/A^3
Info: ADDED 0 IMPLICIT EXCLUSIONS
Info: NONBONDED TABLE R-SQUARED SPACING: 0.0625
Info: NONBONDED TABLE SIZE: 705 POINTS
Info: REMOVING COM VELOCITY -0.00311711 0.0727476 -0.17205
TCL: Running for 100000 steps
ETITLE: TS BOND ANGLE DIHED IMPRP ELECT VDW BOUNDARY MISC KINETIC TOTAL TEMP POTENTIAL TOTAL3 TEMPAVG PRESSURE GPRESSURE VOLUME PRESSAVG GPRESSAVG
ENERGY: 0 0.0019 0.2415 0.0000 0.0000 -13691.7202 2418.9456 0.0000 0.0000 1757.2639 -9515.2673 300.0154 -11272.5312 -9514.9232 300.0154 507.8681 548.6650 43524.6753 507.8681 548.6650
ENERGY: 100000 0.1408 0.4538 0.0000 0.0000 -14369.6534 2584.4875 0.0000 0.0000 173.5667 -11611.0046 29.6328 -11784.5712 -11610.5548 30.9063 908.7534 969.8014 28273.5940 4.1308 4.0973
TCL: Running 100000 steps at 60 kelvin.
TCL: Setting parameter langevinTemp to 60
TCL: Running for 100000 steps
ETITLE: TS BOND ANGLE DIHED IMPRP ELECT VDW BOUNDARY MISC KINETIC TOTAL TEMP POTENTIAL TOTAL3 TEMPAVG PRESSURE GPRESSURE VOLUME PRESSAVG GPRESSAVG
ENERGY: 100000 0.1408 0.4538 0.0000 0.0000 -14369.6534 2584.4875 0.0000 0.0000 173.4753 -11611.0960 29.6172 -11784.5712 -11610.8354 29.6172 908.9299 969.7464 28273.5940 908.9299 969.7464
ENERGY: 200000 0.4576 0.7527 0.0000 0.0000 -14054.6176 2342.7263 0.0000 0.0000 360.6745 -11350.0066 61.5775 -11710.6810 -11349.2807 59.8243 -712.1919 -659.2619 28394.7818 4.9615 4.9426
TCL: Running 100000 steps at 90 kelvin.
TCL: Setting parameter langevinTemp to 90
TCL: Running for 100000 steps
ETITLE: TS BOND ANGLE DIHED IMPRP ELECT VDW BOUNDARY MISC KINETIC TOTAL TEMP POTENTIAL TOTAL3 TEMPAVG PRESSURE GPRESSURE VOLUME PRESSAVG GPRESSAVG
ENERGY: 200000 0.4576 0.7527 0.0000 0.0000 -14054.6176 2342.7263 0.0000 0.0000 360.5005 -11350.1805 61.5478 -11710.6810 -11349.3744 61.5478 -702.4211 -659.4967 28394.7818 -702.4211 -659.4967
ENERGY: 300000 0.4493 0.4454 0.0000 0.0000 -13902.8533 2310.7071 0.0000 0.0000 527.3298 -11063.9217 90.0303 -11591.2515 -11062.1827 89.9776 -582.2539 -550.9548 28492.2329 4.1309 4.1557
TCL: Running 100000 steps at 120 kelvin.
TCL: Setting parameter langevinTemp to 120
TCL: Running for 100000 steps
ETITLE: TS BOND ANGLE DIHED IMPRP ELECT VDW BOUNDARY MISC KINETIC TOTAL TEMP POTENTIAL TOTAL3 TEMPAVG PRESSURE GPRESSURE VOLUME PRESSAVG GPRESSAVG
ENERGY: 300000 0.4493 0.4454 0.0000 0.0000 -13902.8533 2310.7071 0.0000 0.0000 527.0705 -11064.1810 89.9861 -11591.2515 -11063.1595 89.9861 -593.0061 -549.9505 28492.2329 -593.0061 -549.9505
ENERGY: 400000 0.8153 0.6063 0.0000 0.0000 -13884.6978 2410.6200 0.0000 0.0000 702.4802 -10770.1760 119.9335 -11472.6562 -10767.7837 119.8130 749.2286 784.3830 28465.0802 3.6140 3.6369
TCL: Running 100000 steps at 150 kelvin.
TCL: Setting parameter langevinTemp to 150
TCL: Running for 100000 steps
ETITLE: TS BOND ANGLE DIHED IMPRP ELECT VDW BOUNDARY MISC KINETIC TOTAL TEMP POTENTIAL TOTAL3 TEMPAVG PRESSURE GPRESSURE VOLUME PRESSAVG GPRESSAVG
ENERGY: 400000 0.8153 0.6063 0.0000 0.0000 -13884.6978 2410.6200 0.0000 0.0000 702.1172 -10770.5390 119.8716 -11472.6562 -10769.4240 119.8716 747.2328 785.8111 28465.0802 747.2328 785.8111
ENERGY: 500000 0.2367 0.6115 0.0000 0.0000 -13491.8996 2204.5563 0.0000 0.0000 904.4044 -10382.0906 154.4078 -11286.4950 -10378.6776 150.0886 -202.6080 -164.3939 28598.1858 3.7914 3.8914
TCL: Running 100000 steps at 180 kelvin.
TCL: Setting parameter langevinTemp to 180
TCL: Running for 100000 steps
ETITLE: TS BOND ANGLE DIHED IMPRP ELECT VDW BOUNDARY MISC KINETIC TOTAL TEMP POTENTIAL TOTAL3 TEMPAVG PRESSURE GPRESSURE VOLUME PRESSAVG GPRESSAVG
ENERGY: 500000 0.2367 0.6115 0.0000 0.0000 -13491.8996 2204.5563 0.0000 0.0000 903.9465 -10382.5485 154.3296 -11286.4950 -10380.8363 154.3296 -201.1226 -164.4564 28598.1858 -201.1226 -164.4564
ENERGY: 600000 0.1085 1.1254 0.0000 0.0000 -13010.6808 2015.7627 0.0000 0.0000 1083.0887 -9910.5955 184.9143 -10993.6843 -9908.0628 179.8000 -907.6334 -825.7581 29113.6309 2.1817 2.1853
TCL: Running 100000 steps at 210 kelvin.
TCL: Setting parameter langevinTemp to 210
TCL: Running for 100000 steps
ETITLE: TS BOND ANGLE DIHED IMPRP ELECT VDW BOUNDARY MISC KINETIC TOTAL TEMP POTENTIAL TOTAL3 TEMPAVG PRESSURE GPRESSURE VOLUME PRESSAVG GPRESSAVG
ENERGY: 600000 0.1085 1.1254 0.0000 0.0000 -13010.6808 2015.7627 0.0000 0.0000 1082.5648 -9911.1194 184.8249 -10993.6843 -9908.7214 184.8249 -907.6589 -825.6931 29113.6309 -907.6589 -825.6931
ENERGY: 700000 1.3517 0.3761 0.0000 0.0000 -12300.9593 1811.8628 0.0000 0.0000 1253.6991 -9233.6697 214.0424 -10487.3688 -9231.2952 210.5243 -698.6604 -665.5863 28948.5119 3.1860 3.1908
TCL: Running 100000 steps at 240 kelvin.
TCL: Setting parameter langevinTemp to 240
TCL: Running for 100000 steps
ETITLE: TS BOND ANGLE DIHED IMPRP ELECT VDW BOUNDARY MISC KINETIC TOTAL TEMP POTENTIAL TOTAL3 TEMPAVG PRESSURE GPRESSURE VOLUME PRESSAVG GPRESSAVG
ENERGY: 700000 1.3517 0.3761 0.0000 0.0000 -12300.9593 1811.8628 0.0000 0.0000 1253.0891 -9234.2797 213.9383 -10487.3688 -9231.9406 213.9383 -748.3338 -667.8707 28948.5119 -748.3338 -667.8707
ENERGY: 800000 2.8352 1.0794 0.0000 0.0000 -11719.7497 1680.4062 0.0000 0.0000 1409.5598 -8625.8691 240.6523 -10035.4289 -8622.5566 240.0997 -118.9783 -66.8182 28964.3467 3.9034 3.7655
TCL: Running 100000 steps at 270 kelvin.
TCL: Setting parameter langevinTemp to 270
TCL: Running for 100000 steps
ETITLE: TS BOND ANGLE DIHED IMPRP ELECT VDW BOUNDARY MISC KINETIC TOTAL TEMP POTENTIAL TOTAL3 TEMPAVG PRESSURE GPRESSURE VOLUME PRESSAVG GPRESSAVG
ENERGY: 800000 2.8352 1.0794 0.0000 0.0000 -11719.7497 1680.4062 0.0000 0.0000 1408.8490 -8626.5799 240.5310 -10035.4289 -8624.2340 240.5310 -142.9849 -66.6225 28964.3467 -142.9849 -66.6225
ENERGY: 900000 1.7839 3.5923 0.0000 0.0000 -11136.3801 1518.0173 0.0000 0.0000 1605.5274 -8007.4592 274.1096 -9612.9866 -8003.3462 269.8932 -411.2606 -262.4630 29804.1794 2.7891 2.7768
TCL: Running 1000000 steps at 300 kelvin.
TCL: Setting parameter langevinTemp to 300
TCL: Running for 1000000 steps
ETITLE: TS BOND ANGLE DIHED IMPRP ELECT VDW BOUNDARY MISC KINETIC TOTAL TEMP POTENTIAL TOTAL3 TEMPAVG PRESSURE GPRESSURE VOLUME PRESSAVG GPRESSAVG
ENERGY: 900000 1.7839 3.5923 0.0000 0.0000 -11136.3801 1518.0173 0.0000 0.0000 1604.7385 -8008.2481 273.9750 -9612.9866 -8005.3569 273.9750 -335.4540 -262.1013 29804.1794 -335.4540 -262.1013
ENERGY: 1100000 0.7921 1.5640 0.0000 0.0000 -10664.4802 1438.6650 0.0000 0.0000 1763.6707 -7459.7884 301.1092 -9223.4591 -7458.2550 300.8343 252.5204 347.8331 30191.6974 3.5545 3.4772
ENERGY: 1300000 2.6000 1.3264 0.0000 0.0000 -10814.3687 1486.0044 0.0000 0.0000 1711.5115 -7612.9263 292.2042 -9324.4379 -7607.2647 300.0360 191.3209 259.9292 30345.8053 2.7243 2.9894
ENERGY: 1500000 0.9317 2.0964 0.0000 0.0000 -10674.9557 1395.0910 0.0000 0.0000 1744.8201 -7532.0165 297.8909 -9276.8366 -7528.8109 299.9995 -150.5657 -85.0891 29926.1672 2.8902 2.8299
ENERGY: 1700000 0.3047 1.7055 0.0000 0.0000 -10765.3683 1462.3162 0.0000 0.0000 1777.8679 -7523.1740 303.5331 -9301.0420 -7519.8816 300.6277 121.8336 201.1054 30197.7808 3.0991 3.1031
ENERGY: 1900000 0.9057 2.5973 0.0000 0.0000 -10620.1939 1378.0638 0.0000 0.0000 1790.3751 -7448.2520 305.6684 -9238.6271 -7442.5396 300.1009 -548.3711 -394.1720 30541.4264 4.5112 4.2981
TCL: Exiting due to exit command.
