Info: SIMULATION PARAMETERS:
Info: TIMESTEP               2
Info: NUMBER OF STEPS        0
Info: STEPS PER CYCLE        10
Info: PERIODIC CELL BASIS 1  34.986 0 0
Info: PERIODIC CELL BASIS 2  0 34.26 0
Info: PERIODIC CELL BASIS 3  0 0 36.199
Info: PERIODIC CELL CENTER   0 0 0
Info: WRAPPING WATERS AROUND PERIODIC BOUNDARIES ON OUTPUT.
Info: WRAPPING ALL CLUSTERS AROUND PERIODIC BOUNDARIES ON OUTPUT.
Info: FIRST LDB TIMESTEP     50
Info: LAST LDB TIMESTEP     -1
Info: HOM BACKGROUND SCALING 1
Info: PME BACKGROUND SCALING 1
Info: MIN ATOMS PER PATCH    40
Info: EMPTY PATCH LOAD       40 ATOMS
Info: INITIAL TEMPERATURE    300
Info: CENTER OF MASS MOVING INITIALLY? NO
Info: DIELECTRIC             1
Info: EXCLUDE                SCALED ONE-FOUR
Info: 1-4 ELECTROSTATICS SCALED BY 0.833333
Info: MODIFIED 1-4 VDW PARAMETERS WILL BE USED
Info: DCD FILENAME           mobley_3425174_equil.dcd
Info: DCD FREQUENCY          100000
Info: DCD FIRST STEP         100000
Info: DCD FILE WILL CONTAIN UNIT CELL DATA
Info: XST FILENAME           mobley_3425174_equil.xst
Info: XST FREQUENCY          100000
Info: NO VELOCITY DCD OUTPUT
Info: NO FORCE DCD OUTPUT
Info: OUTPUT FILENAME        mobley_3425174_equil
Info: BINARY OUTPUT FILES WILL BE USED
Info: RESTART FILENAME       mobley_3425174_equil.restart
Info: RESTART FREQUENCY      100000
Info: BINARY RESTART FILES WILL BE USED
Info: CUTOFF                 9
Info: PAIRLIST DISTANCE      11
Info: PAIRLIST SHRINK RATE   0.01
Info: PAIRLIST GROW RATE     0.01
Info: PAIRLIST TRIGGER       0.3
Info: PAIRLISTS PER CYCLE    2
Info: PAIRLISTS ENABLED
Info: MARGIN                 8
Info: HYDROGEN GROUP CUTOFF  2.5
Info: PATCH DIMENSION        21.5
Info: ENERGY OUTPUT STEPS    100000
Info: ENERGY EVALUATION STEPS    100000
Info: OUTPUT ENERGY PRECISION 4
Info: CROSSTERM ENERGY INCLUDED IN DIHEDRAL
Info: TIMING OUTPUT STEPS    1000000
Info: PRESSURE OUTPUT STEPS  100000
Info: LANGEVIN DYNAMICS ACTIVE
Info: LANGEVIN TEMPERATURE   30
Info: LANGEVIN USING BBK INTEGRATOR
Info: LANGEVIN DAMPING COEFFICIENT IS 1 INVERSE PS
Info: LANGEVIN DYNAMICS APPLIED TO HYDROGENS
Info: LANGEVIN PISTON PRESSURE CONTROL ACTIVE
Info:        TARGET PRESSURE IS 1.01325 BAR
Info:     OSCILLATION PERIOD IS 50 FS
Info:             DECAY TIME IS 25 FS
Info:     PISTON TEMPERATURE IS 300 K
Info:       PRESSURE CONTROL IS GROUP-BASED
Info:    INITIAL STRAIN RATE IS 0 0 0
Info:       CELL FLUCTUATION IS ISOTROPIC
Info: PARTICLE MESH EWALD (PME) ACTIVE
Info: PME TOLERANCE               1e-06
Info: PME EWALD COEFFICIENT       0.348832
Info: PME INTERPOLATION ORDER     4
Info: PME GRID DIMENSIONS         36 36 40
Info: PME MAXIMUM GRID SPACING    1
Info: FULL ELECTROSTATIC EVALUATION FREQUENCY      2
Info: USING VERLET I (r-RESPA) MTS SCHEME.
Info: C1 SPLITTING OF LONG RANGE ELECTROSTATICS
Info: PLACING ATOMS IN PATCHES BY HYDROGEN GROUPS
Info: RIGID BONDS TO HYDROGEN : ALL
Info:         ERROR TOLERANCE : 1e-08
Info:          MAX ITERATIONS : 100
Info: RIGID WATER USING SETTLE ALGORITHM
Info: RANDOM NUMBER SEED     1743144345
Info: USE HYDROGEN BONDS?    NO
Info: Using AMBER format force field!
Info: AMBER PARM FILE        mobley_3425174.prmtop
Info: COORDINATE PDB         mobley_3425174.pdb
Info: Exclusions will be read from PARM file!
Info: SCNB (VDW SCALING)     2
Info: USING ARITHMETIC MEAN TO COMBINE L-J SIGMA PARAMETERS
Info: BINARY COORDINATES     mobley_3425174_min.coor
Info: SUMMARY OF PARAMETERS:
Info: 5 BONDS
Info: 4 ANGLES
Info:   4 HARMONIC
Info:   0 COSINE-BASED
Info: 0 DIHEDRAL
Info: 0 IMPROPER
Info: 0 CROSSTERM
Info: 0 VDW
Info: 21 VDW_PAIRS
Info: 0 NBTHOLE_PAIRS
Info: STRUCTURE SUMMARY:
Info: 2903 ATOMS
Info: 2902 BONDS
Info: 6 ANGLES
Info: 0 DIHEDRALS
Info: 0 IMPROPERS
Info: 0 CROSSTERMS
Info: 2908 EXCLUSIONS
Info: 2900 RIGID BONDS
Info: 5809 DEGREES OF FREEDOM
Info: 969 HYDROGEN GROUPS
Info: 3 ATOMS IN LARGEST HYDROGEN GROUP
Info: 969 MIGRATION GROUPS
Info: 3 ATOMS IN LARGEST MIGRATION GROUP
Info: TOTAL MASS = 17471.9 amu
Info: TOTAL CHARGE = -9.99868e-05 e
Info: MASS DENSITY = 0.668686 g/cm^3
Info: ATOM DENSITY = 0.0669066 atoms/A^3
Info: ADDED 0 IMPLICIT EXCLUSIONS
Info: NONBONDED TABLE R-SQUARED SPACING: 0.0625
Info: NONBONDED TABLE SIZE: 705 POINTS
Info: REMOVING COM VELOCITY -0.226701 -0.0817313 0.124999
TCL: Running for 100000 steps
ETITLE: TS BOND ANGLE DIHED IMPRP ELECT VDW BOUNDARY MISC KINETIC TOTAL TEMP POTENTIAL TOTAL3 TEMPAVG PRESSURE GPRESSURE VOLUME PRESSAVG GPRESSAVG
ENERGY: 0 0.0019 0.0844 0.0000 0.0000 -13459.5450 2380.9855 0.0000 0.0000 1689.9221 -9388.5510 292.7896 -11078.4732 -9388.2295 292.7896 500.7054 536.3195 43388.8584 500.7054 536.3195
ENERGY: 100000 0.0305 0.2405 0.0000 0.0000 -14118.0564 2490.8245 0.0000 0.0000 175.2378 -11451.7231 30.3611 -11626.9609 -11451.2319 30.9129 307.7472 346.5758 28241.0985 4.3844 4.3197
TCL: Running 100000 steps at 60 kelvin.
TCL: Setting parameter langevinTemp to 60
TCL: Running for 100000 steps
ETITLE: TS BOND ANGLE DIHED IMPRP ELECT VDW BOUNDARY MISC KINETIC TOTAL TEMP POTENTIAL TOTAL3 TEMPAVG PRESSURE GPRESSURE VOLUME PRESSAVG GPRESSAVG
ENERGY: 100000 0.0305 0.2405 0.0000 0.0000 -14118.0564 2490.8245 0.0000 0.0000 175.1495 -11451.8114 30.3458 -11626.9609 -11451.3444 30.3458 283.4193 346.5014 28241.0985 283.4193 346.5014
ENERGY: 200000 0.0742 0.4206 0.0000 0.0000 -14018.0204 2453.7698 0.0000 0.0000 353.0978 -11210.6580 61.1764 -11563.7558 -11209.5994 59.9729 216.6455 271.2991 28245.8377 3.9680 3.9428
TCL: Running 100000 steps at 90 kelvin.
TCL: Setting parameter langevinTemp to 90
TCL: Running for 100000 steps
ETITLE: TS BOND ANGLE DIHED IMPRP ELECT VDW BOUNDARY MISC KINETIC TOTAL TEMP POTENTIAL TOTAL3 TEMPAVG PRESSURE GPRESSURE VOLUME PRESSAVG GPRESSAVG
ENERGY: 200000 0.0742 0.4206 0.0000 0.0000 -14018.0204 2453.7698 0.0000 0.0000 352.9190 -11210.8368 61.1454 -11563.7558 -11210.1483 61.1454 202.8382 271.6775 28245.8377 202.8382 271.6775
ENERGY: 300000 0.0964 0.2084 0.0000 0.0000 -13887.8749 2432.8250 0.0000 0.0000 501.1698 -10953.5753 86.8308 -11454.7451 -10952.3225 90.2056 594.8848 665.0185 27978.6675 4.2067 4.2505
TCL: Running 100000 steps at 120 kelvin.
TCL: Setting parameter langevinTemp to 120
TCL: Running for 100000 steps
ETITLE: TS BOND ANGLE DIHED IMPRP ELECT VDW BOUNDARY MISC KINETIC TOTAL TEMP POTENTIAL TOTAL3 TEMPAVG PRESSURE GPRESSURE VOLUME PRESSAVG GPRESSAVG
ENERGY: 300000 0.0964 0.2084 0.0000 0.0000 -13887.8749 2432.8250 0.0000 0.0000 500.9122 -10953.8329 86.7862 -11454.7451 -10952.7067 86.7862 605.2371 664.3167 27978.6675 605.2371 664.3167
ENERGY: 400000 0.0899 0.2671 0.0000 0.0000 -13670.5125 2368.2336 0.0000 0.0000 685.3368 -10616.5851 118.7389 -11301.9219 -10616.6213 119.8081 395.7719 434.2826 28457.9249 4.1650 4.2046
TCL: Running 100000 steps at 150 kelvin.
TCL: Setting parameter langevinTemp to 150
TCL: Running for 100000 steps
ETITLE: TS BOND ANGLE DIHED IMPRP ELECT VDW BOUNDARY MISC KINETIC TOTAL TEMP POTENTIAL TOTAL3 TEMPAVG PRESSURE GPRESSURE VOLUME PRESSAVG GPRESSAVG
ENERGY: 400000 0.0899 0.2671 0.0000 0.0000 -13670.5125 2368.2336 0.0000 0.0000 684.9918 -10616.9301 118.6791 -11301.9219 -10615.4850 118.6791 396.6134 432.5123 28457.9249 396.6134 432.5123
ENERGY: 500000 0.4242 0.1056 0.0000 0.0000 -13370.4059 2215.3638 0.0000 0.0000 850.7992 -10303.7131 147.4063 -11154.5122 -10302.7418 149.8843 12.6813 86.4597 27987.6161 5.8447 5.8367
TCL: Running 100000 steps at 180 kelvin.
TCL: Setting parameter langevinTemp to 180
TCL: Running for 100000 steps
ETITLE: TS BOND ANGLE DIHED IMPRP ELECT VDW BOUNDARY MISC KINETIC TOTAL TEMP POTENTIAL TOTAL3 TEMPAVG PRESSURE GPRESSURE VOLUME PRESSAVG GPRESSAVG
ENERGY: 500000 0.4242 0.1056 0.0000 0.0000 -13370.4059 2215.3638 0.0000 0.0000 850.3547 -10304.1575 147.3293 -11154.5122 -10302.2969 147.3293 10.8755 84.9000 27987.6161 10.8755 84.9000
ENERGY: 600000 0.2285 0.2842 0.0000 0.0000 -12900.5175 2046.3573 0.0000 0.0000 1078.7120 -9774.9355 186.8936 -10853.6475 -9772.2677 179.7489 -361.9915 -324.4033 28382.9064 5.4624 5.4438
TCL: Running 100000 steps at 210 kelvin.
TCL: Setting parameter langevinTemp to 210
TCL: Running for 100000 steps
ETITLE: TS BOND ANGLE DIHED IMPRP ELECT VDW BOUNDARY MISC KINETIC TOTAL TEMP POTENTIAL TOTAL3 TEMPAVG PRESSURE GPRESSURE VOLUME PRESSAVG GPRESSAVG
ENERGY: 600000 0.2285 0.2842 0.0000 0.0000 -12900.5175 2046.3573 0.0000 0.0000 1078.1962 -9775.4513 186.8043 -10853.6475 -9773.3316 186.8043 -390.5771 -325.3886 28382.9064 -390.5771 -325.3886
ENERGY: 700000 0.1395 0.7959 0.0000 0.0000 -12439.0876 2004.2258 0.0000 0.0000 1220.6456 -9213.2809 211.4845 -10433.9265 -9210.1035 209.9308 980.3041 1013.2541 28088.9333 3.2872 3.2831
TCL: Running 100000 steps at 240 kelvin.
TCL: Setting parameter langevinTemp to 240
TCL: Running for 100000 steps
ETITLE: TS BOND ANGLE DIHED IMPRP ELECT VDW BOUNDARY MISC KINETIC TOTAL TEMP POTENTIAL TOTAL3 TEMPAVG PRESSURE GPRESSURE VOLUME PRESSAVG GPRESSAVG
ENERGY: 700000 0.1395 0.7959 0.0000 0.0000 -12439.0876 2004.2258 0.0000 0.0000 1220.0278 -9213.8987 211.3775 -10433.9265 -9211.7908 211.3775 944.4039 1013.5826 28088.9333 944.4039 1013.5826
ENERGY: 800000 0.4473 0.7867 0.0000 0.0000 -11693.3953 1748.3571 0.0000 0.0000 1374.7847 -8569.0195 238.1901 -9943.8042 -8567.2410 239.7357 433.1606 505.9508 28601.9769 3.2014 3.1948
TCL: Running 100000 steps at 270 kelvin.
TCL: Setting parameter langevinTemp to 270
TCL: Running for 100000 steps
ETITLE: TS BOND ANGLE DIHED IMPRP ELECT VDW BOUNDARY MISC KINETIC TOTAL TEMP POTENTIAL TOTAL3 TEMPAVG PRESSURE GPRESSURE VOLUME PRESSAVG GPRESSAVG
ENERGY: 800000 0.4473 0.7867 0.0000 0.0000 -11693.3953 1748.3571 0.0000 0.0000 1374.0855 -8569.7187 238.0690 -9943.8042 -8567.3802 238.0690 439.9019 506.1983 28601.9769 439.9019 506.1983
ENERGY: 900000 0.1887 1.9474 0.0000 0.0000 -11093.3128 1638.3774 0.0000 0.0000 1525.7838 -7927.0156 264.3516 -9452.7994 -7924.3006 270.0059 870.5902 926.7585 29108.2692 2.8610 2.7807
TCL: Running 1000000 steps at 300 kelvin.
TCL: Setting parameter langevinTemp to 300
TCL: Running for 1000000 steps
ETITLE: TS BOND ANGLE DIHED IMPRP ELECT VDW BOUNDARY MISC KINETIC TOTAL TEMP POTENTIAL TOTAL3 TEMPAVG PRESSURE GPRESSURE VOLUME PRESSAVG GPRESSAVG
ENERGY: 900000 0.1887 1.9474 0.0000 0.0000 -11093.3128 1638.3774 0.0000 0.0000 1524.9642 -7927.8352 264.2096 -9452.7994 -7925.5671 264.2096 848.2833 927.2753 29108.2692 848.2833 927.2753
ENERGY: 1100000 0.0010 0.5231 0.0000 0.0000 -10579.3349 1488.9134 0.0000 0.0000 1679.9221 -7409.9752 291.0571 -9089.8973 -7407.8301 300.0532 826.6024 910.0413 29498.3908 1.6111 1.6970
ENERGY: 1300000 0.7835 3.3963 0.0000 0.0000 -10635.0479 1504.1247 0.0000 0.0000 1767.7507 -7358.9927 306.2739 -9126.7434 -7356.3242 299.7601 818.5918 872.5840 29557.4963 3.8070 3.9100
ENERGY: 1500000 0.1444 2.8847 0.0000 0.0000 -10609.1946 1427.9448 0.0000 0.0000 1739.5325 -7438.6882 301.3849 -9178.2207 -7434.1379 299.8071 -319.8416 -199.2870 30176.2000 3.4547 3.5347
ENERGY: 1700000 0.2940 0.8467 0.0000 0.0000 -10768.1525 1539.7528 0.0000 0.0000 1753.5525 -7473.7065 303.8140 -9227.2590 -7470.0941 299.3355 856.9407 893.8784 29520.4316 3.8995 3.7209
ENERGY: 1900000 0.2082 0.3986 0.0000 0.0000 -10535.2528 1378.3095 0.0000 0.0000 1737.1365 -7419.2001 300.9698 -9156.3366 -7414.2808 300.4389 -484.5426 -365.9847 30183.2263 3.0266 2.9667
TCL: Exiting due to exit command.
