Info: SIMULATION PARAMETERS:
Info: TIMESTEP               2
Info: NUMBER OF STEPS        0
Info: STEPS PER CYCLE        10
Info: PERIODIC CELL BASIS 1  34.207 0 0
Info: PERIODIC CELL BASIS 2  0 33.542 0
Info: PERIODIC CELL BASIS 3  0 0 37.451
Info: PERIODIC CELL CENTER   0 0 0
Info: WRAPPING WATERS AROUND PERIODIC BOUNDARIES ON OUTPUT.
Info: WRAPPING ALL CLUSTERS AROUND PERIODIC BOUNDARIES ON OUTPUT.
Info: FIRST LDB TIMESTEP     50
Info: LAST LDB TIMESTEP     -1
Info: HOM BACKGROUND SCALING 1
Info: PME BACKGROUND SCALING 1
Info: MIN ATOMS PER PATCH    40
Info: EMPTY PATCH LOAD       40 ATOMS
Info: INITIAL TEMPERATURE    300
Info: CENTER OF MASS MOVING INITIALLY? NO
Info: DIELECTRIC             1
Info: EXCLUDE                SCALED ONE-FOUR
Info: 1-4 ELECTROSTATICS SCALED BY 0.833333
Info: MODIFIED 1-4 VDW PARAMETERS WILL BE USED
Info: DCD FILENAME           mobley_1144156_equil.dcd
Info: DCD FREQUENCY          100000
Info: DCD FIRST STEP         100000
Info: DCD FILE WILL CONTAIN UNIT CELL DATA
Info: XST FILENAME           mobley_1144156_equil.xst
Info: XST FREQUENCY          100000
Info: NO VELOCITY DCD OUTPUT
Info: NO FORCE DCD OUTPUT
Info: OUTPUT FILENAME        mobley_1144156_equil
Info: BINARY OUTPUT FILES WILL BE USED
Info: RESTART FILENAME       mobley_1144156_equil.restart
Info: RESTART FREQUENCY      100000
Info: BINARY RESTART FILES WILL BE USED
Info: CUTOFF                 9
Info: PAIRLIST DISTANCE      11
Info: PAIRLIST SHRINK RATE   0.01
Info: PAIRLIST GROW RATE     0.01
Info: PAIRLIST TRIGGER       0.3
Info: PAIRLISTS PER CYCLE    2
Info: PAIRLISTS ENABLED
Info: MARGIN                 8
Info: HYDROGEN GROUP CUTOFF  2.5
Info: PATCH DIMENSION        21.5
Info: ENERGY OUTPUT STEPS    100000
Info: ENERGY EVALUATION STEPS    100000
Info: OUTPUT ENERGY PRECISION 4
Info: CROSSTERM ENERGY INCLUDED IN DIHEDRAL
Info: TIMING OUTPUT STEPS    1000000
Info: PRESSURE OUTPUT STEPS  100000
Info: LANGEVIN DYNAMICS ACTIVE
Info: LANGEVIN TEMPERATURE   30
Info: LANGEVIN USING BBK INTEGRATOR
Info: LANGEVIN DAMPING COEFFICIENT IS 1 INVERSE PS
Info: LANGEVIN DYNAMICS APPLIED TO HYDROGENS
Info: LANGEVIN PISTON PRESSURE CONTROL ACTIVE
Info:        TARGET PRESSURE IS 1.01325 BAR
Info:     OSCILLATION PERIOD IS 50 FS
Info:             DECAY TIME IS 25 FS
Info:     PISTON TEMPERATURE IS 300 K
Info:       PRESSURE CONTROL IS GROUP-BASED
Info:    INITIAL STRAIN RATE IS 0 0 0
Info:       CELL FLUCTUATION IS ISOTROPIC
Info: PARTICLE MESH EWALD (PME) ACTIVE
Info: PME TOLERANCE               1e-06
Info: PME EWALD COEFFICIENT       0.348832
Info: PME INTERPOLATION ORDER     4
Info: PME GRID DIMENSIONS         36 36 40
Info: PME MAXIMUM GRID SPACING    1
Info: FULL ELECTROSTATIC EVALUATION FREQUENCY      2
Info: USING VERLET I (r-RESPA) MTS SCHEME.
Info: C1 SPLITTING OF LONG RANGE ELECTROSTATICS
Info: PLACING ATOMS IN PATCHES BY HYDROGEN GROUPS
Info: RIGID BONDS TO HYDROGEN : ALL
Info:         ERROR TOLERANCE : 1e-08
Info:          MAX ITERATIONS : 100
Info: RIGID WATER USING SETTLE ALGORITHM
Info: RANDOM NUMBER SEED     1743239870
Info: USE HYDROGEN BONDS?    NO
Info: Using AMBER format force field!
Info: AMBER PARM FILE        mobley_1144156.prmtop
Info: COORDINATE PDB         mobley_1144156.pdb
Info: Exclusions will be read from PARM file!
Info: SCNB (VDW SCALING)     2
Info: USING ARITHMETIC MEAN TO COMBINE L-J SIGMA PARAMETERS
Info: BINARY COORDINATES     mobley_1144156_min.coor
Info: SUMMARY OF PARAMETERS:
Info: 6 BONDS
Info: 7 ANGLES
Info:   7 HARMONIC
Info:   0 COSINE-BASED
Info: 6 DIHEDRAL
Info: 0 IMPROPER
Info: 0 CROSSTERM
Info: 0 VDW
Info: 21 VDW_PAIRS
Info: 0 NBTHOLE_PAIRS
Info: STRUCTURE SUMMARY:
Info: 2964 ATOMS
Info: 2963 BONDS
Info: 25 ANGLES
Info: 32 DIHEDRALS
Info: 0 IMPROPERS
Info: 0 CROSSTERMS
Info: 3012 EXCLUSIONS
Info: 2959 RIGID BONDS
Info: 5933 DEGREES OF FREEDOM
Info: 988 HYDROGEN GROUPS
Info: 4 ATOMS IN LARGEST HYDROGEN GROUP
Info: 988 MIGRATION GROUPS
Info: 4 ATOMS IN LARGEST MIGRATION GROUP
Info: TOTAL MASS = 17783.8 amu
Info: TOTAL CHARGE = 0.000100024 e
Info: MASS DENSITY = 0.687255 g/cm^3
Info: ATOM DENSITY = 0.068978 atoms/A^3
Info: ADDED 0 IMPLICIT EXCLUSIONS
Info: NONBONDED TABLE R-SQUARED SPACING: 0.0625
Info: NONBONDED TABLE SIZE: 705 POINTS
Info: REMOVING COM VELOCITY 0.00848502 0.169047 -0.198639
TCL: Running for 100000 steps
ETITLE: TS BOND ANGLE DIHED IMPRP ELECT VDW BOUNDARY MISC KINETIC TOTAL TEMP POTENTIAL TOTAL3 TEMPAVG PRESSURE GPRESSURE VOLUME PRESSAVG GPRESSAVG
ENERGY: 0 0.0317 0.1489 1.5059 0.0000 -13708.7432 2419.1510 0.0000 0.0000 1704.1339 -9583.7718 289.0811 -11287.9057 -9583.4348 289.0811 489.3950 521.7636 42970.1986 489.3950 521.7636
ENERGY: 100000 0.1063 0.8174 1.6240 0.0000 -14365.5323 2533.1991 0.0000 0.0000 175.2881 -11654.4973 29.7350 -11829.7855 -11654.0674 30.8593 501.8853 566.9372 28235.5457 3.8090 3.7828
TCL: Running 100000 steps at 60 kelvin.
TCL: Setting parameter langevinTemp to 60
TCL: Running for 100000 steps
ETITLE: TS BOND ANGLE DIHED IMPRP ELECT VDW BOUNDARY MISC KINETIC TOTAL TEMP POTENTIAL TOTAL3 TEMPAVG PRESSURE GPRESSURE VOLUME PRESSAVG GPRESSAVG
ENERGY: 100000 0.1063 0.8174 1.6240 0.0000 -14365.5323 2533.1991 0.0000 0.0000 175.2000 -11654.5855 29.7201 -11829.7855 -11654.2496 29.7201 506.1494 566.7407 28235.5457 506.1494 566.7407
ENERGY: 200000 0.7165 1.1126 1.5709 0.0000 -14281.3169 2522.7885 0.0000 0.0000 347.7825 -11407.3459 58.9962 -11755.1284 -11406.7559 59.9527 770.0460 823.3236 28235.4717 4.5028 4.4798
TCL: Running 100000 steps at 90 kelvin.
TCL: Setting parameter langevinTemp to 90
TCL: Running for 100000 steps
ETITLE: TS BOND ANGLE DIHED IMPRP ELECT VDW BOUNDARY MISC KINETIC TOTAL TEMP POTENTIAL TOTAL3 TEMPAVG PRESSURE GPRESSURE VOLUME PRESSAVG GPRESSAVG
ENERGY: 200000 0.7165 1.1126 1.5709 0.0000 -14281.3169 2522.7885 0.0000 0.0000 347.6055 -11407.5229 58.9661 -11755.1284 -11406.9647 58.9661 770.7656 823.3069 28235.4717 770.7656 823.3069
ENERGY: 300000 0.1601 1.3074 1.5622 0.0000 -14025.8625 2373.6681 0.0000 0.0000 520.5241 -11128.6407 88.2992 -11649.1648 -11126.9713 90.0892 -203.7502 -143.8503 28371.0118 4.4067 4.3908
TCL: Running 100000 steps at 120 kelvin.
TCL: Setting parameter langevinTemp to 120
TCL: Running for 100000 steps
ETITLE: TS BOND ANGLE DIHED IMPRP ELECT VDW BOUNDARY MISC KINETIC TOTAL TEMP POTENTIAL TOTAL3 TEMPAVG PRESSURE GPRESSURE VOLUME PRESSAVG GPRESSAVG
ENERGY: 300000 0.1601 1.3074 1.5622 0.0000 -14025.8625 2373.6681 0.0000 0.0000 520.2572 -11128.9076 88.2539 -11649.1648 -11128.0383 88.2539 -200.0435 -143.5953 28371.0118 -200.0435 -143.5953
ENERGY: 400000 0.6732 2.8259 1.9932 0.0000 -13957.6183 2440.7357 0.0000 0.0000 699.4854 -10811.9050 118.6574 -11511.3904 -10811.0178 120.0986 666.4357 758.4868 28624.7252 4.4651 4.5614
TCL: Running 100000 steps at 150 kelvin.
TCL: Setting parameter langevinTemp to 150
TCL: Running for 100000 steps
ETITLE: TS BOND ANGLE DIHED IMPRP ELECT VDW BOUNDARY MISC KINETIC TOTAL TEMP POTENTIAL TOTAL3 TEMPAVG PRESSURE GPRESSURE VOLUME PRESSAVG GPRESSAVG
ENERGY: 400000 0.6732 2.8259 1.9932 0.0000 -13957.6183 2440.7357 0.0000 0.0000 699.1448 -10812.2456 118.5996 -11511.3904 -10811.0730 118.5996 696.8288 757.5617 28624.7252 696.8288 757.5617
ENERGY: 500000 0.3970 3.2717 2.6656 0.0000 -13500.2500 2211.3426 0.0000 0.0000 876.1461 -10406.4271 148.6252 -11282.5732 -10405.0438 150.2227 -319.4760 -258.8797 29035.7442 3.7405 3.8097
TCL: Running 100000 steps at 180 kelvin.
TCL: Setting parameter langevinTemp to 180
TCL: Running for 100000 steps
ETITLE: TS BOND ANGLE DIHED IMPRP ELECT VDW BOUNDARY MISC KINETIC TOTAL TEMP POTENTIAL TOTAL3 TEMPAVG PRESSURE GPRESSURE VOLUME PRESSAVG GPRESSAVG
ENERGY: 500000 0.3970 3.2717 2.6656 0.0000 -13500.2500 2211.3426 0.0000 0.0000 875.7152 -10406.8580 148.5522 -11282.5732 -10405.5563 148.5522 -323.6218 -259.6738 29035.7442 -323.6218 -259.6738
ENERGY: 600000 0.1679 2.9492 2.2745 0.0000 -13266.7690 2196.8027 0.0000 0.0000 1028.7057 -10035.8690 174.5047 -11064.5747 -10034.3550 179.7823 483.2378 515.9119 28908.1832 3.9175 3.9501
TCL: Running 100000 steps at 210 kelvin.
TCL: Setting parameter langevinTemp to 210
TCL: Running for 100000 steps
ETITLE: TS BOND ANGLE DIHED IMPRP ELECT VDW BOUNDARY MISC KINETIC TOTAL TEMP POTENTIAL TOTAL3 TEMPAVG PRESSURE GPRESSURE VOLUME PRESSAVG GPRESSAVG
ENERGY: 600000 0.1679 2.9492 2.2745 0.0000 -13266.7690 2196.8027 0.0000 0.0000 1028.1850 -10036.3896 174.4164 -11064.5747 -10034.2471 174.4164 452.1398 513.7759 28908.1832 452.1398 513.7759
ENERGY: 700000 0.6392 3.3367 3.2443 0.0000 -12514.8686 1984.1352 0.0000 0.0000 1224.7507 -9298.7624 207.7609 -10523.5131 -9296.9094 209.6001 899.3381 957.6825 28734.3626 5.1389 5.0278
TCL: Running 100000 steps at 240 kelvin.
TCL: Setting parameter langevinTemp to 240
TCL: Running for 100000 steps
ETITLE: TS BOND ANGLE DIHED IMPRP ELECT VDW BOUNDARY MISC KINETIC TOTAL TEMP POTENTIAL TOTAL3 TEMPAVG PRESSURE GPRESSURE VOLUME PRESSAVG GPRESSAVG
ENERGY: 700000 0.6392 3.3367 3.2443 0.0000 -12514.8686 1984.1352 0.0000 0.0000 1224.1178 -9299.3953 207.6535 -10523.5131 -9297.7517 207.6535 891.1193 958.0047 28734.3626 891.1193 958.0047
ENERGY: 800000 0.8057 4.6101 2.9827 0.0000 -11680.5970 1647.3396 0.0000 0.0000 1422.2790 -8602.5799 241.2686 -10024.8589 -8598.3883 240.1418 -188.0870 -150.7767 29049.4570 2.4877 2.3671
TCL: Running 100000 steps at 270 kelvin.
TCL: Setting parameter langevinTemp to 270
TCL: Running for 100000 steps
ETITLE: TS BOND ANGLE DIHED IMPRP ELECT VDW BOUNDARY MISC KINETIC TOTAL TEMP POTENTIAL TOTAL3 TEMPAVG PRESSURE GPRESSURE VOLUME PRESSAVG GPRESSAVG
ENERGY: 800000 0.8057 4.6101 2.9827 0.0000 -11680.5970 1647.3396 0.0000 0.0000 1421.5640 -8603.2949 241.1473 -10024.8589 -8601.1466 241.1473 -223.1509 -149.1294 29049.4570 -223.1509 -149.1294
ENERGY: 900000 2.1818 3.8204 2.4813 0.0000 -11345.3191 1626.2476 0.0000 0.0000 1616.7400 -8093.8479 274.2561 -9710.5880 -8091.2524 269.8387 355.5891 386.5327 29811.9497 4.6684 4.7056
TCL: Running 1000000 steps at 300 kelvin.
TCL: Setting parameter langevinTemp to 300
TCL: Running for 1000000 steps
ETITLE: TS BOND ANGLE DIHED IMPRP ELECT VDW BOUNDARY MISC KINETIC TOTAL TEMP POTENTIAL TOTAL3 TEMPAVG PRESSURE GPRESSURE VOLUME PRESSAVG GPRESSAVG
ENERGY: 900000 2.1818 3.8204 2.4813 0.0000 -11345.3191 1626.2476 0.0000 0.0000 1615.9787 -8094.6093 274.1269 -9710.5880 -8092.3191 274.1269 313.0294 386.2267 29811.9497 313.0294 386.2267
ENERGY: 1100000 0.1423 8.8591 4.6781 0.0000 -10619.7327 1373.0689 0.0000 0.0000 1728.2426 -7504.7417 293.1708 -9232.9843 -7500.9900 300.0484 -456.2848 -368.6228 30439.1745 3.3305 3.4399
ENERGY: 1300000 3.4962 4.7900 2.9750 0.0000 -10707.2826 1361.1873 0.0000 0.0000 1803.9959 -7530.8383 306.0213 -9334.8342 -7524.4378 301.1300 -883.3839 -780.9627 30533.6915 3.0072 3.0530
ENERGY: 1500000 0.1785 4.9798 2.9230 0.0000 -10585.9564 1340.3232 0.0000 0.0000 1736.9923 -7500.5597 294.6551 -9237.5519 -7495.0144 300.0559 -783.4052 -719.5040 30878.2958 2.6782 2.6485
ENERGY: 1700000 2.4362 4.0325 3.4624 0.0000 -10695.5120 1401.9567 0.0000 0.0000 1759.6518 -7523.9723 298.4989 -9283.6241 -7521.4355 300.4003 -274.9955 -176.1840 30424.8639 3.5357 3.5951
ENERGY: 1900000 0.2013 3.1349 2.8190 0.0000 -10889.0501 1474.3293 0.0000 0.0000 1748.7367 -7659.8289 296.6473 -9408.5657 -7655.0449 299.7271 -168.6661 -68.8773 30606.0209 3.9372 3.9315
TCL: Exiting due to exit command.
