Info: SIMULATION PARAMETERS:
Info: TIMESTEP               2
Info: NUMBER OF STEPS        0
Info: STEPS PER CYCLE        10
Info: PERIODIC CELL BASIS 1  32.955 0 0
Info: PERIODIC CELL BASIS 2  0 34.26 0
Info: PERIODIC CELL BASIS 3  0 0 38.379
Info: PERIODIC CELL CENTER   0 0 0
Info: WRAPPING WATERS AROUND PERIODIC BOUNDARIES ON OUTPUT.
Info: WRAPPING ALL CLUSTERS AROUND PERIODIC BOUNDARIES ON OUTPUT.
Info: FIRST LDB TIMESTEP     50
Info: LAST LDB TIMESTEP     -1
Info: HOM BACKGROUND SCALING 1
Info: PME BACKGROUND SCALING 1
Info: MIN ATOMS PER PATCH    40
Info: EMPTY PATCH LOAD       40 ATOMS
Info: INITIAL TEMPERATURE    300
Info: CENTER OF MASS MOVING INITIALLY? NO
Info: DIELECTRIC             1
Info: EXCLUDE                SCALED ONE-FOUR
Info: 1-4 ELECTROSTATICS SCALED BY 0.833333
Info: MODIFIED 1-4 VDW PARAMETERS WILL BE USED
Info: DCD FILENAME           mobley_3318135_equil.dcd
Info: DCD FREQUENCY          100000
Info: DCD FIRST STEP         100000
Info: DCD FILE WILL CONTAIN UNIT CELL DATA
Info: XST FILENAME           mobley_3318135_equil.xst
Info: XST FREQUENCY          100000
Info: NO VELOCITY DCD OUTPUT
Info: NO FORCE DCD OUTPUT
Info: OUTPUT FILENAME        mobley_3318135_equil
Info: BINARY OUTPUT FILES WILL BE USED
Info: RESTART FILENAME       mobley_3318135_equil.restart
Info: RESTART FREQUENCY      100000
Info: BINARY RESTART FILES WILL BE USED
Info: CUTOFF                 9
Info: PAIRLIST DISTANCE      11
Info: PAIRLIST SHRINK RATE   0.01
Info: PAIRLIST GROW RATE     0.01
Info: PAIRLIST TRIGGER       0.3
Info: PAIRLISTS PER CYCLE    2
Info: PAIRLISTS ENABLED
Info: MARGIN                 8
Info: HYDROGEN GROUP CUTOFF  2.5
Info: PATCH DIMENSION        21.5
Info: ENERGY OUTPUT STEPS    100000
Info: ENERGY EVALUATION STEPS    100000
Info: OUTPUT ENERGY PRECISION 4
Info: CROSSTERM ENERGY INCLUDED IN DIHEDRAL
Info: TIMING OUTPUT STEPS    1000000
Info: PRESSURE OUTPUT STEPS  100000
Info: LANGEVIN DYNAMICS ACTIVE
Info: LANGEVIN TEMPERATURE   30
Info: LANGEVIN USING BBK INTEGRATOR
Info: LANGEVIN DAMPING COEFFICIENT IS 1 INVERSE PS
Info: LANGEVIN DYNAMICS APPLIED TO HYDROGENS
Info: LANGEVIN PISTON PRESSURE CONTROL ACTIVE
Info:        TARGET PRESSURE IS 1.01325 BAR
Info:     OSCILLATION PERIOD IS 50 FS
Info:             DECAY TIME IS 25 FS
Info:     PISTON TEMPERATURE IS 300 K
Info:       PRESSURE CONTROL IS GROUP-BASED
Info:    INITIAL STRAIN RATE IS 0 0 0
Info:       CELL FLUCTUATION IS ISOTROPIC
Info: PARTICLE MESH EWALD (PME) ACTIVE
Info: PME TOLERANCE               1e-06
Info: PME EWALD COEFFICIENT       0.348832
Info: PME INTERPOLATION ORDER     4
Info: PME GRID DIMENSIONS         36 36 40
Info: PME MAXIMUM GRID SPACING    1
Info: FULL ELECTROSTATIC EVALUATION FREQUENCY      2
Info: USING VERLET I (r-RESPA) MTS SCHEME.
Info: C1 SPLITTING OF LONG RANGE ELECTROSTATICS
Info: PLACING ATOMS IN PATCHES BY HYDROGEN GROUPS
Info: RIGID BONDS TO HYDROGEN : ALL
Info:         ERROR TOLERANCE : 1e-08
Info:          MAX ITERATIONS : 100
Info: RIGID WATER USING SETTLE ALGORITHM
Info: RANDOM NUMBER SEED     1743261789
Info: USE HYDROGEN BONDS?    NO
Info: Using AMBER format force field!
Info: AMBER PARM FILE        mobley_3318135.prmtop
Info: COORDINATE PDB         mobley_3318135.pdb
Info: Exclusions will be read from PARM file!
Info: SCNB (VDW SCALING)     2
Info: USING ARITHMETIC MEAN TO COMBINE L-J SIGMA PARAMETERS
Info: BINARY COORDINATES     mobley_3318135_min.coor
Info: SUMMARY OF PARAMETERS:
Info: 6 BONDS
Info: 7 ANGLES
Info:   7 HARMONIC
Info:   0 COSINE-BASED
Info: 11 DIHEDRAL
Info: 0 IMPROPER
Info: 0 CROSSTERM
Info: 0 VDW
Info: 21 VDW_PAIRS
Info: 0 NBTHOLE_PAIRS
Info: STRUCTURE SUMMARY:
Info: 2902 ATOMS
Info: 2901 BONDS
Info: 51 ANGLES
Info: 79 DIHEDRALS
Info: 0 IMPROPERS
Info: 0 CROSSTERMS
Info: 3018 EXCLUSIONS
Info: 2892 RIGID BONDS
Info: 5814 DEGREES OF FREEDOM
Info: 968 HYDROGEN GROUPS
Info: 4 ATOMS IN LARGEST HYDROGEN GROUP
Info: 968 MIGRATION GROUPS
Info: 4 ATOMS IN LARGEST MIGRATION GROUP
Info: TOTAL MASS = 17401.6 amu
Info: TOTAL CHARGE = -0.000400022 e
Info: MASS DENSITY = 0.666876 g/cm^3
Info: ATOM DENSITY = 0.0669723 atoms/A^3
Info: ADDED 0 IMPLICIT EXCLUSIONS
Info: NONBONDED TABLE R-SQUARED SPACING: 0.0625
Info: NONBONDED TABLE SIZE: 705 POINTS
Info: REMOVING COM VELOCITY -0.28695 -0.0956394 -0.107751
TCL: Running for 100000 steps
ETITLE: TS BOND ANGLE DIHED IMPRP ELECT VDW BOUNDARY MISC KINETIC TOTAL TEMP POTENTIAL TOTAL3 TEMPAVG PRESSURE GPRESSURE VOLUME PRESSAVG GPRESSAVG
ENERGY: 0 0.1642 0.5664 2.6298 0.0000 -13357.6334 2334.4295 0.0000 0.0000 1715.3521 -9304.4913 296.9400 -11019.8435 -9304.1288 296.9400 353.4257 393.7920 43331.3609 353.4257 393.7920
ENERGY: 100000 0.7175 2.1392 2.8585 0.0000 -13781.5480 2335.6521 0.0000 0.0000 172.9086 -11267.2721 29.9317 -11440.1807 -11266.6096 30.9403 -564.3435 -519.1791 28869.7678 4.8117 4.8675
TCL: Running 100000 steps at 60 kelvin.
TCL: Setting parameter langevinTemp to 60
TCL: Running for 100000 steps
ETITLE: TS BOND ANGLE DIHED IMPRP ELECT VDW BOUNDARY MISC KINETIC TOTAL TEMP POTENTIAL TOTAL3 TEMPAVG PRESSURE GPRESSURE VOLUME PRESSAVG GPRESSAVG
ENERGY: 100000 0.7175 2.1392 2.8585 0.0000 -13781.5480 2335.6521 0.0000 0.0000 172.8200 -11267.3607 29.9164 -11440.1807 -11266.9973 29.9164 -580.1955 -518.9505 28869.7678 -580.1955 -518.9505
ENERGY: 200000 1.1857 2.7469 3.1631 0.0000 -13836.9055 2380.4079 0.0000 0.0000 364.7290 -11084.6729 63.1372 -11449.4019 -11083.6454 60.0936 7.7803 57.0093 28210.8366 3.3460 3.4382
TCL: Running 100000 steps at 90 kelvin.
TCL: Setting parameter langevinTemp to 90
TCL: Running for 100000 steps
ETITLE: TS BOND ANGLE DIHED IMPRP ELECT VDW BOUNDARY MISC KINETIC TOTAL TEMP POTENTIAL TOTAL3 TEMPAVG PRESSURE GPRESSURE VOLUME PRESSAVG GPRESSAVG
ENERGY: 200000 1.1857 2.7469 3.1631 0.0000 -13836.9055 2380.4079 0.0000 0.0000 364.5648 -11084.8371 63.1088 -11449.4019 -11083.9261 63.1088 -10.0219 56.6250 28210.8366 -10.0219 56.6250
ENERGY: 300000 0.6616 5.0318 3.8056 0.0000 -13777.8303 2426.9725 0.0000 0.0000 533.5643 -10807.7944 92.3639 -11341.3587 -10806.7232 89.9912 1076.0554 1162.8230 27783.9787 6.5351 6.4846
TCL: Running 100000 steps at 120 kelvin.
TCL: Setting parameter langevinTemp to 120
TCL: Running for 100000 steps
ETITLE: TS BOND ANGLE DIHED IMPRP ELECT VDW BOUNDARY MISC KINETIC TOTAL TEMP POTENTIAL TOTAL3 TEMPAVG PRESSURE GPRESSURE VOLUME PRESSAVG GPRESSAVG
ENERGY: 300000 0.6616 5.0318 3.8056 0.0000 -13777.8303 2426.9725 0.0000 0.0000 533.3184 -10808.0403 92.3213 -11341.3587 -10807.1089 92.3213 1110.6520 1163.4011 27783.9787 1110.6520 1163.4011
ENERGY: 400000 1.3976 4.7671 4.7662 0.0000 -13533.7432 2302.6809 0.0000 0.0000 677.0445 -10543.0869 117.2013 -11220.1314 -10540.5861 119.9223 246.0844 304.1894 27892.6939 4.1758 4.1415
TCL: Running 100000 steps at 150 kelvin.
TCL: Setting parameter langevinTemp to 150
TCL: Running for 100000 steps
ETITLE: TS BOND ANGLE DIHED IMPRP ELECT VDW BOUNDARY MISC KINETIC TOTAL TEMP POTENTIAL TOTAL3 TEMPAVG PRESSURE GPRESSURE VOLUME PRESSAVG GPRESSAVG
ENERGY: 400000 1.3976 4.7671 4.7662 0.0000 -13533.7432 2302.6809 0.0000 0.0000 676.7162 -10543.4151 117.1445 -11220.1314 -10542.0424 117.1445 239.2583 305.6973 27892.6939 239.2583 305.6973
ENERGY: 500000 1.1702 6.5503 4.0737 0.0000 -13067.3283 2039.5536 0.0000 0.0000 895.1368 -10120.8436 154.9547 -11015.9804 -10118.4943 149.8982 -1182.6569 -1187.0503 28344.7416 3.2523 3.1120
TCL: Running 100000 steps at 180 kelvin.
TCL: Setting parameter langevinTemp to 180
TCL: Running for 100000 steps
ETITLE: TS BOND ANGLE DIHED IMPRP ELECT VDW BOUNDARY MISC KINETIC TOTAL TEMP POTENTIAL TOTAL3 TEMPAVG PRESSURE GPRESSURE VOLUME PRESSAVG GPRESSAVG
ENERGY: 500000 1.1702 6.5503 4.0737 0.0000 -13067.3283 2039.5536 0.0000 0.0000 894.6978 -10121.2826 154.8787 -11015.9804 -10119.5747 154.8787 -1236.7794 -1185.9819 28344.7416 -1236.7794 -1185.9819
ENERGY: 600000 2.8615 6.0273 3.2123 0.0000 -13023.0289 2281.9825 0.0000 0.0000 1024.8729 -9704.0724 177.4130 -10728.9453 -9700.8528 179.7813 1759.6817 1813.7983 28167.9896 4.7593 4.7658
TCL: Running 100000 steps at 210 kelvin.
TCL: Setting parameter langevinTemp to 210
TCL: Running for 100000 steps
ETITLE: TS BOND ANGLE DIHED IMPRP ELECT VDW BOUNDARY MISC KINETIC TOTAL TEMP POTENTIAL TOTAL3 TEMPAVG PRESSURE GPRESSURE VOLUME PRESSAVG GPRESSAVG
ENERGY: 600000 2.8615 6.0273 3.2123 0.0000 -13023.0289 2281.9825 0.0000 0.0000 1024.3462 -9704.5991 177.3218 -10728.9453 -9702.6282 177.3218 1761.4287 1814.7119 28167.9896 1761.4287 1814.7119
ENERGY: 700000 2.0432 12.8831 4.2304 0.0000 -12149.7206 1845.7518 0.0000 0.0000 1204.7139 -9080.0983 208.5448 -10284.8122 -9077.5491 209.7061 199.8492 304.9297 27985.9979 3.3224 3.3011
TCL: Running 100000 steps at 240 kelvin.
TCL: Setting parameter langevinTemp to 240
TCL: Running for 100000 steps
ETITLE: TS BOND ANGLE DIHED IMPRP ELECT VDW BOUNDARY MISC KINETIC TOTAL TEMP POTENTIAL TOTAL3 TEMPAVG PRESSURE GPRESSURE VOLUME PRESSAVG GPRESSAVG
ENERGY: 700000 2.0432 12.8831 4.2304 0.0000 -12149.7206 1845.7518 0.0000 0.0000 1204.1045 -9080.7077 208.4393 -10284.8122 -9078.4347 208.4393 212.9955 305.6716 27985.9979 212.9955 305.6716
ENERGY: 800000 2.9715 11.5787 3.8470 0.0000 -11433.4412 1573.2379 0.0000 0.0000 1402.0784 -8439.7277 242.7100 -9841.8061 -8437.8956 239.0385 -655.5844 -555.4487 28426.9985 2.9051 3.0259
TCL: Running 100000 steps at 270 kelvin.
TCL: Setting parameter langevinTemp to 270
TCL: Running for 100000 steps
ETITLE: TS BOND ANGLE DIHED IMPRP ELECT VDW BOUNDARY MISC KINETIC TOTAL TEMP POTENTIAL TOTAL3 TEMPAVG PRESSURE GPRESSURE VOLUME PRESSAVG GPRESSAVG
ENERGY: 800000 2.9715 11.5787 3.8470 0.0000 -11433.4412 1573.2379 0.0000 0.0000 1401.4040 -8440.4022 242.5932 -9841.8061 -8438.4106 242.5932 -640.5659 -555.4640 28426.9985 -640.5659 -555.4640
ENERGY: 900000 1.1217 10.7649 7.9273 0.0000 -10925.5766 1476.0109 0.0000 0.0000 1538.7346 -7891.0173 266.3662 -9429.7519 -7886.1598 270.0389 -178.5122 -79.9258 28790.7424 2.8391 2.7801
TCL: Running 1000000 steps at 300 kelvin.
TCL: Setting parameter langevinTemp to 300
TCL: Running for 1000000 steps
ETITLE: TS BOND ANGLE DIHED IMPRP ELECT VDW BOUNDARY MISC KINETIC TOTAL TEMP POTENTIAL TOTAL3 TEMPAVG PRESSURE GPRESSURE VOLUME PRESSAVG GPRESSAVG
ENERGY: 900000 1.1217 10.7649 7.9273 0.0000 -10925.5766 1476.0109 0.0000 0.0000 1537.9676 -7891.7843 266.2334 -9429.7519 -7889.1267 266.2334 -172.1478 -78.8070 28790.7424 -172.1478 -78.8070
ENERGY: 1100000 0.9199 14.2299 4.7065 0.0000 -10526.9716 1485.6446 0.0000 0.0000 1784.5854 -7236.8853 308.9247 -9021.4707 -7234.6757 300.4667 507.6757 667.5152 29902.6666 2.2631 2.3571
ENERGY: 1300000 2.4939 11.2617 8.4461 0.0000 -10495.0591 1396.5089 0.0000 0.0000 1728.8737 -7347.4748 299.2806 -9076.3485 -7343.8315 300.1300 136.0778 175.3305 29296.5099 3.0055 2.8795
ENERGY: 1500000 2.8910 16.6374 8.6381 0.0000 -10420.3279 1389.4250 0.0000 0.0000 1730.8491 -7271.8873 299.6226 -9002.7364 -7269.9813 300.1476 -144.0534 -104.1472 30162.2408 3.0612 2.8588
ENERGY: 1700000 3.5995 13.2741 5.7286 0.0000 -10276.2930 1258.5701 0.0000 0.0000 1751.9666 -7243.1541 303.2782 -8995.1207 -7241.0023 300.3103 -919.7249 -840.9819 29669.0848 3.9239 3.7565
ENERGY: 1900000 1.6448 14.4655 4.8891 0.0000 -10394.2889 1338.9804 0.0000 0.0000 1711.8007 -7322.5085 296.3252 -9034.3092 -7317.3787 300.0761 -501.9338 -405.6447 29843.8313 4.1072 4.1408
TCL: Exiting due to exit command.
