Info: SIMULATION PARAMETERS:
Info: TIMESTEP               2
Info: NUMBER OF STEPS        0
Info: STEPS PER CYCLE        10
Info: PERIODIC CELL BASIS 1  37.133 0 0
Info: PERIODIC CELL BASIS 2  0 38.729 0
Info: PERIODIC CELL BASIS 3  0 0 31.349
Info: PERIODIC CELL CENTER   0 0 0
Info: WRAPPING WATERS AROUND PERIODIC BOUNDARIES ON OUTPUT.
Info: WRAPPING ALL CLUSTERS AROUND PERIODIC BOUNDARIES ON OUTPUT.
Info: FIRST LDB TIMESTEP     50
Info: LAST LDB TIMESTEP     -1
Info: HOM BACKGROUND SCALING 1
Info: PME BACKGROUND SCALING 1
Info: MIN ATOMS PER PATCH    40
Info: EMPTY PATCH LOAD       40 ATOMS
Info: INITIAL TEMPERATURE    300
Info: CENTER OF MASS MOVING INITIALLY? NO
Info: DIELECTRIC             1
Info: EXCLUDE                SCALED ONE-FOUR
Info: 1-4 ELECTROSTATICS SCALED BY 0.833333
Info: MODIFIED 1-4 VDW PARAMETERS WILL BE USED
Info: DCD FILENAME           mobley_2844990_equil.dcd
Info: DCD FREQUENCY          100000
Info: DCD FIRST STEP         100000
Info: DCD FILE WILL CONTAIN UNIT CELL DATA
Info: XST FILENAME           mobley_2844990_equil.xst
Info: XST FREQUENCY          100000
Info: NO VELOCITY DCD OUTPUT
Info: NO FORCE DCD OUTPUT
Info: OUTPUT FILENAME        mobley_2844990_equil
Info: BINARY OUTPUT FILES WILL BE USED
Info: RESTART FILENAME       mobley_2844990_equil.restart
Info: RESTART FREQUENCY      100000
Info: BINARY RESTART FILES WILL BE USED
Info: CUTOFF                 9
Info: PAIRLIST DISTANCE      11
Info: PAIRLIST SHRINK RATE   0.01
Info: PAIRLIST GROW RATE     0.01
Info: PAIRLIST TRIGGER       0.3
Info: PAIRLISTS PER CYCLE    2
Info: PAIRLISTS ENABLED
Info: MARGIN                 8
Info: HYDROGEN GROUP CUTOFF  2.5
Info: PATCH DIMENSION        21.5
Info: ENERGY OUTPUT STEPS    100000
Info: ENERGY EVALUATION STEPS    100000
Info: OUTPUT ENERGY PRECISION 4
Info: CROSSTERM ENERGY INCLUDED IN DIHEDRAL
Info: TIMING OUTPUT STEPS    1000000
Info: PRESSURE OUTPUT STEPS  100000
Info: LANGEVIN DYNAMICS ACTIVE
Info: LANGEVIN TEMPERATURE   30
Info: LANGEVIN USING BBK INTEGRATOR
Info: LANGEVIN DAMPING COEFFICIENT IS 1 INVERSE PS
Info: LANGEVIN DYNAMICS APPLIED TO HYDROGENS
Info: LANGEVIN PISTON PRESSURE CONTROL ACTIVE
Info:        TARGET PRESSURE IS 1.01325 BAR
Info:     OSCILLATION PERIOD IS 50 FS
Info:             DECAY TIME IS 25 FS
Info:     PISTON TEMPERATURE IS 300 K
Info:       PRESSURE CONTROL IS GROUP-BASED
Info:    INITIAL STRAIN RATE IS 0 0 0
Info:       CELL FLUCTUATION IS ISOTROPIC
Info: PARTICLE MESH EWALD (PME) ACTIVE
Info: PME TOLERANCE               1e-06
Info: PME EWALD COEFFICIENT       0.348832
Info: PME INTERPOLATION ORDER     4
Info: PME GRID DIMENSIONS         40 40 32
Info: PME MAXIMUM GRID SPACING    1
Info: FULL ELECTROSTATIC EVALUATION FREQUENCY      2
Info: USING VERLET I (r-RESPA) MTS SCHEME.
Info: C1 SPLITTING OF LONG RANGE ELECTROSTATICS
Info: PLACING ATOMS IN PATCHES BY HYDROGEN GROUPS
Info: RIGID BONDS TO HYDROGEN : ALL
Info:         ERROR TOLERANCE : 1e-08
Info:          MAX ITERATIONS : 100
Info: RIGID WATER USING SETTLE ALGORITHM
Info: RANDOM NUMBER SEED     1743219285
Info: USE HYDROGEN BONDS?    NO
Info: Using AMBER format force field!
Info: AMBER PARM FILE        mobley_2844990.prmtop
Info: COORDINATE PDB         mobley_2844990.pdb
Info: Exclusions will be read from PARM file!
Info: SCNB (VDW SCALING)     2
Info: USING ARITHMETIC MEAN TO COMBINE L-J SIGMA PARAMETERS
Info: BINARY COORDINATES     mobley_2844990_min.coor
Info: SUMMARY OF PARAMETERS:
Info: 6 BONDS
Info: 5 ANGLES
Info:   5 HARMONIC
Info:   0 COSINE-BASED
Info: 3 DIHEDRAL
Info: 0 IMPROPER
Info: 0 CROSSTERM
Info: 0 VDW
Info: 21 VDW_PAIRS
Info: 0 NBTHOLE_PAIRS
Info: STRUCTURE SUMMARY:
Info: 2992 ATOMS
Info: 2994 BONDS
Info: 38 ANGLES
Info: 68 DIHEDRALS
Info: 0 IMPROPERS
Info: 0 CROSSTERMS
Info: 3079 EXCLUSIONS
Info: 2974 RIGID BONDS
Info: 6002 DEGREES OF FREEDOM
Info: 1008 HYDROGEN GROUPS
Info: 3 ATOMS IN LARGEST HYDROGEN GROUP
Info: 1008 MIGRATION GROUPS
Info: 3 ATOMS IN LARGEST MIGRATION GROUP
Info: TOTAL MASS = 18157.8 amu
Info: TOTAL CHARGE = -0.000100005 e
Info: MASS DENSITY = 0.668809 g/cm^3
Info: ATOM DENSITY = 0.0663654 atoms/A^3
Info: ADDED 0 IMPLICIT EXCLUSIONS
Info: NONBONDED TABLE R-SQUARED SPACING: 0.0625
Info: NONBONDED TABLE SIZE: 705 POINTS
Info: REMOVING COM VELOCITY -0.108108 -0.0227882 -0.106117
TCL: Running for 100000 steps
ETITLE: TS BOND ANGLE DIHED IMPRP ELECT VDW BOUNDARY MISC KINETIC TOTAL TEMP POTENTIAL TOTAL3 TEMPAVG PRESSURE GPRESSURE VOLUME PRESSAVG GPRESSAVG
ENERGY: 0 0.5263 0.2903 0.0490 0.0000 -13836.7679 2413.8227 0.0000 0.0000 1775.4198 -9646.6599 297.7114 -11422.0797 -9646.3114 297.7114 196.2957 219.6064 45083.7479 196.2957 219.6064
ENERGY: 100000 0.9455 0.9752 0.2963 0.0000 -14406.5897 2550.5465 0.0000 0.0000 172.9355 -11680.8907 28.9987 -11853.8262 -11680.5495 30.9313 479.1400 518.5145 29386.4557 5.4120 5.3668
TCL: Running 100000 steps at 60 kelvin.
TCL: Setting parameter langevinTemp to 60
TCL: Running for 100000 steps
ETITLE: TS BOND ANGLE DIHED IMPRP ELECT VDW BOUNDARY MISC KINETIC TOTAL TEMP POTENTIAL TOTAL3 TEMPAVG PRESSURE GPRESSURE VOLUME PRESSAVG GPRESSAVG
ENERGY: 100000 0.9455 0.9752 0.2963 0.0000 -14406.5897 2550.5465 0.0000 0.0000 172.8513 -11680.9749 28.9846 -11853.8262 -11680.6487 28.9846 474.2864 518.7584 29386.4557 474.2864 518.7584
ENERGY: 200000 1.5713 0.9973 0.8084 0.0000 -14209.8465 2440.8491 0.0000 0.0000 369.4889 -11396.1317 61.9578 -11765.6205 -11395.4360 59.9327 39.7370 98.1308 29331.4786 3.8556 3.7845
TCL: Running 100000 steps at 90 kelvin.
TCL: Setting parameter langevinTemp to 90
TCL: Running for 100000 steps
ETITLE: TS BOND ANGLE DIHED IMPRP ELECT VDW BOUNDARY MISC KINETIC TOTAL TEMP POTENTIAL TOTAL3 TEMPAVG PRESSURE GPRESSURE VOLUME PRESSAVG GPRESSAVG
ENERGY: 200000 1.5713 0.9973 0.8084 0.0000 -14209.8465 2440.8491 0.0000 0.0000 369.3110 -11396.3095 61.9279 -11765.6205 -11395.5920 61.9279 41.4737 97.7619 29331.4786 41.4737 97.7619
ENERGY: 300000 2.5865 1.5762 1.7703 0.0000 -14204.0581 2506.6683 0.0000 0.0000 546.5865 -11144.8704 91.6544 -11691.4569 -11143.2270 89.8290 760.6411 803.9099 29335.3050 6.3058 6.2431
TCL: Running 100000 steps at 120 kelvin.
TCL: Setting parameter langevinTemp to 120
TCL: Running for 100000 steps
ETITLE: TS BOND ANGLE DIHED IMPRP ELECT VDW BOUNDARY MISC KINETIC TOTAL TEMP POTENTIAL TOTAL3 TEMPAVG PRESSURE GPRESSURE VOLUME PRESSAVG GPRESSAVG
ENERGY: 300000 2.5865 1.5762 1.7703 0.0000 -14204.0581 2506.6683 0.0000 0.0000 546.3244 -11145.1325 91.6105 -11691.4569 -11144.0183 91.6105 769.7134 804.0687 29335.3050 769.7134 804.0687
ENERGY: 400000 3.6872 2.8359 2.2168 0.0000 -13981.0557 2390.5259 0.0000 0.0000 709.2999 -10872.4900 118.9390 -11581.7899 -10870.9608 119.9240 130.8659 141.8977 29330.6713 2.9604 2.9249
TCL: Running 100000 steps at 150 kelvin.
TCL: Setting parameter langevinTemp to 150
TCL: Running for 100000 steps
ETITLE: TS BOND ANGLE DIHED IMPRP ELECT VDW BOUNDARY MISC KINETIC TOTAL TEMP POTENTIAL TOTAL3 TEMPAVG PRESSURE GPRESSURE VOLUME PRESSAVG GPRESSAVG
ENERGY: 400000 3.6872 2.8359 2.2168 0.0000 -13981.0557 2390.5259 0.0000 0.0000 708.9576 -10872.8323 118.8816 -11581.7899 -10871.6292 118.8816 92.8108 141.9567 29330.6713 92.8108 141.9567
ENERGY: 500000 3.3292 2.5239 3.9452 0.0000 -13615.8404 2195.6213 0.0000 0.0000 895.8954 -10514.5253 150.2283 -11410.4207 -10512.5193 149.9401 -797.2398 -758.8785 29518.5117 4.5592 4.6818
TCL: Running 100000 steps at 180 kelvin.
TCL: Setting parameter langevinTemp to 180
TCL: Running for 100000 steps
ETITLE: TS BOND ANGLE DIHED IMPRP ELECT VDW BOUNDARY MISC KINETIC TOTAL TEMP POTENTIAL TOTAL3 TEMPAVG PRESSURE GPRESSURE VOLUME PRESSAVG GPRESSAVG
ENERGY: 500000 3.3292 2.5239 3.9452 0.0000 -13615.8404 2195.6213 0.0000 0.0000 895.4413 -10514.9794 150.1521 -11410.4207 -10512.9671 150.1521 -816.7830 -759.2296 29518.5117 -816.7830 -759.2296
ENERGY: 600000 3.5191 3.5761 2.6945 0.0000 -13339.6239 2205.1725 0.0000 0.0000 1060.9741 -10063.6877 177.9095 -11124.6618 -10061.2792 179.8689 246.2058 306.8998 29558.5483 4.4164 4.3487
TCL: Running 100000 steps at 210 kelvin.
TCL: Setting parameter langevinTemp to 210
TCL: Running for 100000 steps
ETITLE: TS BOND ANGLE DIHED IMPRP ELECT VDW BOUNDARY MISC KINETIC TOTAL TEMP POTENTIAL TOTAL3 TEMPAVG PRESSURE GPRESSURE VOLUME PRESSAVG GPRESSAVG
ENERGY: 600000 3.5191 3.5761 2.6945 0.0000 -13339.6239 2205.1725 0.0000 0.0000 1060.4375 -10064.2243 177.8195 -11124.6618 -10062.2166 177.8195 261.8199 307.1011 29558.5483 261.8199 307.1011
ENERGY: 700000 5.4087 2.2578 3.9415 0.0000 -12634.8919 1993.4169 0.0000 0.0000 1234.7638 -9395.1032 207.0515 -10629.8670 -9392.9086 209.6404 552.6116 633.8439 29219.6610 5.1164 5.1443
TCL: Running 100000 steps at 240 kelvin.
TCL: Setting parameter langevinTemp to 240
TCL: Running for 100000 steps
ETITLE: TS BOND ANGLE DIHED IMPRP ELECT VDW BOUNDARY MISC KINETIC TOTAL TEMP POTENTIAL TOTAL3 TEMPAVG PRESSURE GPRESSURE VOLUME PRESSAVG GPRESSAVG
ENERGY: 700000 5.4087 2.2578 3.9415 0.0000 -12634.8919 1993.4169 0.0000 0.0000 1234.1275 -9395.7395 206.9448 -10629.8670 -9393.4213 206.9448 572.3572 633.1996 29219.6610 572.3572 633.1996
ENERGY: 800000 5.3850 5.2784 5.6119 0.0000 -11970.6952 1764.2826 0.0000 0.0000 1434.2859 -8755.8513 240.5083 -10190.1373 -8752.4696 239.6163 311.0752 376.2404 29487.9236 4.3042 4.2869
TCL: Running 100000 steps at 270 kelvin.
TCL: Setting parameter langevinTemp to 270
TCL: Running for 100000 steps
ETITLE: TS BOND ANGLE DIHED IMPRP ELECT VDW BOUNDARY MISC KINETIC TOTAL TEMP POTENTIAL TOTAL3 TEMPAVG PRESSURE GPRESSURE VOLUME PRESSAVG GPRESSAVG
ENERGY: 800000 5.3850 5.2784 5.6119 0.0000 -11970.6952 1764.2826 0.0000 0.0000 1433.5778 -8756.5594 240.3896 -10190.1373 -8754.7721 240.3896 300.1660 376.6195 29487.9236 300.1660 376.6195
ENERGY: 900000 6.9277 5.6234 5.4717 0.0000 -11442.5630 1621.9344 0.0000 0.0000 1584.6371 -8217.9686 265.7200 -9802.6057 -8215.6979 269.9543 56.8199 143.9833 30260.4304 4.0040 3.8144
TCL: Running 1000000 steps at 300 kelvin.
TCL: Setting parameter langevinTemp to 300
TCL: Running for 1000000 steps
ETITLE: TS BOND ANGLE DIHED IMPRP ELECT VDW BOUNDARY MISC KINETIC TOTAL TEMP POTENTIAL TOTAL3 TEMPAVG PRESSURE GPRESSURE VOLUME PRESSAVG GPRESSAVG
ENERGY: 900000 6.9277 5.6234 5.4717 0.0000 -11442.5630 1621.9344 0.0000 0.0000 1583.8286 -8218.7771 265.5844 -9802.6057 -8215.6536 265.5844 57.7151 143.6856 30260.4304 57.7151 143.6856
ENERGY: 1100000 4.9893 3.1870 7.9568 0.0000 -10869.2627 1437.7041 0.0000 0.0000 1750.2237 -7665.2018 293.4864 -9415.4255 -7660.4424 299.6486 -284.2356 -206.9979 31132.5640 2.7034 2.8204
ENERGY: 1300000 6.1266 5.3206 7.2870 0.0000 -10843.2219 1498.2639 0.0000 0.0000 1813.1047 -7513.1190 304.0306 -9326.2238 -7507.5366 300.3855 524.0358 573.9658 30655.7260 2.1830 1.9303
ENERGY: 1500000 4.1149 7.6945 5.7300 0.0000 -10802.7733 1446.2038 0.0000 0.0000 1842.8057 -7496.2244 309.0110 -9339.0301 -7492.1914 300.8913 -3.4413 104.7882 30819.2297 3.3312 3.2848
ENERGY: 1700000 7.7917 2.6548 2.6469 0.0000 -10754.6809 1434.8134 0.0000 0.0000 1761.7234 -7545.0508 295.4147 -9306.7741 -7541.7430 300.2130 120.0317 167.2046 30668.6255 3.1060 3.0964
ENERGY: 1900000 8.2954 4.8252 4.3556 0.0000 -10773.5273 1477.4443 0.0000 0.0000 1755.9523 -7522.6545 294.4470 -9278.6068 -7518.8237 300.3037 242.8585 338.0770 31008.9753 2.4029 2.5770
TCL: Exiting due to exit command.
