Info: SIMULATION PARAMETERS:
Info: TIMESTEP               2
Info: NUMBER OF STEPS        0
Info: STEPS PER CYCLE        10
Info: PERIODIC CELL BASIS 1  34.986 0 0
Info: PERIODIC CELL BASIS 2  0 33.399 0
Info: PERIODIC CELL BASIS 3  0 0 37.451
Info: PERIODIC CELL CENTER   0 0 0
Info: WRAPPING WATERS AROUND PERIODIC BOUNDARIES ON OUTPUT.
Info: WRAPPING ALL CLUSTERS AROUND PERIODIC BOUNDARIES ON OUTPUT.
Info: FIRST LDB TIMESTEP     50
Info: LAST LDB TIMESTEP     -1
Info: HOM BACKGROUND SCALING 1
Info: PME BACKGROUND SCALING 1
Info: MIN ATOMS PER PATCH    40
Info: EMPTY PATCH LOAD       40 ATOMS
Info: INITIAL TEMPERATURE    300
Info: CENTER OF MASS MOVING INITIALLY? NO
Info: DIELECTRIC             1
Info: EXCLUDE                SCALED ONE-FOUR
Info: 1-4 ELECTROSTATICS SCALED BY 0.833333
Info: MODIFIED 1-4 VDW PARAMETERS WILL BE USED
Info: DCD FILENAME           mobley_8426916_equil.dcd
Info: DCD FREQUENCY          100000
Info: DCD FIRST STEP         100000
Info: DCD FILE WILL CONTAIN UNIT CELL DATA
Info: XST FILENAME           mobley_8426916_equil.xst
Info: XST FREQUENCY          100000
Info: NO VELOCITY DCD OUTPUT
Info: NO FORCE DCD OUTPUT
Info: OUTPUT FILENAME        mobley_8426916_equil
Info: BINARY OUTPUT FILES WILL BE USED
Info: RESTART FILENAME       mobley_8426916_equil.restart
Info: RESTART FREQUENCY      100000
Info: BINARY RESTART FILES WILL BE USED
Info: CUTOFF                 9
Info: PAIRLIST DISTANCE      11
Info: PAIRLIST SHRINK RATE   0.01
Info: PAIRLIST GROW RATE     0.01
Info: PAIRLIST TRIGGER       0.3
Info: PAIRLISTS PER CYCLE    2
Info: PAIRLISTS ENABLED
Info: MARGIN                 8
Info: HYDROGEN GROUP CUTOFF  2.5
Info: PATCH DIMENSION        21.5
Info: ENERGY OUTPUT STEPS    100000
Info: ENERGY EVALUATION STEPS    100000
Info: OUTPUT ENERGY PRECISION 4
Info: CROSSTERM ENERGY INCLUDED IN DIHEDRAL
Info: TIMING OUTPUT STEPS    1000000
Info: PRESSURE OUTPUT STEPS  100000
Info: LANGEVIN DYNAMICS ACTIVE
Info: LANGEVIN TEMPERATURE   30
Info: LANGEVIN USING BBK INTEGRATOR
Info: LANGEVIN DAMPING COEFFICIENT IS 1 INVERSE PS
Info: LANGEVIN DYNAMICS APPLIED TO HYDROGENS
Info: LANGEVIN PISTON PRESSURE CONTROL ACTIVE
Info:        TARGET PRESSURE IS 1.01325 BAR
Info:     OSCILLATION PERIOD IS 50 FS
Info:             DECAY TIME IS 25 FS
Info:     PISTON TEMPERATURE IS 300 K
Info:       PRESSURE CONTROL IS GROUP-BASED
Info:    INITIAL STRAIN RATE IS 0 0 0
Info:       CELL FLUCTUATION IS ISOTROPIC
Info: PARTICLE MESH EWALD (PME) ACTIVE
Info: PME TOLERANCE               1e-06
Info: PME EWALD COEFFICIENT       0.348832
Info: PME INTERPOLATION ORDER     4
Info: PME GRID DIMENSIONS         36 36 40
Info: PME MAXIMUM GRID SPACING    1
Info: FULL ELECTROSTATIC EVALUATION FREQUENCY      2
Info: USING VERLET I (r-RESPA) MTS SCHEME.
Info: C1 SPLITTING OF LONG RANGE ELECTROSTATICS
Info: PLACING ATOMS IN PATCHES BY HYDROGEN GROUPS
Info: RIGID BONDS TO HYDROGEN : ALL
Info:         ERROR TOLERANCE : 1e-08
Info:          MAX ITERATIONS : 100
Info: RIGID WATER USING SETTLE ALGORITHM
Info: RANDOM NUMBER SEED     1743241041
Info: USE HYDROGEN BONDS?    NO
Info: Using AMBER format force field!
Info: AMBER PARM FILE        mobley_8426916.prmtop
Info: COORDINATE PDB         mobley_8426916.pdb
Info: Exclusions will be read from PARM file!
Info: SCNB (VDW SCALING)     2
Info: USING ARITHMETIC MEAN TO COMBINE L-J SIGMA PARAMETERS
Info: BINARY COORDINATES     mobley_8426916_min.coor
Info: SUMMARY OF PARAMETERS:
Info: 7 BONDS
Info: 8 ANGLES
Info:   8 HARMONIC
Info:   0 COSINE-BASED
Info: 3 DIHEDRAL
Info: 0 IMPROPER
Info: 0 CROSSTERM
Info: 0 VDW
Info: 28 VDW_PAIRS
Info: 0 NBTHOLE_PAIRS
Info: STRUCTURE SUMMARY:
Info: 2953 ATOMS
Info: 2952 BONDS
Info: 27 ANGLES
Info: 32 DIHEDRALS
Info: 0 IMPROPERS
Info: 0 CROSSTERMS
Info: 3009 EXCLUSIONS
Info: 2948 RIGID BONDS
Info: 5911 DEGREES OF FREEDOM
Info: 984 HYDROGEN GROUPS
Info: 4 ATOMS IN LARGEST HYDROGEN GROUP
Info: 984 MIGRATION GROUPS
Info: 4 ATOMS IN LARGEST MIGRATION GROUP
Info: TOTAL MASS = 17710.8 amu
Info: TOTAL CHARGE = 0.000100017 e
Info: MASS DENSITY = 0.672057 g/cm^3
Info: ATOM DENSITY = 0.0674796 atoms/A^3
Info: ADDED 0 IMPLICIT EXCLUSIONS
Info: NONBONDED TABLE R-SQUARED SPACING: 0.0625
Info: NONBONDED TABLE SIZE: 705 POINTS
Info: REMOVING COM VELOCITY -0.166998 0.162578 0.0267582
TCL: Running for 100000 steps
ETITLE: TS BOND ANGLE DIHED IMPRP ELECT VDW BOUNDARY MISC KINETIC TOTAL TEMP POTENTIAL TOTAL3 TEMPAVG PRESSURE GPRESSURE VOLUME PRESSAVG GPRESSAVG
ENERGY: 0 0.0192 0.2689 0.0343 0.0000 -13694.6106 2434.5193 0.0000 0.0000 1742.0358 -9517.7331 296.6105 -11259.7689 -9517.4060 296.6105 577.9131 612.4080 43761.3967 577.9131 612.4080
ENERGY: 100000 0.5999 0.8545 0.1710 0.0000 -14129.4488 2368.9628 0.0000 0.0000 177.3235 -11581.5371 30.1923 -11758.8606 -11580.7586 30.9289 -1036.3722 -973.2546 28874.0793 4.0401 4.0409
TCL: Running 100000 steps at 60 kelvin.
TCL: Setting parameter langevinTemp to 60
TCL: Running for 100000 steps
ETITLE: TS BOND ANGLE DIHED IMPRP ELECT VDW BOUNDARY MISC KINETIC TOTAL TEMP POTENTIAL TOTAL3 TEMPAVG PRESSURE GPRESSURE VOLUME PRESSAVG GPRESSAVG
ENERGY: 100000 0.5999 0.8545 0.1710 0.0000 -14129.4488 2368.9628 0.0000 0.0000 177.2332 -11581.6274 30.1769 -11758.8606 -11581.1933 30.1769 -1046.4817 -972.7934 28874.0793 -1046.4817 -972.7934
ENERGY: 200000 0.5175 1.4312 0.1601 0.0000 -14001.9110 2292.9897 0.0000 0.0000 343.7497 -11363.0628 58.5291 -11706.8125 -11361.7741 59.9535 -1047.1849 -968.2808 28315.4084 4.0061 4.0614
TCL: Running 100000 steps at 90 kelvin.
TCL: Setting parameter langevinTemp to 90
TCL: Running for 100000 steps
ETITLE: TS BOND ANGLE DIHED IMPRP ELECT VDW BOUNDARY MISC KINETIC TOTAL TEMP POTENTIAL TOTAL3 TEMPAVG PRESSURE GPRESSURE VOLUME PRESSAVG GPRESSAVG
ENERGY: 200000 0.5175 1.4312 0.1601 0.0000 -14001.9110 2292.9897 0.0000 0.0000 343.5788 -11363.2337 58.5000 -11706.8125 -11362.4461 58.5000 -1021.4334 -967.7484 28315.4084 -1021.4334 -967.7484
ENERGY: 300000 0.0801 2.2566 0.9401 0.0000 -13932.8971 2346.3858 0.0000 0.0000 525.3959 -11057.8385 89.4574 -11583.2344 -11056.1856 89.9943 -264.6538 -202.2682 28492.2170 4.3848 4.3915
TCL: Running 100000 steps at 120 kelvin.
TCL: Setting parameter langevinTemp to 120
TCL: Running for 100000 steps
ETITLE: TS BOND ANGLE DIHED IMPRP ELECT VDW BOUNDARY MISC KINETIC TOTAL TEMP POTENTIAL TOTAL3 TEMPAVG PRESSURE GPRESSURE VOLUME PRESSAVG GPRESSAVG
ENERGY: 300000 0.0801 2.2566 0.9401 0.0000 -13932.8971 2346.3858 0.0000 0.0000 525.1334 -11058.1010 89.4127 -11583.2344 -11057.0671 89.4127 -254.4568 -201.7356 28492.2170 -254.4568 -201.7356
ENERGY: 400000 0.6776 5.4477 1.1939 0.0000 -13790.3103 2292.4795 0.0000 0.0000 704.1375 -10786.3741 119.8911 -11490.5116 -10784.3609 119.9057 -362.5212 -323.5746 28780.4858 3.8921 3.9685
TCL: Running 100000 steps at 150 kelvin.
TCL: Setting parameter langevinTemp to 150
TCL: Running for 100000 steps
ETITLE: TS BOND ANGLE DIHED IMPRP ELECT VDW BOUNDARY MISC KINETIC TOTAL TEMP POTENTIAL TOTAL3 TEMPAVG PRESSURE GPRESSURE VOLUME PRESSAVG GPRESSAVG
ENERGY: 400000 0.6776 5.4477 1.1939 0.0000 -13790.3103 2292.4795 0.0000 0.0000 703.7870 -10786.7246 119.8314 -11490.5116 -10785.3461 119.8314 -375.1255 -323.5742 28780.4858 -375.1255 -323.5742
ENERGY: 500000 0.4647 4.1910 0.2355 0.0000 -13596.4946 2308.5189 0.0000 0.0000 875.0415 -10408.0432 148.9903 -11283.0847 -10406.0529 149.9936 457.3670 542.5500 28674.5208 3.3217 3.3729
TCL: Running 100000 steps at 180 kelvin.
TCL: Setting parameter langevinTemp to 180
TCL: Running for 100000 steps
ETITLE: TS BOND ANGLE DIHED IMPRP ELECT VDW BOUNDARY MISC KINETIC TOTAL TEMP POTENTIAL TOTAL3 TEMPAVG PRESSURE GPRESSURE VOLUME PRESSAVG GPRESSAVG
ENERGY: 500000 0.4647 4.1910 0.2355 0.0000 -13596.4946 2308.5189 0.0000 0.0000 874.5981 -10408.4866 148.9148 -11283.0847 -10407.0120 148.9148 485.0453 542.0796 28674.5208 485.0453 542.0796
ENERGY: 600000 0.4940 3.7345 1.0378 0.0000 -13122.4202 2115.6993 0.0000 0.0000 1048.1875 -9953.2670 178.4713 -11001.4545 -9952.4480 180.0887 359.5207 409.1707 28318.3228 5.4259 5.3558
TCL: Running 100000 steps at 210 kelvin.
TCL: Setting parameter langevinTemp to 210
TCL: Running for 100000 steps
ETITLE: TS BOND ANGLE DIHED IMPRP ELECT VDW BOUNDARY MISC KINETIC TOTAL TEMP POTENTIAL TOTAL3 TEMPAVG PRESSURE GPRESSURE VOLUME PRESSAVG GPRESSAVG
ENERGY: 600000 0.4940 3.7345 1.0378 0.0000 -13122.4202 2115.6993 0.0000 0.0000 1047.6347 -9953.8198 178.3772 -11001.4545 -9951.4794 178.3772 346.4808 407.8013 28318.3228 346.4808 407.8013
ENERGY: 700000 0.3617 2.4926 0.4695 0.0000 -12466.3669 1924.6429 0.0000 0.0000 1242.4282 -9295.9720 211.5440 -10538.4002 -9292.7438 209.6275 168.1894 325.2581 28673.4832 5.0900 5.0590
TCL: Running 100000 steps at 240 kelvin.
TCL: Setting parameter langevinTemp to 240
TCL: Running for 100000 steps
ETITLE: TS BOND ANGLE DIHED IMPRP ELECT VDW BOUNDARY MISC KINETIC TOTAL TEMP POTENTIAL TOTAL3 TEMPAVG PRESSURE GPRESSURE VOLUME PRESSAVG GPRESSAVG
ENERGY: 700000 0.3617 2.4926 0.4695 0.0000 -12466.3669 1924.6429 0.0000 0.0000 1241.7913 -9296.6089 211.4356 -10538.4002 -9294.0979 211.4356 256.0673 325.4072 28673.4832 256.0673 325.4072
ENERGY: 800000 0.3748 8.0463 1.0133 0.0000 -11810.6028 1751.7560 0.0000 0.0000 1463.7828 -8585.6295 249.2333 -10049.4123 -8583.5395 239.4709 491.8724 569.5896 29058.2500 3.0072 3.0138
TCL: Running 100000 steps at 270 kelvin.
TCL: Setting parameter langevinTemp to 270
TCL: Running for 100000 steps
ETITLE: TS BOND ANGLE DIHED IMPRP ELECT VDW BOUNDARY MISC KINETIC TOTAL TEMP POTENTIAL TOTAL3 TEMPAVG PRESSURE GPRESSURE VOLUME PRESSAVG GPRESSAVG
ENERGY: 800000 0.3748 8.0463 1.0133 0.0000 -11810.6028 1751.7560 0.0000 0.0000 1463.0994 -8586.3129 249.1169 -10049.4123 -8584.0848 249.1169 490.0744 568.6894 29058.2500 490.0744 568.6894
ENERGY: 900000 1.3587 8.5464 0.6117 0.0000 -11125.7570 1432.9301 0.0000 0.0000 1541.0211 -8141.2889 262.3844 -9682.3100 -8138.9508 270.2519 -1102.2687 -1105.8602 29517.0877 3.3491 3.2336
TCL: Running 1000000 steps at 300 kelvin.
TCL: Setting parameter langevinTemp to 300
TCL: Running for 1000000 steps
ETITLE: TS BOND ANGLE DIHED IMPRP ELECT VDW BOUNDARY MISC KINETIC TOTAL TEMP POTENTIAL TOTAL3 TEMPAVG PRESSURE GPRESSURE VOLUME PRESSAVG GPRESSAVG
ENERGY: 900000 1.3587 8.5464 0.6117 0.0000 -11125.7570 1432.9301 0.0000 0.0000 1540.2302 -8142.0799 262.2497 -9682.3100 -8140.1109 262.2497 -1190.8051 -1104.8438 29517.0877 -1190.8051 -1104.8438
ENERGY: 1100000 0.4600 4.8093 0.8663 0.0000 -10761.1235 1488.1183 0.0000 0.0000 1774.2551 -7492.6145 302.0964 -9266.8696 -7489.9565 299.7676 545.7632 611.3035 30115.7044 4.3256 4.1616
ENERGY: 1300000 1.9431 5.9967 1.4456 0.0000 -10610.7455 1348.1416 0.0000 0.0000 1763.8844 -7489.3341 300.3306 -9253.2185 -7485.1015 300.5113 -931.5192 -820.6863 30651.7723 3.3928 3.5276
ENERGY: 1500000 1.7739 6.7035 0.9171 0.0000 -10665.0887 1404.3869 0.0000 0.0000 1756.3077 -7494.9996 299.0405 -9251.3073 -7490.8215 300.0979 -208.0320 -183.7046 30579.4223 3.5369 3.3268
ENERGY: 1700000 1.0247 12.7317 3.5527 0.0000 -10719.4062 1443.1178 0.0000 0.0000 1788.0329 -7470.9463 304.4423 -9258.9792 -7468.2387 300.4146 -63.8335 1.5838 30494.0070 3.2710 3.5676
ENERGY: 1900000 1.8983 11.7124 0.6211 0.0000 -10652.9786 1357.7208 0.0000 0.0000 1770.8339 -7510.1920 301.5138 -9281.0260 -7507.2390 300.0415 -541.9197 -497.1267 30367.3847 2.9196 2.8082
TCL: Exiting due to exit command.
