Info: SIMULATION PARAMETERS:
Info: TIMESTEP               2
Info: NUMBER OF STEPS        0
Info: STEPS PER CYCLE        10
Info: PERIODIC CELL BASIS 1  32.955 0 0
Info: PERIODIC CELL BASIS 2  0 34.1 0
Info: PERIODIC CELL BASIS 3  0 0 39.119
Info: PERIODIC CELL CENTER   0 0 0
Info: WRAPPING WATERS AROUND PERIODIC BOUNDARIES ON OUTPUT.
Info: WRAPPING ALL CLUSTERS AROUND PERIODIC BOUNDARIES ON OUTPUT.
Info: FIRST LDB TIMESTEP     50
Info: LAST LDB TIMESTEP     -1
Info: HOM BACKGROUND SCALING 1
Info: PME BACKGROUND SCALING 1
Info: MIN ATOMS PER PATCH    40
Info: EMPTY PATCH LOAD       40 ATOMS
Info: INITIAL TEMPERATURE    300
Info: CENTER OF MASS MOVING INITIALLY? NO
Info: DIELECTRIC             1
Info: EXCLUDE                SCALED ONE-FOUR
Info: 1-4 ELECTROSTATICS SCALED BY 0.833333
Info: MODIFIED 1-4 VDW PARAMETERS WILL BE USED
Info: DCD FILENAME           mobley_5471704_equil.dcd
Info: DCD FREQUENCY          100000
Info: DCD FIRST STEP         100000
Info: DCD FILE WILL CONTAIN UNIT CELL DATA
Info: XST FILENAME           mobley_5471704_equil.xst
Info: XST FREQUENCY          100000
Info: NO VELOCITY DCD OUTPUT
Info: NO FORCE DCD OUTPUT
Info: OUTPUT FILENAME        mobley_5471704_equil
Info: BINARY OUTPUT FILES WILL BE USED
Info: RESTART FILENAME       mobley_5471704_equil.restart
Info: RESTART FREQUENCY      100000
Info: BINARY RESTART FILES WILL BE USED
Info: CUTOFF                 9
Info: PAIRLIST DISTANCE      11
Info: PAIRLIST SHRINK RATE   0.01
Info: PAIRLIST GROW RATE     0.01
Info: PAIRLIST TRIGGER       0.3
Info: PAIRLISTS PER CYCLE    2
Info: PAIRLISTS ENABLED
Info: MARGIN                 8
Info: HYDROGEN GROUP CUTOFF  2.5
Info: PATCH DIMENSION        21.5
Info: ENERGY OUTPUT STEPS    100000
Info: ENERGY EVALUATION STEPS    100000
Info: OUTPUT ENERGY PRECISION 4
Info: CROSSTERM ENERGY INCLUDED IN DIHEDRAL
Info: TIMING OUTPUT STEPS    1000000
Info: PRESSURE OUTPUT STEPS  100000
Info: LANGEVIN DYNAMICS ACTIVE
Info: LANGEVIN TEMPERATURE   30
Info: LANGEVIN USING BBK INTEGRATOR
Info: LANGEVIN DAMPING COEFFICIENT IS 1 INVERSE PS
Info: LANGEVIN DYNAMICS APPLIED TO HYDROGENS
Info: LANGEVIN PISTON PRESSURE CONTROL ACTIVE
Info:        TARGET PRESSURE IS 1.01325 BAR
Info:     OSCILLATION PERIOD IS 50 FS
Info:             DECAY TIME IS 25 FS
Info:     PISTON TEMPERATURE IS 300 K
Info:       PRESSURE CONTROL IS GROUP-BASED
Info:    INITIAL STRAIN RATE IS 0 0 0
Info:       CELL FLUCTUATION IS ISOTROPIC
Info: PARTICLE MESH EWALD (PME) ACTIVE
Info: PME TOLERANCE               1e-06
Info: PME EWALD COEFFICIENT       0.348832
Info: PME INTERPOLATION ORDER     4
Info: PME GRID DIMENSIONS         36 36 40
Info: PME MAXIMUM GRID SPACING    1
Info: FULL ELECTROSTATIC EVALUATION FREQUENCY      2
Info: USING VERLET I (r-RESPA) MTS SCHEME.
Info: C1 SPLITTING OF LONG RANGE ELECTROSTATICS
Info: PLACING ATOMS IN PATCHES BY HYDROGEN GROUPS
Info: RIGID BONDS TO HYDROGEN : ALL
Info:         ERROR TOLERANCE : 1e-08
Info:          MAX ITERATIONS : 100
Info: RIGID WATER USING SETTLE ALGORITHM
Info: RANDOM NUMBER SEED     1743252587
Info: USE HYDROGEN BONDS?    NO
Info: Using AMBER format force field!
Info: AMBER PARM FILE        mobley_5471704.prmtop
Info: COORDINATE PDB         mobley_5471704.pdb
Info: Exclusions will be read from PARM file!
Info: SCNB (VDW SCALING)     2
Info: USING ARITHMETIC MEAN TO COMBINE L-J SIGMA PARAMETERS
Info: BINARY COORDINATES     mobley_5471704_min.coor
Info: SUMMARY OF PARAMETERS:
Info: 9 BONDS
Info: 12 ANGLES
Info:   12 HARMONIC
Info:   0 COSINE-BASED
Info: 20 DIHEDRAL
Info: 0 IMPROPER
Info: 0 CROSSTERM
Info: 0 VDW
Info: 36 VDW_PAIRS
Info: 0 NBTHOLE_PAIRS
Info: STRUCTURE SUMMARY:
Info: 2981 ATOMS
Info: 2980 BONDS
Info: 40 ANGLES
Info: 64 DIHEDRALS
Info: 0 IMPROPERS
Info: 0 CROSSTERMS
Info: 3067 EXCLUSIONS
Info: 2972 RIGID BONDS
Info: 5971 DEGREES OF FREEDOM
Info: 995 HYDROGEN GROUPS
Info: 4 ATOMS IN LARGEST HYDROGEN GROUP
Info: 995 MIGRATION GROUPS
Info: 4 ATOMS IN LARGEST MIGRATION GROUP
Info: TOTAL MASS = 17894 amu
Info: TOTAL CHARGE = -9.99458e-05 e
Info: MASS DENSITY = 0.675931 g/cm^3
Info: ATOM DENSITY = 0.0678107 atoms/A^3
Info: ADDED 0 IMPLICIT EXCLUSIONS
Info: NONBONDED TABLE R-SQUARED SPACING: 0.0625
Info: NONBONDED TABLE SIZE: 705 POINTS
Info: REMOVING COM VELOCITY -0.0845693 0.158572 0.00431031
TCL: Running for 100000 steps
ETITLE: TS BOND ANGLE DIHED IMPRP ELECT VDW BOUNDARY MISC KINETIC TOTAL TEMP POTENTIAL TOTAL3 TEMPAVG PRESSURE GPRESSURE VOLUME PRESSAVG GPRESSAVG
ENERGY: 0 0.1983 0.9116 5.9410 0.0000 -13738.4565 2421.7700 0.0000 0.0000 1739.8191 -9569.8165 293.2563 -11309.6357 -9569.5048 293.2563 480.1436 517.5170 43960.5826 480.1436 517.5170
ENERGY: 100000 0.3299 1.9611 6.6853 0.0000 -14347.9209 2467.4473 0.0000 0.0000 175.3915 -11696.1058 29.5632 -11871.4973 -11695.7185 30.9055 -200.6363 -128.7465 28938.5257 3.6482 3.6884
TCL: Running 100000 steps at 60 kelvin.
TCL: Setting parameter langevinTemp to 60
TCL: Running for 100000 steps
ETITLE: TS BOND ANGLE DIHED IMPRP ELECT VDW BOUNDARY MISC KINETIC TOTAL TEMP POTENTIAL TOTAL3 TEMPAVG PRESSURE GPRESSURE VOLUME PRESSAVG GPRESSAVG
ENERGY: 100000 0.3299 1.9611 6.6853 0.0000 -14347.9209 2467.4473 0.0000 0.0000 175.3034 -11696.1938 29.5484 -11871.4973 -11695.8691 29.5484 -185.9887 -128.7964 28938.5257 -185.9887 -128.7964
ENERGY: 200000 0.4861 2.4009 6.4101 0.0000 -14395.2028 2583.6713 0.0000 0.0000 363.1804 -11439.0539 61.2161 -11802.2343 -11437.9482 59.9599 1095.4723 1140.9979 28643.0155 4.1102 4.1880
TCL: Running 100000 steps at 90 kelvin.
TCL: Setting parameter langevinTemp to 90
TCL: Running for 100000 steps
ETITLE: TS BOND ANGLE DIHED IMPRP ELECT VDW BOUNDARY MISC KINETIC TOTAL TEMP POTENTIAL TOTAL3 TEMPAVG PRESSURE GPRESSURE VOLUME PRESSAVG GPRESSAVG
ENERGY: 200000 0.4861 2.4009 6.4101 0.0000 -14395.2028 2583.6713 0.0000 0.0000 362.9987 -11439.2356 61.1855 -11802.2343 -11438.5465 61.1855 1092.5357 1141.1432 28643.0155 1092.5357 1141.1432
ENERGY: 300000 1.1272 3.2563 6.4014 0.0000 -14107.7639 2396.7765 0.0000 0.0000 540.2472 -11159.9554 91.0617 -11700.2026 -11157.9635 89.9060 96.9692 125.5330 28573.4816 3.9836 3.8943
TCL: Running 100000 steps at 120 kelvin.
TCL: Setting parameter langevinTemp to 120
TCL: Running for 100000 steps
ETITLE: TS BOND ANGLE DIHED IMPRP ELECT VDW BOUNDARY MISC KINETIC TOTAL TEMP POTENTIAL TOTAL3 TEMPAVG PRESSURE GPRESSURE VOLUME PRESSAVG GPRESSAVG
ENERGY: 300000 1.1272 3.2563 6.4014 0.0000 -14107.7639 2396.7765 0.0000 0.0000 539.9822 -11160.2204 91.0170 -11700.2026 -11159.0528 91.0170 75.8706 125.6667 28573.4816 75.8706 125.6667
ENERGY: 400000 0.6146 5.0726 7.6017 0.0000 -13860.5309 2299.9883 0.0000 0.0000 713.9707 -10833.2830 120.3438 -11547.2536 -10831.3789 119.9001 -397.2005 -308.4466 29123.8393 3.6157 3.6739
TCL: Running 100000 steps at 150 kelvin.
TCL: Setting parameter langevinTemp to 150
TCL: Running for 100000 steps
ETITLE: TS BOND ANGLE DIHED IMPRP ELECT VDW BOUNDARY MISC KINETIC TOTAL TEMP POTENTIAL TOTAL3 TEMPAVG PRESSURE GPRESSURE VOLUME PRESSAVG GPRESSAVG
ENERGY: 400000 0.6146 5.0726 7.6017 0.0000 -13860.5309 2299.9883 0.0000 0.0000 713.6164 -10833.6372 120.2841 -11547.2536 -10832.1492 120.2841 -364.7639 -308.0406 29123.8393 -364.7639 -308.0406
ENERGY: 500000 1.0220 4.9383 7.2272 0.0000 -13675.7288 2283.5643 0.0000 0.0000 875.0290 -10503.9480 147.4911 -11378.9770 -10501.8099 150.0923 219.4984 297.4145 29057.0281 6.4354 6.3500
TCL: Running 100000 steps at 180 kelvin.
TCL: Setting parameter langevinTemp to 180
TCL: Running for 100000 steps
ETITLE: TS BOND ANGLE DIHED IMPRP ELECT VDW BOUNDARY MISC KINETIC TOTAL TEMP POTENTIAL TOTAL3 TEMPAVG PRESSURE GPRESSURE VOLUME PRESSAVG GPRESSAVG
ENERGY: 500000 1.0220 4.9383 7.2272 0.0000 -13675.7288 2283.5643 0.0000 0.0000 874.5918 -10504.3852 147.4174 -11378.9770 -10502.4427 147.4174 262.5479 297.0169 29057.0281 262.5479 297.0169
ENERGY: 600000 1.1963 10.3344 8.3240 0.0000 -13136.0389 2120.6242 0.0000 0.0000 1071.0171 -9924.5430 180.5260 -10995.5600 -9922.6704 180.0908 265.5322 348.8918 28982.1479 3.8023 3.9732
TCL: Running 100000 steps at 210 kelvin.
TCL: Setting parameter langevinTemp to 210
TCL: Running for 100000 steps
ETITLE: TS BOND ANGLE DIHED IMPRP ELECT VDW BOUNDARY MISC KINETIC TOTAL TEMP POTENTIAL TOTAL3 TEMPAVG PRESSURE GPRESSURE VOLUME PRESSAVG GPRESSAVG
ENERGY: 600000 1.1963 10.3344 8.3240 0.0000 -13136.0389 2120.6242 0.0000 0.0000 1070.4501 -9925.1099 180.4304 -10995.5600 -9923.1635 180.4304 289.5996 347.9217 28982.1479 289.5996 347.9217
ENERGY: 700000 1.5887 6.6494 8.2518 0.0000 -12640.9663 2004.9698 0.0000 0.0000 1219.5368 -9399.9698 205.5598 -10619.5067 -9396.2340 210.4229 879.3688 938.7962 28732.8745 2.8306 2.7902
TCL: Running 100000 steps at 240 kelvin.
TCL: Setting parameter langevinTemp to 240
TCL: Running for 100000 steps
ETITLE: TS BOND ANGLE DIHED IMPRP ELECT VDW BOUNDARY MISC KINETIC TOTAL TEMP POTENTIAL TOTAL3 TEMPAVG PRESSURE GPRESSURE VOLUME PRESSAVG GPRESSAVG
ENERGY: 700000 1.5887 6.6494 8.2518 0.0000 -12640.9663 2004.9698 0.0000 0.0000 1218.9277 -9400.5790 205.4571 -10619.5067 -9398.3385 205.4571 847.1737 939.4526 28732.8745 847.1737 939.4526
ENERGY: 800000 2.6834 6.3233 6.1280 0.0000 -11967.5757 1783.8199 0.0000 0.0000 1416.7072 -8751.9140 238.7940 -10168.6212 -8748.1735 239.8160 288.0600 433.8968 29148.8384 2.0608 1.9477
TCL: Running 100000 steps at 270 kelvin.
TCL: Setting parameter langevinTemp to 270
TCL: Running for 100000 steps
ETITLE: TS BOND ANGLE DIHED IMPRP ELECT VDW BOUNDARY MISC KINETIC TOTAL TEMP POTENTIAL TOTAL3 TEMPAVG PRESSURE GPRESSURE VOLUME PRESSAVG GPRESSAVG
ENERGY: 800000 2.6834 6.3233 6.1280 0.0000 -11967.5757 1783.8199 0.0000 0.0000 1415.9931 -8752.6281 238.6736 -10168.6212 -8750.6267 238.6736 358.1829 434.8763 29148.8384 358.1829 434.8763
ENERGY: 900000 2.5767 12.0506 7.3392 0.0000 -11359.4196 1550.7675 0.0000 0.0000 1597.3098 -8189.3758 269.2356 -9786.6856 -8184.8558 269.7772 -375.0924 -303.7000 30088.9618 3.7787 3.7891
TCL: Running 1000000 steps at 300 kelvin.
TCL: Setting parameter langevinTemp to 300
TCL: Running for 1000000 steps
ETITLE: TS BOND ANGLE DIHED IMPRP ELECT VDW BOUNDARY MISC KINETIC TOTAL TEMP POTENTIAL TOTAL3 TEMPAVG PRESSURE GPRESSURE VOLUME PRESSAVG GPRESSAVG
ENERGY: 900000 2.5767 12.0506 7.3392 0.0000 -11359.4196 1550.7675 0.0000 0.0000 1596.5064 -8190.1791 269.1002 -9786.6856 -8187.5917 269.1002 -379.3680 -301.7586 30088.9618 -379.3680 -301.7586
ENERGY: 1100000 3.1702 11.4291 6.4574 0.0000 -10720.8423 1434.9448 0.0000 0.0000 1785.4435 -7479.3973 300.9466 -9264.8408 -7478.3657 299.8187 -13.9051 81.7540 30781.7161 1.9706 1.9499
ENERGY: 1300000 5.4819 7.6996 7.6541 0.0000 -10729.0289 1428.7835 0.0000 0.0000 1809.0456 -7470.3642 304.9249 -9279.4098 -7468.1022 299.3725 71.3879 114.3479 30701.0459 2.8197 2.7247
ENERGY: 1500000 5.3756 15.9876 7.2590 0.0000 -10777.0994 1425.2588 0.0000 0.0000 1733.9283 -7589.2900 292.2634 -9323.2183 -7586.4219 300.2908 -520.4107 -488.1699 31494.7056 4.1770 4.1864
ENERGY: 1700000 1.6463 8.5996 8.4124 0.0000 -10828.3585 1483.7738 0.0000 0.0000 1794.0793 -7531.8470 302.4022 -9325.9264 -7530.1340 300.3898 446.9680 572.3392 30360.3194 4.0744 4.2450
ENERGY: 1900000 2.5333 10.7068 5.9733 0.0000 -10721.0580 1409.0277 0.0000 0.0000 1820.8660 -7471.9509 306.9173 -9292.8169 -7466.6091 300.1830 -225.5841 -155.0023 30863.0767 3.7118 3.5496
TCL: Exiting due to exit command.
