Info: SIMULATION PARAMETERS:
Info: TIMESTEP               2
Info: NUMBER OF STEPS        0
Info: STEPS PER CYCLE        10
Info: PERIODIC CELL BASIS 1  34.986 0 0
Info: PERIODIC CELL BASIS 2  0 34.26 0
Info: PERIODIC CELL BASIS 3  0 0 37.195
Info: PERIODIC CELL CENTER   0 0 0
Info: WRAPPING WATERS AROUND PERIODIC BOUNDARIES ON OUTPUT.
Info: WRAPPING ALL CLUSTERS AROUND PERIODIC BOUNDARIES ON OUTPUT.
Info: FIRST LDB TIMESTEP     50
Info: LAST LDB TIMESTEP     -1
Info: HOM BACKGROUND SCALING 1
Info: PME BACKGROUND SCALING 1
Info: MIN ATOMS PER PATCH    40
Info: EMPTY PATCH LOAD       40 ATOMS
Info: INITIAL TEMPERATURE    300
Info: CENTER OF MASS MOVING INITIALLY? NO
Info: DIELECTRIC             1
Info: EXCLUDE                SCALED ONE-FOUR
Info: 1-4 ELECTROSTATICS SCALED BY 0.833333
Info: MODIFIED 1-4 VDW PARAMETERS WILL BE USED
Info: DCD FILENAME           mobley_4613090_equil.dcd
Info: DCD FREQUENCY          100000
Info: DCD FIRST STEP         100000
Info: DCD FILE WILL CONTAIN UNIT CELL DATA
Info: XST FILENAME           mobley_4613090_equil.xst
Info: XST FREQUENCY          100000
Info: NO VELOCITY DCD OUTPUT
Info: NO FORCE DCD OUTPUT
Info: OUTPUT FILENAME        mobley_4613090_equil
Info: BINARY OUTPUT FILES WILL BE USED
Info: RESTART FILENAME       mobley_4613090_equil.restart
Info: RESTART FREQUENCY      100000
Info: BINARY RESTART FILES WILL BE USED
Info: CUTOFF                 9
Info: PAIRLIST DISTANCE      11
Info: PAIRLIST SHRINK RATE   0.01
Info: PAIRLIST GROW RATE     0.01
Info: PAIRLIST TRIGGER       0.3
Info: PAIRLISTS PER CYCLE    2
Info: PAIRLISTS ENABLED
Info: MARGIN                 8
Info: HYDROGEN GROUP CUTOFF  2.5
Info: PATCH DIMENSION        21.5
Info: ENERGY OUTPUT STEPS    100000
Info: ENERGY EVALUATION STEPS    100000
Info: OUTPUT ENERGY PRECISION 4
Info: CROSSTERM ENERGY INCLUDED IN DIHEDRAL
Info: TIMING OUTPUT STEPS    1000000
Info: PRESSURE OUTPUT STEPS  100000
Info: LANGEVIN DYNAMICS ACTIVE
Info: LANGEVIN TEMPERATURE   30
Info: LANGEVIN USING BBK INTEGRATOR
Info: LANGEVIN DAMPING COEFFICIENT IS 1 INVERSE PS
Info: LANGEVIN DYNAMICS APPLIED TO HYDROGENS
Info: LANGEVIN PISTON PRESSURE CONTROL ACTIVE
Info:        TARGET PRESSURE IS 1.01325 BAR
Info:     OSCILLATION PERIOD IS 50 FS
Info:             DECAY TIME IS 25 FS
Info:     PISTON TEMPERATURE IS 300 K
Info:       PRESSURE CONTROL IS GROUP-BASED
Info:    INITIAL STRAIN RATE IS 0 0 0
Info:       CELL FLUCTUATION IS ISOTROPIC
Info: PARTICLE MESH EWALD (PME) ACTIVE
Info: PME TOLERANCE               1e-06
Info: PME EWALD COEFFICIENT       0.348832
Info: PME INTERPOLATION ORDER     4
Info: PME GRID DIMENSIONS         36 36 40
Info: PME MAXIMUM GRID SPACING    1
Info: FULL ELECTROSTATIC EVALUATION FREQUENCY      2
Info: USING VERLET I (r-RESPA) MTS SCHEME.
Info: C1 SPLITTING OF LONG RANGE ELECTROSTATICS
Info: PLACING ATOMS IN PATCHES BY HYDROGEN GROUPS
Info: RIGID BONDS TO HYDROGEN : ALL
Info:         ERROR TOLERANCE : 1e-08
Info:          MAX ITERATIONS : 100
Info: RIGID WATER USING SETTLE ALGORITHM
Info: RANDOM NUMBER SEED     1743244911
Info: USE HYDROGEN BONDS?    NO
Info: Using AMBER format force field!
Info: AMBER PARM FILE        mobley_4613090.prmtop
Info: COORDINATE PDB         mobley_4613090.pdb
Info: Exclusions will be read from PARM file!
Info: SCNB (VDW SCALING)     2
Info: USING ARITHMETIC MEAN TO COMBINE L-J SIGMA PARAMETERS
Info: BINARY COORDINATES     mobley_4613090_min.coor
Info: SUMMARY OF PARAMETERS:
Info: 14 BONDS
Info: 19 ANGLES
Info:   19 HARMONIC
Info:   0 COSINE-BASED
Info: 6 DIHEDRAL
Info: 0 IMPROPER
Info: 0 CROSSTERM
Info: 0 VDW
Info: 45 VDW_PAIRS
Info: 0 NBTHOLE_PAIRS
Info: STRUCTURE SUMMARY:
Info: 2995 ATOMS
Info: 2996 BONDS
Info: 37 ANGLES
Info: 62 DIHEDRALS
Info: 0 IMPROPERS
Info: 0 CROSSTERMS
Info: 3077 EXCLUSIONS
Info: 2983 RIGID BONDS
Info: 6002 DEGREES OF FREEDOM
Info: 1003 HYDROGEN GROUPS
Info: 3 ATOMS IN LARGEST HYDROGEN GROUP
Info: 1003 MIGRATION GROUPS
Info: 3 ATOMS IN LARGEST MIGRATION GROUP
Info: TOTAL MASS = 18012.1 amu
Info: TOTAL CHARGE = -9.99682e-05 e
Info: MASS DENSITY = 0.670898 g/cm^3
Info: ATOM DENSITY = 0.0671785 atoms/A^3
Info: ADDED 0 IMPLICIT EXCLUSIONS
Info: NONBONDED TABLE R-SQUARED SPACING: 0.0625
Info: NONBONDED TABLE SIZE: 705 POINTS
Info: REMOVING COM VELOCITY 0.00179259 -0.0256721 0.0435742
TCL: Running for 100000 steps
ETITLE: TS BOND ANGLE DIHED IMPRP ELECT VDW BOUNDARY MISC KINETIC TOTAL TEMP POTENTIAL TOTAL3 TEMPAVG PRESSURE GPRESSURE VOLUME PRESSAVG GPRESSAVG
ENERGY: 0 0.2001 0.5727 0.0726 0.0000 -13857.9574 2462.3765 0.0000 0.0000 1847.4839 -9547.2516 309.7955 -11394.7355 -9546.8612 309.7955 597.7910 643.8874 44582.6843 597.7910 643.8874
ENERGY: 100000 0.7779 1.3513 0.3912 0.0000 -14272.1695 2361.4660 0.0000 0.0000 175.4382 -11732.7449 29.4184 -11908.1831 -11732.0942 30.9315 -1060.8948 -1002.0018 28731.9538 4.9985 5.0247
TCL: Running 100000 steps at 60 kelvin.
TCL: Setting parameter langevinTemp to 60
TCL: Running for 100000 steps
ETITLE: TS BOND ANGLE DIHED IMPRP ELECT VDW BOUNDARY MISC KINETIC TOTAL TEMP POTENTIAL TOTAL3 TEMPAVG PRESSURE GPRESSURE VOLUME PRESSAVG GPRESSAVG
ENERGY: 100000 0.7779 1.3513 0.3912 0.0000 -14272.1695 2361.4660 0.0000 0.0000 175.3513 -11732.8318 29.4038 -11908.1831 -11732.3775 29.4038 -1057.2344 -1001.6871 28731.9538 -1057.2344 -1001.6871
ENERGY: 200000 0.8799 1.7424 1.3344 0.0000 -14289.2695 2426.5049 0.0000 0.0000 374.1592 -11484.6489 62.7409 -11858.8080 -11483.3488 59.9678 -280.3267 -196.8985 28783.9654 2.7641 2.7892
TCL: Running 100000 steps at 90 kelvin.
TCL: Setting parameter langevinTemp to 90
TCL: Running for 100000 steps
ETITLE: TS BOND ANGLE DIHED IMPRP ELECT VDW BOUNDARY MISC KINETIC TOTAL TEMP POTENTIAL TOTAL3 TEMPAVG PRESSURE GPRESSURE VOLUME PRESSAVG GPRESSAVG
ENERGY: 200000 0.8799 1.7424 1.3344 0.0000 -14289.2695 2426.5049 0.0000 0.0000 373.9756 -11484.8325 62.7101 -11858.8080 -11484.0735 62.7101 -258.7166 -196.8934 28783.9654 -258.7166 -196.8934
ENERGY: 300000 0.9800 3.0086 1.2344 0.0000 -14200.8677 2446.7746 0.0000 0.0000 542.5444 -11206.3258 90.9766 -11748.8702 -11203.8031 89.6950 236.8578 337.2523 28765.3278 2.7023 2.5516
TCL: Running 100000 steps at 120 kelvin.
TCL: Setting parameter langevinTemp to 120
TCL: Running for 100000 steps
ETITLE: TS BOND ANGLE DIHED IMPRP ELECT VDW BOUNDARY MISC KINETIC TOTAL TEMP POTENTIAL TOTAL3 TEMPAVG PRESSURE GPRESSURE VOLUME PRESSAVG GPRESSAVG
ENERGY: 300000 0.9800 3.0086 1.2344 0.0000 -14200.8677 2446.7746 0.0000 0.0000 542.2756 -11206.5947 90.9315 -11748.8702 -11205.3067 90.9315 257.2185 337.9293 28765.3278 257.2185 337.9293
ENERGY: 400000 1.1078 3.4614 2.1187 0.0000 -13954.9196 2325.8491 0.0000 0.0000 724.7356 -10897.6471 121.5273 -11622.3827 -10896.2293 119.9485 -252.7689 -199.2225 29074.5855 4.4792 4.4482
TCL: Running 100000 steps at 150 kelvin.
TCL: Setting parameter langevinTemp to 150
TCL: Running for 100000 steps
ETITLE: TS BOND ANGLE DIHED IMPRP ELECT VDW BOUNDARY MISC KINETIC TOTAL TEMP POTENTIAL TOTAL3 TEMPAVG PRESSURE GPRESSURE VOLUME PRESSAVG GPRESSAVG
ENERGY: 400000 1.1078 3.4614 2.1187 0.0000 -13954.9196 2325.8491 0.0000 0.0000 724.3640 -10898.0188 121.4650 -11622.3827 -10896.5857 121.4650 -259.9995 -199.6425 29074.5855 -259.9995 -199.6425
ENERGY: 500000 2.5381 5.1622 2.0157 0.0000 -13703.5999 2278.3542 0.0000 0.0000 897.4695 -10518.0602 150.4922 -11415.5297 -10516.0460 149.8449 49.9165 78.4584 28944.4583 3.8413 3.8355
TCL: Running 100000 steps at 180 kelvin.
TCL: Setting parameter langevinTemp to 180
TCL: Running for 100000 steps
ETITLE: TS BOND ANGLE DIHED IMPRP ELECT VDW BOUNDARY MISC KINETIC TOTAL TEMP POTENTIAL TOTAL3 TEMPAVG PRESSURE GPRESSURE VOLUME PRESSAVG GPRESSAVG
ENERGY: 500000 2.5381 5.1622 2.0157 0.0000 -13703.5999 2278.3542 0.0000 0.0000 897.0039 -10518.5258 150.4142 -11415.5297 -10516.5803 150.4142 26.9787 78.3849 28944.4583 26.9787 78.3849
ENERGY: 600000 1.8662 6.6669 2.5006 0.0000 -13219.9545 2075.7220 0.0000 0.0000 1073.3701 -10059.8287 179.9881 -11133.1988 -10057.0945 179.9349 -648.5295 -577.1833 29379.5352 4.9483 4.9283
TCL: Running 100000 steps at 210 kelvin.
TCL: Setting parameter langevinTemp to 210
TCL: Running for 100000 steps
ETITLE: TS BOND ANGLE DIHED IMPRP ELECT VDW BOUNDARY MISC KINETIC TOTAL TEMP POTENTIAL TOTAL3 TEMPAVG PRESSURE GPRESSURE VOLUME PRESSAVG GPRESSAVG
ENERGY: 600000 1.8662 6.6669 2.5006 0.0000 -13219.9545 2075.7220 0.0000 0.0000 1072.8640 -10060.3348 179.9033 -11133.1988 -10058.2451 179.9033 -645.7234 -576.7966 29379.5352 -645.7234 -576.7966
ENERGY: 700000 2.3140 4.2998 2.9015 0.0000 -12578.9750 1892.4348 0.0000 0.0000 1224.5332 -9452.4917 205.3359 -10677.0249 -9450.9824 210.2770 -259.0492 -256.9522 29220.6356 4.0896 4.0229
TCL: Running 100000 steps at 240 kelvin.
TCL: Setting parameter langevinTemp to 240
TCL: Running for 100000 steps
ETITLE: TS BOND ANGLE DIHED IMPRP ELECT VDW BOUNDARY MISC KINETIC TOTAL TEMP POTENTIAL TOTAL3 TEMPAVG PRESSURE GPRESSURE VOLUME PRESSAVG GPRESSAVG
ENERGY: 700000 2.3140 4.2998 2.9015 0.0000 -12578.9750 1892.4348 0.0000 0.0000 1223.9323 -9453.0926 205.2352 -10677.0249 -9450.8749 205.2352 -340.0988 -258.1292 29220.6356 -340.0988 -258.1292
ENERGY: 800000 3.7263 6.2063 3.7892 0.0000 -11867.5137 1656.0291 0.0000 0.0000 1426.6747 -8771.0881 239.2320 -10197.7628 -8767.4355 239.8213 -815.9138 -748.2822 29570.8440 2.8870 2.8753
TCL: Running 100000 steps at 270 kelvin.
TCL: Setting parameter langevinTemp to 270
TCL: Running for 100000 steps
ETITLE: TS BOND ANGLE DIHED IMPRP ELECT VDW BOUNDARY MISC KINETIC TOTAL TEMP POTENTIAL TOTAL3 TEMPAVG PRESSURE GPRESSURE VOLUME PRESSAVG GPRESSAVG
ENERGY: 800000 3.7263 6.2063 3.7892 0.0000 -11867.5137 1656.0291 0.0000 0.0000 1425.9641 -8771.7988 239.1129 -10197.7628 -8769.2915 239.1129 -831.3676 -748.5558 29570.8440 -831.3676 -748.5558
ENERGY: 900000 2.3955 5.6345 4.5541 0.0000 -11351.6172 1588.9869 0.0000 0.0000 1607.8090 -8142.2373 269.6056 -9750.0462 -8138.6848 269.7133 103.5916 171.6159 30053.4258 2.9573 2.9848
TCL: Running 1000000 steps at 300 kelvin.
TCL: Setting parameter langevinTemp to 300
TCL: Running for 1000000 steps
ETITLE: TS BOND ANGLE DIHED IMPRP ELECT VDW BOUNDARY MISC KINETIC TOTAL TEMP POTENTIAL TOTAL3 TEMPAVG PRESSURE GPRESSURE VOLUME PRESSAVG GPRESSAVG
ENERGY: 900000 2.3955 5.6345 4.5541 0.0000 -11351.6172 1588.9869 0.0000 0.0000 1606.9848 -8143.0614 269.4674 -9750.0462 -8140.6075 269.4674 92.0731 170.7759 30053.4258 92.0731 170.7759
ENERGY: 1100000 6.4427 8.4059 4.0578 0.0000 -10725.2273 1411.7552 0.0000 0.0000 1803.0980 -7491.4678 302.3526 -9294.5657 -7491.0833 299.9447 -44.4308 -7.7497 31086.8372 3.9029 4.0054
ENERGY: 1300000 5.6689 5.2482 7.2017 0.0000 -10805.5124 1420.2902 0.0000 0.0000 1772.3340 -7594.7692 297.1940 -9367.1033 -7589.5863 300.8332 -421.5237 -281.1117 31107.0223 3.0492 2.9675
ENERGY: 1500000 4.6843 9.9001 6.6577 0.0000 -10767.2892 1371.4741 0.0000 0.0000 1787.2890 -7587.2840 299.7017 -9374.5729 -7583.9100 300.2289 -860.1934 -776.0166 31510.1317 3.1993 3.1894
ENERGY: 1700000 4.8788 7.5044 5.5904 0.0000 -10854.9508 1479.8304 0.0000 0.0000 1822.2808 -7534.8660 305.5693 -9357.1468 -7530.1258 300.1686 388.8028 501.1921 30366.2260 3.3060 3.1739
ENERGY: 1900000 3.7746 9.6442 3.5961 0.0000 -10873.0451 1499.4645 0.0000 0.0000 1780.8025 -7575.7632 298.6140 -9356.5657 -7573.1138 300.8110 549.8089 601.6522 30829.3833 3.9386 3.9256
TCL: Exiting due to exit command.
