Info: SIMULATION PARAMETERS:
Info: TIMESTEP               2
Info: NUMBER OF STEPS        0
Info: STEPS PER CYCLE        10
Info: PERIODIC CELL BASIS 1  36.005 0 0
Info: PERIODIC CELL BASIS 2  0 34.1 0
Info: PERIODIC CELL BASIS 3  0 0 36.199
Info: PERIODIC CELL CENTER   0 0 0
Info: WRAPPING WATERS AROUND PERIODIC BOUNDARIES ON OUTPUT.
Info: WRAPPING ALL CLUSTERS AROUND PERIODIC BOUNDARIES ON OUTPUT.
Info: FIRST LDB TIMESTEP     50
Info: LAST LDB TIMESTEP     -1
Info: HOM BACKGROUND SCALING 1
Info: PME BACKGROUND SCALING 1
Info: MIN ATOMS PER PATCH    40
Info: EMPTY PATCH LOAD       40 ATOMS
Info: INITIAL TEMPERATURE    300
Info: CENTER OF MASS MOVING INITIALLY? NO
Info: DIELECTRIC             1
Info: EXCLUDE                SCALED ONE-FOUR
Info: 1-4 ELECTROSTATICS SCALED BY 0.833333
Info: MODIFIED 1-4 VDW PARAMETERS WILL BE USED
Info: DCD FILENAME           mobley_1424265_equil.dcd
Info: DCD FREQUENCY          100000
Info: DCD FIRST STEP         100000
Info: DCD FILE WILL CONTAIN UNIT CELL DATA
Info: XST FILENAME           mobley_1424265_equil.xst
Info: XST FREQUENCY          100000
Info: NO VELOCITY DCD OUTPUT
Info: NO FORCE DCD OUTPUT
Info: OUTPUT FILENAME        mobley_1424265_equil
Info: BINARY OUTPUT FILES WILL BE USED
Info: RESTART FILENAME       mobley_1424265_equil.restart
Info: RESTART FREQUENCY      100000
Info: BINARY RESTART FILES WILL BE USED
Info: CUTOFF                 9
Info: PAIRLIST DISTANCE      11
Info: PAIRLIST SHRINK RATE   0.01
Info: PAIRLIST GROW RATE     0.01
Info: PAIRLIST TRIGGER       0.3
Info: PAIRLISTS PER CYCLE    2
Info: PAIRLISTS ENABLED
Info: MARGIN                 8
Info: HYDROGEN GROUP CUTOFF  2.5
Info: PATCH DIMENSION        21.5
Info: ENERGY OUTPUT STEPS    100000
Info: ENERGY EVALUATION STEPS    100000
Info: OUTPUT ENERGY PRECISION 4
Info: CROSSTERM ENERGY INCLUDED IN DIHEDRAL
Info: TIMING OUTPUT STEPS    1000000
Info: PRESSURE OUTPUT STEPS  100000
Info: LANGEVIN DYNAMICS ACTIVE
Info: LANGEVIN TEMPERATURE   30
Info: LANGEVIN USING BBK INTEGRATOR
Info: LANGEVIN DAMPING COEFFICIENT IS 1 INVERSE PS
Info: LANGEVIN DYNAMICS APPLIED TO HYDROGENS
Info: LANGEVIN PISTON PRESSURE CONTROL ACTIVE
Info:        TARGET PRESSURE IS 1.01325 BAR
Info:     OSCILLATION PERIOD IS 50 FS
Info:             DECAY TIME IS 25 FS
Info:     PISTON TEMPERATURE IS 300 K
Info:       PRESSURE CONTROL IS GROUP-BASED
Info:    INITIAL STRAIN RATE IS 0 0 0
Info:       CELL FLUCTUATION IS ISOTROPIC
Info: PARTICLE MESH EWALD (PME) ACTIVE
Info: PME TOLERANCE               1e-06
Info: PME EWALD COEFFICIENT       0.348832
Info: PME INTERPOLATION ORDER     4
Info: PME GRID DIMENSIONS         40 36 40
Info: PME MAXIMUM GRID SPACING    1
Info: FULL ELECTROSTATIC EVALUATION FREQUENCY      2
Info: USING VERLET I (r-RESPA) MTS SCHEME.
Info: C1 SPLITTING OF LONG RANGE ELECTROSTATICS
Info: PLACING ATOMS IN PATCHES BY HYDROGEN GROUPS
Info: RIGID BONDS TO HYDROGEN : ALL
Info:         ERROR TOLERANCE : 1e-08
Info:          MAX ITERATIONS : 100
Info: RIGID WATER USING SETTLE ALGORITHM
Info: RANDOM NUMBER SEED     1743214950
Info: USE HYDROGEN BONDS?    NO
Info: Using AMBER format force field!
Info: AMBER PARM FILE        mobley_1424265.prmtop
Info: COORDINATE PDB         mobley_1424265.pdb
Info: Exclusions will be read from PARM file!
Info: SCNB (VDW SCALING)     2
Info: USING ARITHMETIC MEAN TO COMBINE L-J SIGMA PARAMETERS
Info: BINARY COORDINATES     mobley_1424265_min.coor
Info: SUMMARY OF PARAMETERS:
Info: 6 BONDS
Info: 5 ANGLES
Info:   5 HARMONIC
Info:   0 COSINE-BASED
Info: 3 DIHEDRAL
Info: 0 IMPROPER
Info: 0 CROSSTERM
Info: 0 VDW
Info: 21 VDW_PAIRS
Info: 0 NBTHOLE_PAIRS
Info: STRUCTURE SUMMARY:
Info: 2976 ATOMS
Info: 2976 BONDS
Info: 30 ANGLES
Info: 42 DIHEDRALS
Info: 0 IMPROPERS
Info: 0 CROSSTERMS
Info: 3039 EXCLUSIONS
Info: 2968 RIGID BONDS
Info: 5960 DEGREES OF FREEDOM
Info: 994 HYDROGEN GROUPS
Info: 4 ATOMS IN LARGEST HYDROGEN GROUP
Info: 994 MIGRATION GROUPS
Info: 4 ATOMS IN LARGEST MIGRATION GROUP
Info: TOTAL MASS = 17869.9 amu
Info: TOTAL CHARGE = 3.72529e-08 e
Info: MASS DENSITY = 0.66768 g/cm^3
Info: ATOM DENSITY = 0.0669606 atoms/A^3
Info: ADDED 0 IMPLICIT EXCLUSIONS
Info: NONBONDED TABLE R-SQUARED SPACING: 0.0625
Info: NONBONDED TABLE SIZE: 705 POINTS
Info: REMOVING COM VELOCITY 0.180848 0.12695 0.0769492
TCL: Running for 100000 steps
ETITLE: TS BOND ANGLE DIHED IMPRP ELECT VDW BOUNDARY MISC KINETIC TOTAL TEMP POTENTIAL TOTAL3 TEMPAVG PRESSURE GPRESSURE VOLUME PRESSAVG GPRESSAVG
ENERGY: 0 0.1418 0.1110 0.0310 0.0000 -13770.3949 2427.6507 0.0000 0.0000 1785.1100 -9557.3505 301.4457 -11342.4605 -9556.9945 301.4457 527.2936 567.9863 44444.0643 527.2936 567.9863
ENERGY: 100000 0.4764 0.5369 0.2648 0.0000 -14140.4124 2394.2674 0.0000 0.0000 176.2057 -11568.6611 29.7553 -11744.8668 -11568.2752 30.9005 -549.7373 -477.6185 30168.0191 5.0107 5.0467
TCL: Running 100000 steps at 60 kelvin.
TCL: Setting parameter langevinTemp to 60
TCL: Running for 100000 steps
ETITLE: TS BOND ANGLE DIHED IMPRP ELECT VDW BOUNDARY MISC KINETIC TOTAL TEMP POTENTIAL TOTAL3 TEMPAVG PRESSURE GPRESSURE VOLUME PRESSAVG GPRESSAVG
ENERGY: 100000 0.4764 0.5369 0.2648 0.0000 -14140.4124 2394.2674 0.0000 0.0000 176.1176 -11568.7492 29.7404 -11744.8668 -11568.3900 29.7404 -535.8803 -477.6031 30168.0191 -535.8803 -477.6031
ENERGY: 200000 0.6532 1.8248 0.3560 0.0000 -14223.4711 2508.1623 0.0000 0.0000 350.8503 -11361.6245 59.2469 -11712.4749 -11361.0881 59.9962 585.9141 625.6713 29744.4320 4.7634 4.6463
TCL: Running 100000 steps at 90 kelvin.
TCL: Setting parameter langevinTemp to 90
TCL: Running for 100000 steps
ETITLE: TS BOND ANGLE DIHED IMPRP ELECT VDW BOUNDARY MISC KINETIC TOTAL TEMP POTENTIAL TOTAL3 TEMPAVG PRESSURE GPRESSURE VOLUME PRESSAVG GPRESSAVG
ENERGY: 200000 0.6532 1.8248 0.3560 0.0000 -14223.4711 2508.1623 0.0000 0.0000 350.6660 -11361.8088 59.2158 -11712.4749 -11361.1921 59.2158 579.9927 625.3492 29744.4320 579.9927 625.3492
ENERGY: 300000 1.1196 2.4285 1.1082 0.0000 -14085.7896 2450.4551 0.0000 0.0000 530.6186 -11100.0596 89.6038 -11630.6782 -11099.2690 89.8994 681.9199 687.3824 29279.0801 2.8908 2.9479
TCL: Running 100000 steps at 120 kelvin.
TCL: Setting parameter langevinTemp to 120
TCL: Running for 100000 steps
ETITLE: TS BOND ANGLE DIHED IMPRP ELECT VDW BOUNDARY MISC KINETIC TOTAL TEMP POTENTIAL TOTAL3 TEMPAVG PRESSURE GPRESSURE VOLUME PRESSAVG GPRESSAVG
ENERGY: 300000 1.1196 2.4285 1.1082 0.0000 -14085.7896 2450.4551 0.0000 0.0000 530.3565 -11100.3217 89.5596 -11630.6782 -11099.3354 89.5596 640.5752 687.1400 29279.0801 640.5752 687.1400
ENERGY: 400000 0.3372 2.3848 0.8722 0.0000 -13888.4599 2352.9084 0.0000 0.0000 711.7619 -10820.1954 120.1929 -11531.9573 -10818.6734 120.0292 2.6009 32.5902 29369.0430 3.9676 4.0125
TCL: Running 100000 steps at 150 kelvin.
TCL: Setting parameter langevinTemp to 150
TCL: Running for 100000 steps
ETITLE: TS BOND ANGLE DIHED IMPRP ELECT VDW BOUNDARY MISC KINETIC TOTAL TEMP POTENTIAL TOTAL3 TEMPAVG PRESSURE GPRESSURE VOLUME PRESSAVG GPRESSAVG
ENERGY: 400000 0.3372 2.3848 0.8722 0.0000 -13888.4599 2352.9084 0.0000 0.0000 711.4006 -10820.5567 120.1319 -11531.9573 -10819.0578 120.1319 -20.9120 32.7166 29369.0430 -20.9120 32.7166
ENERGY: 500000 2.0368 4.3657 1.9638 0.0000 -13528.3627 2183.2537 0.0000 0.0000 878.8152 -10457.9276 148.4027 -11336.7428 -10456.1663 150.2054 -769.7282 -684.8512 29335.8680 3.8957 3.8614
TCL: Running 100000 steps at 180 kelvin.
TCL: Setting parameter langevinTemp to 180
TCL: Running for 100000 steps
ETITLE: TS BOND ANGLE DIHED IMPRP ELECT VDW BOUNDARY MISC KINETIC TOTAL TEMP POTENTIAL TOTAL3 TEMPAVG PRESSURE GPRESSURE VOLUME PRESSAVG GPRESSAVG
ENERGY: 500000 2.0368 4.3657 1.9638 0.0000 -13528.3627 2183.2537 0.0000 0.0000 878.3930 -10458.3498 148.3314 -11336.7428 -10456.6925 148.3314 -751.3894 -685.4939 29335.8680 -751.3894 -685.4939
ENERGY: 600000 1.7019 3.2130 2.0285 0.0000 -13171.7075 2123.5565 0.0000 0.0000 1055.5754 -9985.6321 178.2516 -11041.2075 -9982.3716 180.0214 44.1499 139.3872 28950.9059 3.0136 2.9891
TCL: Running 100000 steps at 210 kelvin.
TCL: Setting parameter langevinTemp to 210
TCL: Running for 100000 steps
ETITLE: TS BOND ANGLE DIHED IMPRP ELECT VDW BOUNDARY MISC KINETIC TOTAL TEMP POTENTIAL TOTAL3 TEMPAVG PRESSURE GPRESSURE VOLUME PRESSAVG GPRESSAVG
ENERGY: 600000 1.7019 3.2130 2.0285 0.0000 -13171.7075 2123.5565 0.0000 0.0000 1055.0532 -9986.1543 178.1634 -11041.2075 -9984.1628 178.1634 70.9068 140.5497 28950.9059 70.9068 140.5497
ENERGY: 700000 3.2943 5.5454 1.4876 0.0000 -12550.2863 1940.1244 0.0000 0.0000 1200.3006 -9399.5340 202.6908 -10599.8346 -9396.5292 210.1022 -52.5185 67.5538 29259.9832 3.6293 3.7574
TCL: Running 100000 steps at 240 kelvin.
TCL: Setting parameter langevinTemp to 240
TCL: Running for 100000 steps
ETITLE: TS BOND ANGLE DIHED IMPRP ELECT VDW BOUNDARY MISC KINETIC TOTAL TEMP POTENTIAL TOTAL3 TEMPAVG PRESSURE GPRESSURE VOLUME PRESSAVG GPRESSAVG
ENERGY: 700000 3.2943 5.5454 1.4876 0.0000 -12550.2863 1940.1244 0.0000 0.0000 1199.6858 -9400.1489 202.5870 -10599.8346 -9397.6123 202.5870 0.1104 69.1746 29259.9832 0.1104 69.1746
ENERGY: 800000 0.5995 4.5286 1.4803 0.0000 -11990.6997 1761.3519 0.0000 0.0000 1426.4436 -8796.2958 240.8789 -10222.7394 -8793.0847 239.8914 -108.4486 22.9497 29246.2435 4.2100 4.1574
TCL: Running 100000 steps at 270 kelvin.
TCL: Setting parameter langevinTemp to 270
TCL: Running for 100000 steps
ETITLE: TS BOND ANGLE DIHED IMPRP ELECT VDW BOUNDARY MISC KINETIC TOTAL TEMP POTENTIAL TOTAL3 TEMPAVG PRESSURE GPRESSURE VOLUME PRESSAVG GPRESSAVG
ENERGY: 800000 0.5995 4.5286 1.4803 0.0000 -11990.6997 1761.3519 0.0000 0.0000 1425.7089 -8797.0305 240.7548 -10222.7394 -8794.1652 240.7548 -71.9767 22.7273 29246.2435 -71.9767 22.7273
ENERGY: 900000 2.9250 4.5668 2.1749 0.0000 -11214.3777 1518.7005 0.0000 0.0000 1601.7971 -8084.2134 270.4903 -9686.0105 -8080.1238 269.4667 -130.4736 -36.4064 29814.5102 2.2546 2.2731
TCL: Running 1000000 steps at 300 kelvin.
TCL: Setting parameter langevinTemp to 300
TCL: Running for 1000000 steps
ETITLE: TS BOND ANGLE DIHED IMPRP ELECT VDW BOUNDARY MISC KINETIC TOTAL TEMP POTENTIAL TOTAL3 TEMPAVG PRESSURE GPRESSURE VOLUME PRESSAVG GPRESSAVG
ENERGY: 900000 2.9250 4.5668 2.1749 0.0000 -11214.3777 1518.7005 0.0000 0.0000 1601.0064 -8085.0041 270.3567 -9686.0105 -8082.8558 270.3567 -136.5228 -35.6194 29814.5102 -136.5228 -35.6194
ENERGY: 1100000 1.4359 3.6799 1.5409 0.0000 -10718.4304 1416.6742 0.0000 0.0000 1791.6442 -7503.4553 302.5491 -9295.0995 -7498.8717 300.3691 -208.9671 -137.6519 30634.4187 4.4920 4.4827
ENERGY: 1300000 1.5661 3.8243 0.8526 0.0000 -10828.3631 1500.6652 0.0000 0.0000 1746.8155 -7574.6394 294.9790 -9321.4549 -7572.1490 300.4520 384.0621 479.2633 30578.2216 1.9516 1.8119
ENERGY: 1500000 2.3090 4.0842 1.4452 0.0000 -10739.0559 1384.5285 0.0000 0.0000 1779.6102 -7567.0788 300.5170 -9346.6890 -7565.5032 300.1558 -814.8544 -719.0593 31058.6905 4.1626 4.1198
ENERGY: 1700000 1.4134 4.8140 3.1263 0.0000 -10696.3538 1402.0332 0.0000 0.0000 1722.7575 -7562.2095 290.9164 -9284.9669 -7557.7996 300.3445 -601.0465 -501.3666 31320.2203 4.7366 4.6298
ENERGY: 1900000 2.8848 7.1615 2.1414 0.0000 -10692.2607 1409.3498 0.0000 0.0000 1709.7100 -7561.0133 288.7132 -9270.7233 -7558.4822 299.5798 -127.1799 -77.4606 30559.7907 3.3461 3.3350
TCL: Exiting due to exit command.
