Info: SIMULATION PARAMETERS:
Info: TIMESTEP               2
Info: NUMBER OF STEPS        0
Info: STEPS PER CYCLE        10
Info: PERIODIC CELL BASIS 1  36.592 0 0
Info: PERIODIC CELL BASIS 2  0 34.26 0
Info: PERIODIC CELL BASIS 3  0 0 35.644
Info: PERIODIC CELL CENTER   0 0 0
Info: WRAPPING WATERS AROUND PERIODIC BOUNDARIES ON OUTPUT.
Info: WRAPPING ALL CLUSTERS AROUND PERIODIC BOUNDARIES ON OUTPUT.
Info: FIRST LDB TIMESTEP     50
Info: LAST LDB TIMESTEP     -1
Info: HOM BACKGROUND SCALING 1
Info: PME BACKGROUND SCALING 1
Info: MIN ATOMS PER PATCH    40
Info: EMPTY PATCH LOAD       40 ATOMS
Info: INITIAL TEMPERATURE    300
Info: CENTER OF MASS MOVING INITIALLY? NO
Info: DIELECTRIC             1
Info: EXCLUDE                SCALED ONE-FOUR
Info: 1-4 ELECTROSTATICS SCALED BY 0.833333
Info: MODIFIED 1-4 VDW PARAMETERS WILL BE USED
Info: DCD FILENAME           mobley_3269819_equil.dcd
Info: DCD FREQUENCY          100000
Info: DCD FIRST STEP         100000
Info: DCD FILE WILL CONTAIN UNIT CELL DATA
Info: XST FILENAME           mobley_3269819_equil.xst
Info: XST FREQUENCY          100000
Info: NO VELOCITY DCD OUTPUT
Info: NO FORCE DCD OUTPUT
Info: OUTPUT FILENAME        mobley_3269819_equil
Info: BINARY OUTPUT FILES WILL BE USED
Info: RESTART FILENAME       mobley_3269819_equil.restart
Info: RESTART FREQUENCY      100000
Info: BINARY RESTART FILES WILL BE USED
Info: CUTOFF                 9
Info: PAIRLIST DISTANCE      11
Info: PAIRLIST SHRINK RATE   0.01
Info: PAIRLIST GROW RATE     0.01
Info: PAIRLIST TRIGGER       0.3
Info: PAIRLISTS PER CYCLE    2
Info: PAIRLISTS ENABLED
Info: MARGIN                 8
Info: HYDROGEN GROUP CUTOFF  2.5
Info: PATCH DIMENSION        21.5
Info: ENERGY OUTPUT STEPS    100000
Info: ENERGY EVALUATION STEPS    100000
Info: OUTPUT ENERGY PRECISION 4
Info: CROSSTERM ENERGY INCLUDED IN DIHEDRAL
Info: TIMING OUTPUT STEPS    1000000
Info: PRESSURE OUTPUT STEPS  100000
Info: LANGEVIN DYNAMICS ACTIVE
Info: LANGEVIN TEMPERATURE   30
Info: LANGEVIN USING BBK INTEGRATOR
Info: LANGEVIN DAMPING COEFFICIENT IS 1 INVERSE PS
Info: LANGEVIN DYNAMICS APPLIED TO HYDROGENS
Info: LANGEVIN PISTON PRESSURE CONTROL ACTIVE
Info:        TARGET PRESSURE IS 1.01325 BAR
Info:     OSCILLATION PERIOD IS 50 FS
Info:             DECAY TIME IS 25 FS
Info:     PISTON TEMPERATURE IS 300 K
Info:       PRESSURE CONTROL IS GROUP-BASED
Info:    INITIAL STRAIN RATE IS 0 0 0
Info:       CELL FLUCTUATION IS ISOTROPIC
Info: PARTICLE MESH EWALD (PME) ACTIVE
Info: PME TOLERANCE               1e-06
Info: PME EWALD COEFFICIENT       0.348832
Info: PME INTERPOLATION ORDER     4
Info: PME GRID DIMENSIONS         40 36 36
Info: PME MAXIMUM GRID SPACING    1
Info: FULL ELECTROSTATIC EVALUATION FREQUENCY      2
Info: USING VERLET I (r-RESPA) MTS SCHEME.
Info: C1 SPLITTING OF LONG RANGE ELECTROSTATICS
Info: PLACING ATOMS IN PATCHES BY HYDROGEN GROUPS
Info: RIGID BONDS TO HYDROGEN : ALL
Info:         ERROR TOLERANCE : 1e-08
Info:          MAX ITERATIONS : 100
Info: RIGID WATER USING SETTLE ALGORITHM
Info: RANDOM NUMBER SEED     1743234340
Info: USE HYDROGEN BONDS?    NO
Info: Using AMBER format force field!
Info: AMBER PARM FILE        mobley_3269819.prmtop
Info: COORDINATE PDB         mobley_3269819.pdb
Info: Exclusions will be read from PARM file!
Info: SCNB (VDW SCALING)     2
Info: USING ARITHMETIC MEAN TO COMBINE L-J SIGMA PARAMETERS
Info: BINARY COORDINATES     mobley_3269819_min.coor
Info: SUMMARY OF PARAMETERS:
Info: 7 BONDS
Info: 8 ANGLES
Info:   8 HARMONIC
Info:   0 COSINE-BASED
Info: 3 DIHEDRAL
Info: 0 IMPROPER
Info: 0 CROSSTERM
Info: 0 VDW
Info: 15 VDW_PAIRS
Info: 0 NBTHOLE_PAIRS
Info: STRUCTURE SUMMARY:
Info: 2932 ATOMS
Info: 2933 BONDS
Info: 36 ANGLES
Info: 64 DIHEDRALS
Info: 0 IMPROPERS
Info: 0 CROSSTERMS
Info: 3015 EXCLUSIONS
Info: 2913 RIGID BONDS
Info: 5883 DEGREES OF FREEDOM
Info: 989 HYDROGEN GROUPS
Info: 3 ATOMS IN LARGEST HYDROGEN GROUP
Info: 989 MIGRATION GROUPS
Info: 3 ATOMS IN LARGEST MIGRATION GROUP
Info: TOTAL MASS = 17870.8 amu
Info: TOTAL CHARGE = 0.000400005 e
Info: MASS DENSITY = 0.664116 g/cm^3
Info: ATOM DENSITY = 0.0656151 atoms/A^3
Info: ADDED 0 IMPLICIT EXCLUSIONS
Info: NONBONDED TABLE R-SQUARED SPACING: 0.0625
Info: NONBONDED TABLE SIZE: 705 POINTS
Info: REMOVING COM VELOCITY 0.127567 0.260483 -0.0178379
TCL: Running for 100000 steps
ETITLE: TS BOND ANGLE DIHED IMPRP ELECT VDW BOUNDARY MISC KINETIC TOTAL TEMP POTENTIAL TOTAL3 TEMPAVG PRESSURE GPRESSURE VOLUME PRESSAVG GPRESSAVG
ENERGY: 0 0.5998 0.5475 5.1365 0.0000 -13408.7661 2352.3726 0.0000 0.0000 1761.3501 -9288.7595 301.3264 -11050.1097 -9288.4110 301.3264 436.0637 469.8269 44684.8126 436.0637 469.8269
ENERGY: 100000 0.9079 0.6317 8.4306 0.0000 -13971.5044 2432.7903 0.0000 0.0000 176.4102 -11352.3337 30.1797 -11528.7439 -11351.8846 30.9002 -95.9241 -32.0609 29970.2727 3.3015 3.3169
TCL: Running 100000 steps at 60 kelvin.
TCL: Setting parameter langevinTemp to 60
TCL: Running for 100000 steps
ETITLE: TS BOND ANGLE DIHED IMPRP ELECT VDW BOUNDARY MISC KINETIC TOTAL TEMP POTENTIAL TOTAL3 TEMPAVG PRESSURE GPRESSURE VOLUME PRESSAVG GPRESSAVG
ENERGY: 100000 0.9079 0.6317 8.4306 0.0000 -13971.5044 2432.7903 0.0000 0.0000 176.3252 -11352.4187 30.1652 -11528.7439 -11351.9552 30.1652 -103.0582 -32.2255 29970.2727 -103.0582 -32.2255
ENERGY: 200000 1.9216 1.1055 9.0767 0.0000 -13706.0322 2187.8603 0.0000 0.0000 347.4482 -11158.6199 59.4404 -11506.0681 -11158.1758 60.0862 -1683.8403 -1632.6890 29240.1087 4.1714 4.1896
TCL: Running 100000 steps at 90 kelvin.
TCL: Setting parameter langevinTemp to 90
TCL: Running for 100000 steps
ETITLE: TS BOND ANGLE DIHED IMPRP ELECT VDW BOUNDARY MISC KINETIC TOTAL TEMP POTENTIAL TOTAL3 TEMPAVG PRESSURE GPRESSURE VOLUME PRESSAVG GPRESSAVG
ENERGY: 200000 1.9216 1.1055 9.0767 0.0000 -13706.0322 2187.8603 0.0000 0.0000 347.2744 -11158.7938 59.4106 -11506.0681 -11157.8537 59.4106 -1693.4201 -1633.4795 29240.1087 -1693.4201 -1633.4795
ENERGY: 300000 2.2859 2.7156 8.8482 0.0000 -13730.6683 2304.2461 0.0000 0.0000 522.9068 -10889.6657 89.4573 -11412.5725 -10887.8740 90.2662 39.1171 128.7628 28318.2301 3.6673 3.6356
TCL: Running 100000 steps at 120 kelvin.
TCL: Setting parameter langevinTemp to 120
TCL: Running for 100000 steps
ETITLE: TS BOND ANGLE DIHED IMPRP ELECT VDW BOUNDARY MISC KINETIC TOTAL TEMP POTENTIAL TOTAL3 TEMPAVG PRESSURE GPRESSURE VOLUME PRESSAVG GPRESSAVG
ENERGY: 300000 2.2859 2.7156 8.8482 0.0000 -13730.6683 2304.2461 0.0000 0.0000 522.6524 -10889.9202 89.4138 -11412.5725 -10888.9257 89.4138 74.1175 129.3591 28318.2301 74.1175 129.3591
ENERGY: 400000 3.1068 3.4282 8.4905 0.0000 -13584.9120 2227.2111 0.0000 0.0000 713.3224 -10629.3530 122.0330 -11342.6754 -10627.7105 119.7764 -500.2425 -468.6541 28520.6124 4.7884 4.7879
TCL: Running 100000 steps at 150 kelvin.
TCL: Setting parameter langevinTemp to 150
TCL: Running for 100000 steps
ETITLE: TS BOND ANGLE DIHED IMPRP ELECT VDW BOUNDARY MISC KINETIC TOTAL TEMP POTENTIAL TOTAL3 TEMPAVG PRESSURE GPRESSURE VOLUME PRESSAVG GPRESSAVG
ENERGY: 400000 3.1068 3.4282 8.4905 0.0000 -13584.9120 2227.2111 0.0000 0.0000 712.9832 -10629.6923 121.9750 -11342.6754 -10627.7798 121.9750 -527.1957 -469.4448 28520.6124 -527.1957 -469.4448
ENERGY: 500000 4.4516 4.4395 9.6824 0.0000 -13340.4705 2181.1473 0.0000 0.0000 882.8161 -10257.9337 151.0295 -11140.7498 -10254.7937 149.8359 -166.1216 -62.2842 28730.1148 3.9846 4.0539
TCL: Running 100000 steps at 180 kelvin.
TCL: Setting parameter langevinTemp to 180
TCL: Running for 100000 steps
ETITLE: TS BOND ANGLE DIHED IMPRP ELECT VDW BOUNDARY MISC KINETIC TOTAL TEMP POTENTIAL TOTAL3 TEMPAVG PRESSURE GPRESSURE VOLUME PRESSAVG GPRESSAVG
ENERGY: 500000 4.4516 4.4395 9.6824 0.0000 -13340.4705 2181.1473 0.0000 0.0000 882.3872 -10258.3626 150.9561 -11140.7498 -10256.6771 150.9561 -119.6455 -60.6831 28730.1148 -119.6455 -60.6831
ENERGY: 600000 3.5881 2.4866 7.8140 0.0000 -13058.4000 2139.7025 0.0000 0.0000 1048.0540 -9856.7548 179.2979 -10904.8087 -9854.8207 179.8613 585.3339 611.4761 28606.0268 5.5372 5.6858
TCL: Running 100000 steps at 210 kelvin.
TCL: Setting parameter langevinTemp to 210
TCL: Running for 100000 steps
ETITLE: TS BOND ANGLE DIHED IMPRP ELECT VDW BOUNDARY MISC KINETIC TOTAL TEMP POTENTIAL TOTAL3 TEMPAVG PRESSURE GPRESSURE VOLUME PRESSAVG GPRESSAVG
ENERGY: 600000 3.5881 2.4866 7.8140 0.0000 -13058.4000 2139.7025 0.0000 0.0000 1047.5254 -9857.2833 179.2075 -10904.8087 -9856.0373 179.2075 556.0939 611.7943 28606.0268 556.0939 611.7943
ENERGY: 700000 3.3812 3.9633 7.8380 0.0000 -12323.1372 1910.6844 0.0000 0.0000 1250.8274 -9146.4428 213.9878 -10397.2703 -9144.0553 209.7656 848.7236 888.4882 28329.5708 3.8921 3.7991
TCL: Running 100000 steps at 240 kelvin.
TCL: Setting parameter langevinTemp to 240
TCL: Running for 100000 steps
ETITLE: TS BOND ANGLE DIHED IMPRP ELECT VDW BOUNDARY MISC KINETIC TOTAL TEMP POTENTIAL TOTAL3 TEMPAVG PRESSURE GPRESSURE VOLUME PRESSAVG GPRESSAVG
ENERGY: 700000 3.3812 3.9633 7.8380 0.0000 -12323.1372 1910.6844 0.0000 0.0000 1250.2185 -9147.0518 213.8836 -10397.2703 -9145.0117 213.8836 797.2888 887.0017 28329.5708 797.2888 887.0017
ENERGY: 800000 4.3862 3.1307 8.8797 0.0000 -11774.9498 1803.8464 0.0000 0.0000 1404.4870 -8550.2198 240.2754 -9954.7067 -8547.3290 240.1325 812.1176 945.5008 29042.4829 3.7914 3.8478
TCL: Running 100000 steps at 270 kelvin.
TCL: Setting parameter langevinTemp to 270
TCL: Running for 100000 steps
ETITLE: TS BOND ANGLE DIHED IMPRP ELECT VDW BOUNDARY MISC KINETIC TOTAL TEMP POTENTIAL TOTAL3 TEMPAVG PRESSURE GPRESSURE VOLUME PRESSAVG GPRESSAVG
ENERGY: 800000 4.3862 3.1307 8.8797 0.0000 -11774.9498 1803.8464 0.0000 0.0000 1403.8013 -8550.9054 240.1581 -9954.7067 -8548.4876 240.1581 841.6353 945.4049 29042.4829 841.6353 945.4049
ENERGY: 900000 8.0411 3.0648 10.3970 0.0000 -11163.7892 1558.5858 0.0000 0.0000 1559.5558 -8024.1447 266.8041 -9583.7005 -8019.6012 270.0038 14.3219 38.6370 29226.7829 4.0212 4.0317
TCL: Running 1000000 steps at 300 kelvin.
TCL: Setting parameter langevinTemp to 300
TCL: Running for 1000000 steps
ETITLE: TS BOND ANGLE DIHED IMPRP ELECT VDW BOUNDARY MISC KINETIC TOTAL TEMP POTENTIAL TOTAL3 TEMPAVG PRESSURE GPRESSURE VOLUME PRESSAVG GPRESSAVG
ENERGY: 900000 8.0411 3.0648 10.3970 0.0000 -11163.7892 1558.5858 0.0000 0.0000 1558.7943 -8024.9062 266.6738 -9583.7005 -8022.7308 266.6738 -35.9948 40.8974 29226.7829 -35.9948 40.8974
ENERGY: 1100000 6.1740 5.3203 7.5216 0.0000 -10536.2858 1403.1926 0.0000 0.0000 1732.4318 -7381.6454 296.3792 -9114.0772 -7375.9918 300.2672 -115.6247 -53.2422 30547.0137 4.2671 4.0018
ENERGY: 1300000 6.3790 5.3248 13.2112 0.0000 -10595.6329 1407.1612 0.0000 0.0000 1785.1744 -7378.3823 305.4022 -9163.5566 -7375.9537 300.1231 60.4505 101.3350 30189.9150 3.5468 3.2791
ENERGY: 1500000 7.9031 6.6442 11.4363 0.0000 -10500.4286 1379.4371 0.0000 0.0000 1800.8062 -7294.2018 308.0765 -9095.0080 -7292.9529 301.0022 -87.5165 -99.6413 30415.2963 2.7291 2.5592
ENERGY: 1700000 5.8627 5.6484 10.9459 0.0000 -10612.8021 1406.7056 0.0000 0.0000 1764.0255 -7419.6141 301.7841 -9183.6395 -7415.3420 300.1303 239.4235 357.7449 29914.9752 3.6672 3.6456
ENERGY: 1900000 8.6713 5.6288 12.6887 0.0000 -10436.6562 1363.9088 0.0000 0.0000 1783.9672 -7261.7913 305.1957 -9045.7585 -7257.6390 300.3873 -532.7647 -465.2793 30898.1971 3.4440 3.5657
TCL: Exiting due to exit command.
