Info: SIMULATION PARAMETERS:
Info: TIMESTEP               2
Info: NUMBER OF STEPS        0
Info: STEPS PER CYCLE        10
Info: PERIODIC CELL BASIS 1  32.955 0 0
Info: PERIODIC CELL BASIS 2  0 40.343 0
Info: PERIODIC CELL BASIS 3  0 0 32.993
Info: PERIODIC CELL CENTER   0 0 0
Info: WRAPPING WATERS AROUND PERIODIC BOUNDARIES ON OUTPUT.
Info: WRAPPING ALL CLUSTERS AROUND PERIODIC BOUNDARIES ON OUTPUT.
Info: FIRST LDB TIMESTEP     50
Info: LAST LDB TIMESTEP     -1
Info: HOM BACKGROUND SCALING 1
Info: PME BACKGROUND SCALING 1
Info: MIN ATOMS PER PATCH    40
Info: EMPTY PATCH LOAD       40 ATOMS
Info: INITIAL TEMPERATURE    300
Info: CENTER OF MASS MOVING INITIALLY? NO
Info: DIELECTRIC             1
Info: EXCLUDE                SCALED ONE-FOUR
Info: 1-4 ELECTROSTATICS SCALED BY 0.833333
Info: MODIFIED 1-4 VDW PARAMETERS WILL BE USED
Info: DCD FILENAME           mobley_1976156_equil.dcd
Info: DCD FREQUENCY          100000
Info: DCD FIRST STEP         100000
Info: DCD FILE WILL CONTAIN UNIT CELL DATA
Info: XST FILENAME           mobley_1976156_equil.xst
Info: XST FREQUENCY          100000
Info: NO VELOCITY DCD OUTPUT
Info: NO FORCE DCD OUTPUT
Info: OUTPUT FILENAME        mobley_1976156_equil
Info: BINARY OUTPUT FILES WILL BE USED
Info: RESTART FILENAME       mobley_1976156_equil.restart
Info: RESTART FREQUENCY      100000
Info: BINARY RESTART FILES WILL BE USED
Info: CUTOFF                 9
Info: PAIRLIST DISTANCE      11
Info: PAIRLIST SHRINK RATE   0.01
Info: PAIRLIST GROW RATE     0.01
Info: PAIRLIST TRIGGER       0.3
Info: PAIRLISTS PER CYCLE    2
Info: PAIRLISTS ENABLED
Info: MARGIN                 8
Info: HYDROGEN GROUP CUTOFF  2.5
Info: PATCH DIMENSION        21.5
Info: ENERGY OUTPUT STEPS    100000
Info: ENERGY EVALUATION STEPS    100000
Info: OUTPUT ENERGY PRECISION 4
Info: CROSSTERM ENERGY INCLUDED IN DIHEDRAL
Info: TIMING OUTPUT STEPS    1000000
Info: PRESSURE OUTPUT STEPS  100000
Info: LANGEVIN DYNAMICS ACTIVE
Info: LANGEVIN TEMPERATURE   30
Info: LANGEVIN USING BBK INTEGRATOR
Info: LANGEVIN DAMPING COEFFICIENT IS 1 INVERSE PS
Info: LANGEVIN DYNAMICS APPLIED TO HYDROGENS
Info: LANGEVIN PISTON PRESSURE CONTROL ACTIVE
Info:        TARGET PRESSURE IS 1.01325 BAR
Info:     OSCILLATION PERIOD IS 50 FS
Info:             DECAY TIME IS 25 FS
Info:     PISTON TEMPERATURE IS 300 K
Info:       PRESSURE CONTROL IS GROUP-BASED
Info:    INITIAL STRAIN RATE IS 0 0 0
Info:       CELL FLUCTUATION IS ISOTROPIC
Info: PARTICLE MESH EWALD (PME) ACTIVE
Info: PME TOLERANCE               1e-06
Info: PME EWALD COEFFICIENT       0.348832
Info: PME INTERPOLATION ORDER     4
Info: PME GRID DIMENSIONS         36 44 36
Info: PME MAXIMUM GRID SPACING    1
Info: FULL ELECTROSTATIC EVALUATION FREQUENCY      2
Info: USING VERLET I (r-RESPA) MTS SCHEME.
Info: C1 SPLITTING OF LONG RANGE ELECTROSTATICS
Info: PLACING ATOMS IN PATCHES BY HYDROGEN GROUPS
Info: RIGID BONDS TO HYDROGEN : ALL
Info:         ERROR TOLERANCE : 1e-08
Info:          MAX ITERATIONS : 100
Info: RIGID WATER USING SETTLE ALGORITHM
Info: RANDOM NUMBER SEED     1743263270
Info: USE HYDROGEN BONDS?    NO
Info: Using AMBER format force field!
Info: AMBER PARM FILE        mobley_1976156.prmtop
Info: COORDINATE PDB         mobley_1976156.pdb
Info: Exclusions will be read from PARM file!
Info: SCNB (VDW SCALING)     2
Info: USING ARITHMETIC MEAN TO COMBINE L-J SIGMA PARAMETERS
Info: BINARY COORDINATES     mobley_1976156_min.coor
Info: SUMMARY OF PARAMETERS:
Info: 7 BONDS
Info: 8 ANGLES
Info:   8 HARMONIC
Info:   0 COSINE-BASED
Info: 11 DIHEDRAL
Info: 0 IMPROPER
Info: 0 CROSSTERM
Info: 0 VDW
Info: 28 VDW_PAIRS
Info: 0 NBTHOLE_PAIRS
Info: STRUCTURE SUMMARY:
Info: 2974 ATOMS
Info: 2973 BONDS
Info: 51 ANGLES
Info: 84 DIHEDRALS
Info: 0 IMPROPERS
Info: 0 CROSSTERMS
Info: 3093 EXCLUSIONS
Info: 2964 RIGID BONDS
Info: 5958 DEGREES OF FREEDOM
Info: 992 HYDROGEN GROUPS
Info: 4 ATOMS IN LARGEST HYDROGEN GROUP
Info: 992 MIGRATION GROUPS
Info: 4 ATOMS IN LARGEST MIGRATION GROUP
Info: TOTAL MASS = 17833.9 amu
Info: TOTAL CHARGE = 9.99896e-05 e
Info: MASS DENSITY = 0.675142 g/cm^3
Info: ATOM DENSITY = 0.0678 atoms/A^3
Info: ADDED 0 IMPLICIT EXCLUSIONS
Info: NONBONDED TABLE R-SQUARED SPACING: 0.0625
Info: NONBONDED TABLE SIZE: 705 POINTS
Info: REMOVING COM VELOCITY -0.158754 -0.269077 0.174371
TCL: Running for 100000 steps
ETITLE: TS BOND ANGLE DIHED IMPRP ELECT VDW BOUNDARY MISC KINETIC TOTAL TEMP POTENTIAL TOTAL3 TEMPAVG PRESSURE GPRESSURE VOLUME PRESSAVG GPRESSAVG
ENERGY: 0 0.1754 0.3760 3.0356 0.0000 -13703.4858 2406.5922 0.0000 0.0000 1794.7589 -9498.5478 303.1768 -11293.3066 -9498.1660 303.1768 347.3818 394.9537 43864.3111 347.3818 394.9537
ENERGY: 100000 0.4350 1.5784 3.7946 0.0000 -14133.4773 2361.4679 0.0000 0.0000 177.3916 -11588.8099 29.9656 -11766.2015 -11588.2272 30.9509 -1015.0618 -974.6505 29318.4661 4.8688 4.8758
TCL: Running 100000 steps at 60 kelvin.
TCL: Setting parameter langevinTemp to 60
TCL: Running for 100000 steps
ETITLE: TS BOND ANGLE DIHED IMPRP ELECT VDW BOUNDARY MISC KINETIC TOTAL TEMP POTENTIAL TOTAL3 TEMPAVG PRESSURE GPRESSURE VOLUME PRESSAVG GPRESSAVG
ENERGY: 100000 0.4350 1.5784 3.7946 0.0000 -14133.4773 2361.4679 0.0000 0.0000 177.3056 -11588.8959 29.9511 -11766.2015 -11588.4571 29.9511 -1026.0135 -974.8175 29318.4661 -1026.0135 -974.8175
ENERGY: 200000 0.5302 2.0850 3.3566 0.0000 -14303.0450 2556.9279 0.0000 0.0000 351.8694 -11388.2760 59.4390 -11740.1453 -11387.5367 60.0597 853.6329 924.6242 28882.9247 4.0944 4.1029
TCL: Running 100000 steps at 90 kelvin.
TCL: Setting parameter langevinTemp to 90
TCL: Running for 100000 steps
ETITLE: TS BOND ANGLE DIHED IMPRP ELECT VDW BOUNDARY MISC KINETIC TOTAL TEMP POTENTIAL TOTAL3 TEMPAVG PRESSURE GPRESSURE VOLUME PRESSAVG GPRESSAVG
ENERGY: 200000 0.5302 2.0850 3.3566 0.0000 -14303.0450 2556.9279 0.0000 0.0000 351.6902 -11388.4551 59.4087 -11740.1453 -11387.7140 59.4087 873.9862 924.4344 28882.9247 873.9862 924.4344
ENERGY: 300000 0.6182 3.1534 3.5955 0.0000 -14055.0062 2447.1206 0.0000 0.0000 539.4767 -11061.0418 91.1302 -11600.5185 -11059.6061 89.9809 590.3260 639.3553 28757.7181 3.9192 3.8999
TCL: Running 100000 steps at 120 kelvin.
TCL: Setting parameter langevinTemp to 120
TCL: Running for 100000 steps
ETITLE: TS BOND ANGLE DIHED IMPRP ELECT VDW BOUNDARY MISC KINETIC TOTAL TEMP POTENTIAL TOTAL3 TEMPAVG PRESSURE GPRESSURE VOLUME PRESSAVG GPRESSAVG
ENERGY: 300000 0.6182 3.1534 3.5955 0.0000 -14055.0062 2447.1206 0.0000 0.0000 539.2216 -11061.2969 91.0872 -11600.5185 -11060.0423 91.0872 589.3723 638.9223 28757.7181 589.3723 638.9223
ENERGY: 400000 1.5577 5.9272 3.7907 0.0000 -13663.9972 2191.9599 0.0000 0.0000 702.4848 -10758.2768 118.6661 -11460.7617 -10755.7083 120.0788 -1201.1958 -1143.9932 29249.4232 3.0077 2.9523
TCL: Running 100000 steps at 150 kelvin.
TCL: Setting parameter langevinTemp to 150
TCL: Running for 100000 steps
ETITLE: TS BOND ANGLE DIHED IMPRP ELECT VDW BOUNDARY MISC KINETIC TOTAL TEMP POTENTIAL TOTAL3 TEMPAVG PRESSURE GPRESSURE VOLUME PRESSAVG GPRESSAVG
ENERGY: 400000 1.5577 5.9272 3.7907 0.0000 -13663.9972 2191.9599 0.0000 0.0000 702.1267 -10758.6349 118.6057 -11460.7617 -10757.1013 118.6057 -1202.9794 -1143.0289 29249.4232 -1202.9794 -1143.0289
ENERGY: 500000 0.7601 7.9365 4.6180 0.0000 -13579.6190 2289.6886 0.0000 0.0000 902.3497 -10374.2661 152.4280 -11276.6158 -10372.4173 150.3405 524.8026 581.3988 29027.8662 3.5084 3.4084
TCL: Running 100000 steps at 180 kelvin.
TCL: Setting parameter langevinTemp to 180
TCL: Running for 100000 steps
ETITLE: TS BOND ANGLE DIHED IMPRP ELECT VDW BOUNDARY MISC KINETIC TOTAL TEMP POTENTIAL TOTAL3 TEMPAVG PRESSURE GPRESSURE VOLUME PRESSAVG GPRESSAVG
ENERGY: 500000 0.7601 7.9365 4.6180 0.0000 -13579.6190 2289.6886 0.0000 0.0000 901.9009 -10374.7149 152.3522 -11276.6158 -10373.2165 152.3522 526.7004 581.3450 29027.8662 526.7004 581.3450
ENERGY: 600000 0.7164 6.0453 4.1076 0.0000 -13182.9698 2153.8147 0.0000 0.0000 1084.3848 -9933.9010 183.1780 -11018.2858 -9929.5512 180.0157 193.1762 238.8082 29354.0548 2.3536 2.4678
TCL: Running 100000 steps at 210 kelvin.
TCL: Setting parameter langevinTemp to 210
TCL: Running for 100000 steps
ETITLE: TS BOND ANGLE DIHED IMPRP ELECT VDW BOUNDARY MISC KINETIC TOTAL TEMP POTENTIAL TOTAL3 TEMPAVG PRESSURE GPRESSURE VOLUME PRESSAVG GPRESSAVG
ENERGY: 600000 0.7164 6.0453 4.1076 0.0000 -13182.9698 2153.8147 0.0000 0.0000 1083.8910 -9934.3948 183.0946 -11018.2858 -9932.5573 183.0946 197.8526 239.7056 29354.0548 197.8526 239.7056
ENERGY: 700000 1.0105 7.4544 6.2443 0.0000 -12645.9547 2023.9339 0.0000 0.0000 1270.8044 -9336.5072 214.6686 -10607.3116 -9333.6633 209.8544 1290.2272 1357.3605 28497.2234 3.0597 3.1276
TCL: Running 100000 steps at 240 kelvin.
TCL: Setting parameter langevinTemp to 240
TCL: Running for 100000 steps
ETITLE: TS BOND ANGLE DIHED IMPRP ELECT VDW BOUNDARY MISC KINETIC TOTAL TEMP POTENTIAL TOTAL3 TEMPAVG PRESSURE GPRESSURE VOLUME PRESSAVG GPRESSAVG
ENERGY: 700000 1.0105 7.4544 6.2443 0.0000 -12645.9547 2023.9339 0.0000 0.0000 1270.2014 -9337.1102 214.5668 -10607.3116 -9335.2776 214.5668 1284.2530 1359.1784 28497.2234 1284.2530 1359.1784
ENERGY: 800000 2.7829 11.9077 4.9263 0.0000 -11845.6235 1673.8808 0.0000 0.0000 1441.7764 -8710.3495 243.5498 -10152.1259 -8708.1642 239.8647 -479.5500 -411.5811 29249.6873 2.2185 2.1980
TCL: Running 100000 steps at 270 kelvin.
TCL: Setting parameter langevinTemp to 270
TCL: Running for 100000 steps
ETITLE: TS BOND ANGLE DIHED IMPRP ELECT VDW BOUNDARY MISC KINETIC TOTAL TEMP POTENTIAL TOTAL3 TEMPAVG PRESSURE GPRESSURE VOLUME PRESSAVG GPRESSAVG
ENERGY: 800000 2.7829 11.9077 4.9263 0.0000 -11845.6235 1673.8808 0.0000 0.0000 1441.1119 -8711.0139 243.4376 -10152.1259 -8709.1796 243.4376 -483.0873 -413.4418 29249.6873 -483.0873 -413.4418
ENERGY: 900000 2.1723 7.9010 7.2796 0.0000 -11310.7739 1600.4944 0.0000 0.0000 1577.8416 -8115.0850 266.5344 -9692.9266 -8111.4804 269.8007 328.8450 452.0246 29469.0744 3.2753 3.1262
TCL: Running 1000000 steps at 300 kelvin.
TCL: Setting parameter langevinTemp to 300
TCL: Running for 1000000 steps
ETITLE: TS BOND ANGLE DIHED IMPRP ELECT VDW BOUNDARY MISC KINETIC TOTAL TEMP POTENTIAL TOTAL3 TEMPAVG PRESSURE GPRESSURE VOLUME PRESSAVG GPRESSAVG
ENERGY: 900000 2.1723 7.9010 7.2796 0.0000 -11310.7739 1600.4944 0.0000 0.0000 1577.0516 -8115.8749 266.4010 -9692.9266 -8113.5355 266.4010 373.2687 453.2109 29469.0744 373.2687 453.2109
ENERGY: 1100000 3.7524 12.8299 4.0937 0.0000 -10704.8316 1415.3514 0.0000 0.0000 1743.0450 -7525.7592 294.4411 -9268.8042 -7522.9773 299.9890 -40.6675 -24.2556 30450.9279 4.0623 3.9950
ENERGY: 1300000 1.6488 12.4555 6.3348 0.0000 -10724.9639 1405.8556 0.0000 0.0000 1793.5738 -7505.0955 302.9766 -9298.6693 -7502.0991 300.3759 -554.3057 -549.3536 31045.1013 4.0341 3.9814
ENERGY: 1500000 2.2618 16.0027 6.9632 0.0000 -10566.7289 1303.1797 0.0000 0.0000 1726.0702 -7512.2513 291.5737 -9238.3215 -7511.0310 300.3726 -1054.4667 -1010.7133 30992.5316 3.0249 3.0956
ENERGY: 1700000 4.0481 9.5844 5.6073 0.0000 -10780.4443 1423.3970 0.0000 0.0000 1843.3161 -7494.4913 311.3793 -9337.8074 -7489.6875 299.9818 -286.6401 -225.3042 30573.0845 3.3472 3.5220
ENERGY: 1900000 1.2954 11.3451 6.9682 0.0000 -10734.3637 1412.9541 0.0000 0.0000 1787.2322 -7514.5688 301.9054 -9301.8009 -7511.3695 299.7419 -257.5923 -153.7151 30459.6646 2.7315 2.8075
TCL: Exiting due to exit command.
