Info: SIMULATION PARAMETERS:
Info: TIMESTEP               2
Info: NUMBER OF STEPS        0
Info: STEPS PER CYCLE        10
Info: PERIODIC CELL BASIS 1  35.89 0 0
Info: PERIODIC CELL BASIS 2  0 33.542 0
Info: PERIODIC CELL BASIS 3  0 0 36.583
Info: PERIODIC CELL CENTER   0 0 0
Info: WRAPPING WATERS AROUND PERIODIC BOUNDARIES ON OUTPUT.
Info: WRAPPING ALL CLUSTERS AROUND PERIODIC BOUNDARIES ON OUTPUT.
Info: FIRST LDB TIMESTEP     50
Info: LAST LDB TIMESTEP     -1
Info: HOM BACKGROUND SCALING 1
Info: PME BACKGROUND SCALING 1
Info: MIN ATOMS PER PATCH    40
Info: EMPTY PATCH LOAD       40 ATOMS
Info: INITIAL TEMPERATURE    300
Info: CENTER OF MASS MOVING INITIALLY? NO
Info: DIELECTRIC             1
Info: EXCLUDE                SCALED ONE-FOUR
Info: 1-4 ELECTROSTATICS SCALED BY 0.833333
Info: MODIFIED 1-4 VDW PARAMETERS WILL BE USED
Info: DCD FILENAME           mobley_7200804_equil.dcd
Info: DCD FREQUENCY          100000
Info: DCD FIRST STEP         100000
Info: DCD FILE WILL CONTAIN UNIT CELL DATA
Info: XST FILENAME           mobley_7200804_equil.xst
Info: XST FREQUENCY          100000
Info: NO VELOCITY DCD OUTPUT
Info: NO FORCE DCD OUTPUT
Info: OUTPUT FILENAME        mobley_7200804_equil
Info: BINARY OUTPUT FILES WILL BE USED
Info: RESTART FILENAME       mobley_7200804_equil.restart
Info: RESTART FREQUENCY      100000
Info: BINARY RESTART FILES WILL BE USED
Info: CUTOFF                 9
Info: PAIRLIST DISTANCE      11
Info: PAIRLIST SHRINK RATE   0.01
Info: PAIRLIST GROW RATE     0.01
Info: PAIRLIST TRIGGER       0.3
Info: PAIRLISTS PER CYCLE    2
Info: PAIRLISTS ENABLED
Info: MARGIN                 8
Info: HYDROGEN GROUP CUTOFF  2.5
Info: PATCH DIMENSION        21.5
Info: ENERGY OUTPUT STEPS    100000
Info: ENERGY EVALUATION STEPS    100000
Info: OUTPUT ENERGY PRECISION 4
Info: CROSSTERM ENERGY INCLUDED IN DIHEDRAL
Info: TIMING OUTPUT STEPS    1000000
Info: PRESSURE OUTPUT STEPS  100000
Info: LANGEVIN DYNAMICS ACTIVE
Info: LANGEVIN TEMPERATURE   30
Info: LANGEVIN USING BBK INTEGRATOR
Info: LANGEVIN DAMPING COEFFICIENT IS 1 INVERSE PS
Info: LANGEVIN DYNAMICS APPLIED TO HYDROGENS
Info: LANGEVIN PISTON PRESSURE CONTROL ACTIVE
Info:        TARGET PRESSURE IS 1.01325 BAR
Info:     OSCILLATION PERIOD IS 50 FS
Info:             DECAY TIME IS 25 FS
Info:     PISTON TEMPERATURE IS 300 K
Info:       PRESSURE CONTROL IS GROUP-BASED
Info:    INITIAL STRAIN RATE IS 0 0 0
Info:       CELL FLUCTUATION IS ISOTROPIC
Info: PARTICLE MESH EWALD (PME) ACTIVE
Info: PME TOLERANCE               1e-06
Info: PME EWALD COEFFICIENT       0.348832
Info: PME INTERPOLATION ORDER     4
Info: PME GRID DIMENSIONS         36 36 40
Info: PME MAXIMUM GRID SPACING    1
Info: FULL ELECTROSTATIC EVALUATION FREQUENCY      2
Info: USING VERLET I (r-RESPA) MTS SCHEME.
Info: C1 SPLITTING OF LONG RANGE ELECTROSTATICS
Info: PLACING ATOMS IN PATCHES BY HYDROGEN GROUPS
Info: RIGID BONDS TO HYDROGEN : ALL
Info:         ERROR TOLERANCE : 1e-08
Info:          MAX ITERATIONS : 100
Info: RIGID WATER USING SETTLE ALGORITHM
Info: RANDOM NUMBER SEED     1743208712
Info: USE HYDROGEN BONDS?    NO
Info: Using AMBER format force field!
Info: AMBER PARM FILE        mobley_7200804.prmtop
Info: COORDINATE PDB         mobley_7200804.pdb
Info: Exclusions will be read from PARM file!
Info: SCNB (VDW SCALING)     2
Info: USING ARITHMETIC MEAN TO COMBINE L-J SIGMA PARAMETERS
Info: BINARY COORDINATES     mobley_7200804_min.coor
Info: SUMMARY OF PARAMETERS:
Info: 7 BONDS
Info: 5 ANGLES
Info:   5 HARMONIC
Info:   0 COSINE-BASED
Info: 3 DIHEDRAL
Info: 0 IMPROPER
Info: 0 CROSSTERM
Info: 0 VDW
Info: 21 VDW_PAIRS
Info: 0 NBTHOLE_PAIRS
Info: STRUCTURE SUMMARY:
Info: 2953 ATOMS
Info: 2953 BONDS
Info: 19 ANGLES
Info: 32 DIHEDRALS
Info: 0 IMPROPERS
Info: 0 CROSSTERMS
Info: 2995 EXCLUSIONS
Info: 2945 RIGID BONDS
Info: 5914 DEGREES OF FREEDOM
Info: 988 HYDROGEN GROUPS
Info: 3 ATOMS IN LARGEST HYDROGEN GROUP
Info: 988 MIGRATION GROUPS
Info: 3 ATOMS IN LARGEST MIGRATION GROUP
Info: TOTAL MASS = 17767.8 amu
Info: TOTAL CHARGE = -0.000100017 e
Info: MASS DENSITY = 0.669963 g/cm^3
Info: ATOM DENSITY = 0.0670535 atoms/A^3
Info: ADDED 0 IMPLICIT EXCLUSIONS
Info: NONBONDED TABLE R-SQUARED SPACING: 0.0625
Info: NONBONDED TABLE SIZE: 705 POINTS
Info: REMOVING COM VELOCITY 0.0968771 0.113486 0.0408116
TCL: Running for 100000 steps
ETITLE: TS BOND ANGLE DIHED IMPRP ELECT VDW BOUNDARY MISC KINETIC TOTAL TEMP POTENTIAL TOTAL3 TEMPAVG PRESSURE GPRESSURE VOLUME PRESSAVG GPRESSAVG
ENERGY: 0 0.1518 0.0987 0.2070 0.0000 -13702.2631 2426.2565 0.0000 0.0000 1755.5872 -9519.9618 298.7662 -11275.5490 -9519.6051 298.7662 529.4974 557.4187 44039.4341 529.4974 557.4187
ENERGY: 100000 0.8229 0.6331 0.5971 0.0000 -14258.8520 2500.8417 0.0000 0.0000 176.2707 -11579.6866 29.9978 -11755.9573 -11579.3079 30.9399 -87.7751 -38.5755 29394.2039 2.7991 2.9349
TCL: Running 100000 steps at 60 kelvin.
TCL: Setting parameter langevinTemp to 60
TCL: Running for 100000 steps
ETITLE: TS BOND ANGLE DIHED IMPRP ELECT VDW BOUNDARY MISC KINETIC TOTAL TEMP POTENTIAL TOTAL3 TEMPAVG PRESSURE GPRESSURE VOLUME PRESSAVG GPRESSAVG
ENERGY: 100000 0.8229 0.6331 0.5971 0.0000 -14258.8520 2500.8417 0.0000 0.0000 176.1836 -11579.7737 29.9830 -11755.9573 -11579.4158 29.9830 -83.1976 -38.5274 29394.2039 -83.1976 -38.5274
ENERGY: 200000 0.6523 0.2416 0.2572 0.0000 -13989.5583 2325.4852 0.0000 0.0000 360.3313 -11302.5908 61.3213 -11662.9220 -11302.5863 59.9304 -1115.4931 -1067.7277 29543.8918 3.8885 3.8917
TCL: Running 100000 steps at 90 kelvin.
TCL: Setting parameter langevinTemp to 90
TCL: Running for 100000 steps
ETITLE: TS BOND ANGLE DIHED IMPRP ELECT VDW BOUNDARY MISC KINETIC TOTAL TEMP POTENTIAL TOTAL3 TEMPAVG PRESSURE GPRESSURE VOLUME PRESSAVG GPRESSAVG
ENERGY: 200000 0.6523 0.2416 0.2572 0.0000 -13989.5583 2325.4852 0.0000 0.0000 360.1533 -11302.7688 61.2910 -11662.9220 -11301.8164 61.2910 -1125.5667 -1068.4528 29543.8918 -1125.5667 -1068.4528
ENERGY: 300000 1.1922 0.5758 0.4646 0.0000 -13970.7733 2362.2552 0.0000 0.0000 508.0992 -11098.1863 86.4684 -11606.2855 -11097.0181 89.9241 -486.2041 -411.0229 29121.3994 4.3040 4.2628
TCL: Running 100000 steps at 120 kelvin.
TCL: Setting parameter langevinTemp to 120
TCL: Running for 100000 steps
ETITLE: TS BOND ANGLE DIHED IMPRP ELECT VDW BOUNDARY MISC KINETIC TOTAL TEMP POTENTIAL TOTAL3 TEMPAVG PRESSURE GPRESSURE VOLUME PRESSAVG GPRESSAVG
ENERGY: 300000 1.1922 0.5758 0.4646 0.0000 -13970.7733 2362.2552 0.0000 0.0000 507.8483 -11098.4372 86.4257 -11606.2855 -11097.1689 86.4257 -479.8988 -410.8446 29121.3994 -479.8988 -410.8446
ENERGY: 400000 0.8604 1.1886 2.1502 0.0000 -13703.2889 2268.9868 0.0000 0.0000 718.7194 -10711.3835 122.3118 -11430.1029 -10709.7174 120.1184 -540.1771 -546.9107 29358.5633 3.8921 4.0471
TCL: Running 100000 steps at 150 kelvin.
TCL: Setting parameter langevinTemp to 150
TCL: Running for 100000 steps
ETITLE: TS BOND ANGLE DIHED IMPRP ELECT VDW BOUNDARY MISC KINETIC TOTAL TEMP POTENTIAL TOTAL3 TEMPAVG PRESSURE GPRESSURE VOLUME PRESSAVG GPRESSAVG
ENERGY: 400000 0.8604 1.1886 2.1502 0.0000 -13703.2889 2268.9868 0.0000 0.0000 718.3633 -10711.7396 122.2512 -11430.1029 -10710.0236 122.2512 -594.7748 -547.2879 29358.5633 -594.7748 -547.2879
ENERGY: 500000 1.8684 1.2088 0.8235 0.0000 -13531.9511 2237.7551 0.0000 0.0000 849.1310 -10441.1643 144.5053 -11290.2953 -10439.8758 149.9370 -265.9105 -214.2082 28998.8371 2.4779 2.4069
TCL: Running 100000 steps at 180 kelvin.
TCL: Setting parameter langevinTemp to 180
TCL: Running for 100000 steps
ETITLE: TS BOND ANGLE DIHED IMPRP ELECT VDW BOUNDARY MISC KINETIC TOTAL TEMP POTENTIAL TOTAL3 TEMPAVG PRESSURE GPRESSURE VOLUME PRESSAVG GPRESSAVG
ENERGY: 500000 1.8684 1.2088 0.8235 0.0000 -13531.9511 2237.7551 0.0000 0.0000 848.7140 -10441.5813 144.4343 -11290.2953 -10439.5482 144.4343 -258.9929 -215.8455 28998.8371 -258.9929 -215.8455
ENERGY: 600000 2.5246 1.9845 1.6766 0.0000 -13210.8764 2188.6292 0.0000 0.0000 1080.3776 -9935.6840 183.8589 -11016.0616 -9932.5082 179.7105 330.8526 387.8944 28890.9713 4.7674 4.8075
TCL: Running 100000 steps at 210 kelvin.
TCL: Setting parameter langevinTemp to 210
TCL: Running for 100000 steps
ETITLE: TS BOND ANGLE DIHED IMPRP ELECT VDW BOUNDARY MISC KINETIC TOTAL TEMP POTENTIAL TOTAL3 TEMPAVG PRESSURE GPRESSURE VOLUME PRESSAVG GPRESSAVG
ENERGY: 600000 2.5246 1.9845 1.6766 0.0000 -13210.8764 2188.6292 0.0000 0.0000 1079.8508 -9936.2108 183.7692 -11016.0616 -9934.0605 183.7692 343.6319 388.4510 28890.9713 343.6319 388.4510
ENERGY: 700000 1.5018 2.2273 2.4921 0.0000 -12479.0364 1957.5532 0.0000 0.0000 1234.7841 -9280.4779 210.1358 -10515.2621 -9278.6860 210.3981 641.2653 720.6346 28623.0327 4.5721 4.4252
TCL: Running 100000 steps at 240 kelvin.
TCL: Setting parameter langevinTemp to 240
TCL: Running for 100000 steps
ETITLE: TS BOND ANGLE DIHED IMPRP ELECT VDW BOUNDARY MISC KINETIC TOTAL TEMP POTENTIAL TOTAL3 TEMPAVG PRESSURE GPRESSURE VOLUME PRESSAVG GPRESSAVG
ENERGY: 700000 1.5018 2.2273 2.4921 0.0000 -12479.0364 1957.5532 0.0000 0.0000 1234.1783 -9281.0838 210.0327 -10515.2621 -9278.3840 210.0327 640.2222 720.5272 28623.0327 640.2222 720.5272
ENERGY: 800000 1.8310 2.5971 2.1230 0.0000 -11678.8942 1567.3382 0.0000 0.0000 1420.7420 -8684.2628 241.7822 -10105.0048 -8680.1947 239.6548 -1512.6110 -1404.8124 29145.5568 2.6583 2.5697
TCL: Running 100000 steps at 270 kelvin.
TCL: Setting parameter langevinTemp to 270
TCL: Running for 100000 steps
ETITLE: TS BOND ANGLE DIHED IMPRP ELECT VDW BOUNDARY MISC KINETIC TOTAL TEMP POTENTIAL TOTAL3 TEMPAVG PRESSURE GPRESSURE VOLUME PRESSAVG GPRESSAVG
ENERGY: 800000 1.8310 2.5971 2.1230 0.0000 -11678.8942 1567.3382 0.0000 0.0000 1420.0905 -8684.9143 241.6713 -10105.0048 -8682.8772 241.6713 -1502.0023 -1404.6107 29145.5568 -1502.0023 -1404.6107
ENERGY: 900000 2.7218 2.2140 1.9455 0.0000 -11170.9380 1556.8242 0.0000 0.0000 1593.7584 -8013.4741 271.2261 -9607.2325 -8010.3043 269.8465 351.4323 406.2760 29327.7828 2.2567 2.1832
TCL: Running 1000000 steps at 300 kelvin.
TCL: Setting parameter langevinTemp to 300
TCL: Running for 1000000 steps
ETITLE: TS BOND ANGLE DIHED IMPRP ELECT VDW BOUNDARY MISC KINETIC TOTAL TEMP POTENTIAL TOTAL3 TEMPAVG PRESSURE GPRESSURE VOLUME PRESSAVG GPRESSAVG
ENERGY: 900000 2.7218 2.2140 1.9455 0.0000 -11170.9380 1556.8242 0.0000 0.0000 1592.9601 -8014.2724 271.0903 -9607.2325 -8011.9031 271.0903 322.6908 406.3858 29327.7828 322.6908 406.3858
ENERGY: 1100000 2.6989 4.0296 5.3114 0.0000 -10622.9635 1404.9373 0.0000 0.0000 1791.1184 -7414.8680 304.8129 -9205.9864 -7413.3769 300.7777 -415.8320 -313.8513 30894.0169 3.8847 3.8630
ENERGY: 1300000 1.2742 4.2492 5.8829 0.0000 -10575.7252 1426.5651 0.0000 0.0000 1729.9158 -7407.8380 294.3974 -9137.7539 -7403.5554 300.7535 54.6780 34.2966 30921.4782 3.7148 3.8750
ENERGY: 1500000 0.5027 2.4291 2.2462 0.0000 -10770.6033 1476.7768 0.0000 0.0000 1835.6425 -7453.0060 312.3900 -9288.6485 -7451.2639 299.6853 496.2097 554.1684 29952.7547 2.8296 2.8519
ENERGY: 1700000 4.0316 0.7915 2.3484 0.0000 -10740.4235 1460.1723 0.0000 0.0000 1727.3846 -7545.6951 293.9667 -9273.0797 -7544.8276 300.5656 -170.8468 -19.6229 30534.3618 3.7696 3.6349
ENERGY: 1900000 0.4782 3.6068 5.6895 0.0000 -10756.7107 1491.3440 0.0000 0.0000 1781.8875 -7473.7046 303.2420 -9255.5921 -7468.4142 299.6082 344.5769 392.3182 30525.5507 2.1869 2.1359
TCL: Exiting due to exit command.
