Info: SIMULATION PARAMETERS:
Info: TIMESTEP               2
Info: NUMBER OF STEPS        0
Info: STEPS PER CYCLE        10
Info: PERIODIC CELL BASIS 1  32.955 0 0
Info: PERIODIC CELL BASIS 2  0 39.303 0
Info: PERIODIC CELL BASIS 3  0 0 34.229
Info: PERIODIC CELL CENTER   0 0 0
Info: WRAPPING WATERS AROUND PERIODIC BOUNDARIES ON OUTPUT.
Info: WRAPPING ALL CLUSTERS AROUND PERIODIC BOUNDARIES ON OUTPUT.
Info: FIRST LDB TIMESTEP     50
Info: LAST LDB TIMESTEP     -1
Info: HOM BACKGROUND SCALING 1
Info: PME BACKGROUND SCALING 1
Info: MIN ATOMS PER PATCH    40
Info: EMPTY PATCH LOAD       40 ATOMS
Info: INITIAL TEMPERATURE    300
Info: CENTER OF MASS MOVING INITIALLY? NO
Info: DIELECTRIC             1
Info: EXCLUDE                SCALED ONE-FOUR
Info: 1-4 ELECTROSTATICS SCALED BY 0.833333
Info: MODIFIED 1-4 VDW PARAMETERS WILL BE USED
Info: DCD FILENAME           mobley_4694328_equil.dcd
Info: DCD FREQUENCY          100000
Info: DCD FIRST STEP         100000
Info: DCD FILE WILL CONTAIN UNIT CELL DATA
Info: XST FILENAME           mobley_4694328_equil.xst
Info: XST FREQUENCY          100000
Info: NO VELOCITY DCD OUTPUT
Info: NO FORCE DCD OUTPUT
Info: OUTPUT FILENAME        mobley_4694328_equil
Info: BINARY OUTPUT FILES WILL BE USED
Info: RESTART FILENAME       mobley_4694328_equil.restart
Info: RESTART FREQUENCY      100000
Info: BINARY RESTART FILES WILL BE USED
Info: CUTOFF                 9
Info: PAIRLIST DISTANCE      11
Info: PAIRLIST SHRINK RATE   0.01
Info: PAIRLIST GROW RATE     0.01
Info: PAIRLIST TRIGGER       0.3
Info: PAIRLISTS PER CYCLE    2
Info: PAIRLISTS ENABLED
Info: MARGIN                 8
Info: HYDROGEN GROUP CUTOFF  2.5
Info: PATCH DIMENSION        21.5
Info: ENERGY OUTPUT STEPS    100000
Info: ENERGY EVALUATION STEPS    100000
Info: OUTPUT ENERGY PRECISION 4
Info: CROSSTERM ENERGY INCLUDED IN DIHEDRAL
Info: TIMING OUTPUT STEPS    1000000
Info: PRESSURE OUTPUT STEPS  100000
Info: LANGEVIN DYNAMICS ACTIVE
Info: LANGEVIN TEMPERATURE   30
Info: LANGEVIN USING BBK INTEGRATOR
Info: LANGEVIN DAMPING COEFFICIENT IS 1 INVERSE PS
Info: LANGEVIN DYNAMICS APPLIED TO HYDROGENS
Info: LANGEVIN PISTON PRESSURE CONTROL ACTIVE
Info:        TARGET PRESSURE IS 1.01325 BAR
Info:     OSCILLATION PERIOD IS 50 FS
Info:             DECAY TIME IS 25 FS
Info:     PISTON TEMPERATURE IS 300 K
Info:       PRESSURE CONTROL IS GROUP-BASED
Info:    INITIAL STRAIN RATE IS 0 0 0
Info:       CELL FLUCTUATION IS ISOTROPIC
Info: PARTICLE MESH EWALD (PME) ACTIVE
Info: PME TOLERANCE               1e-06
Info: PME EWALD COEFFICIENT       0.348832
Info: PME INTERPOLATION ORDER     4
Info: PME GRID DIMENSIONS         36 40 36
Info: PME MAXIMUM GRID SPACING    1
Info: FULL ELECTROSTATIC EVALUATION FREQUENCY      2
Info: USING VERLET I (r-RESPA) MTS SCHEME.
Info: C1 SPLITTING OF LONG RANGE ELECTROSTATICS
Info: PLACING ATOMS IN PATCHES BY HYDROGEN GROUPS
Info: RIGID BONDS TO HYDROGEN : ALL
Info:         ERROR TOLERANCE : 1e-08
Info:          MAX ITERATIONS : 100
Info: RIGID WATER USING SETTLE ALGORITHM
Info: RANDOM NUMBER SEED     1743261160
Info: USE HYDROGEN BONDS?    NO
Info: Using AMBER format force field!
Info: AMBER PARM FILE        mobley_4694328.prmtop
Info: COORDINATE PDB         mobley_4694328.pdb
Info: Exclusions will be read from PARM file!
Info: SCNB (VDW SCALING)     2
Info: USING ARITHMETIC MEAN TO COMBINE L-J SIGMA PARAMETERS
Info: BINARY COORDINATES     mobley_4694328_min.coor
Info: SUMMARY OF PARAMETERS:
Info: 7 BONDS
Info: 8 ANGLES
Info:   8 HARMONIC
Info:   0 COSINE-BASED
Info: 11 DIHEDRAL
Info: 0 IMPROPER
Info: 0 CROSSTERM
Info: 0 VDW
Info: 28 VDW_PAIRS
Info: 0 NBTHOLE_PAIRS
Info: STRUCTURE SUMMARY:
Info: 2962 ATOMS
Info: 2961 BONDS
Info: 45 ANGLES
Info: 73 DIHEDRALS
Info: 0 IMPROPERS
Info: 0 CROSSTERMS
Info: 3066 EXCLUSIONS
Info: 2953 RIGID BONDS
Info: 5933 DEGREES OF FREEDOM
Info: 988 HYDROGEN GROUPS
Info: 4 ATOMS IN LARGEST HYDROGEN GROUP
Info: 988 MIGRATION GROUPS
Info: 4 ATOMS IN LARGEST MIGRATION GROUP
Info: TOTAL MASS = 17765.9 amu
Info: TOTAL CHARGE = -0.000100016 e
Info: MASS DENSITY = 0.665433 g/cm^3
Info: ATOM DENSITY = 0.0668104 atoms/A^3
Info: ADDED 0 IMPLICIT EXCLUSIONS
Info: NONBONDED TABLE R-SQUARED SPACING: 0.0625
Info: NONBONDED TABLE SIZE: 705 POINTS
Info: REMOVING COM VELOCITY 0.128008 0.0768364 -0.0231007
TCL: Running for 100000 steps
ETITLE: TS BOND ANGLE DIHED IMPRP ELECT VDW BOUNDARY MISC KINETIC TOTAL TEMP POTENTIAL TOTAL3 TEMPAVG PRESSURE GPRESSURE VOLUME PRESSAVG GPRESSAVG
ENERGY: 0 0.1671 0.4406 2.5395 0.0000 -13638.3679 2414.6807 0.0000 0.0000 1788.6321 -9431.9080 303.4150 -11220.5401 -9431.5521 303.4150 543.4135 577.9633 44334.4402 543.4135 577.9633
ENERGY: 100000 0.3013 1.1013 4.0294 0.0000 -14139.1503 2368.0462 0.0000 0.0000 176.5115 -11589.1606 29.9426 -11765.6721 -11588.6407 30.9992 -751.0968 -688.6183 28355.2057 4.5439 4.5383
TCL: Running 100000 steps at 60 kelvin.
TCL: Setting parameter langevinTemp to 60
TCL: Running for 100000 steps
ETITLE: TS BOND ANGLE DIHED IMPRP ELECT VDW BOUNDARY MISC KINETIC TOTAL TEMP POTENTIAL TOTAL3 TEMPAVG PRESSURE GPRESSURE VOLUME PRESSAVG GPRESSAVG
ENERGY: 100000 0.3013 1.1013 4.0294 0.0000 -14139.1503 2368.0462 0.0000 0.0000 176.4237 -11589.2484 29.9277 -11765.6721 -11588.8592 29.9277 -742.8809 -688.6929 28355.2057 -742.8809 -688.6929
ENERGY: 200000 1.0063 2.6087 4.6098 0.0000 -14251.1968 2561.1612 0.0000 0.0000 347.7666 -11334.0440 58.9935 -11681.8107 -11333.3691 60.0451 1060.7966 1113.2924 28431.7991 3.7496 3.7718
TCL: Running 100000 steps at 90 kelvin.
TCL: Setting parameter langevinTemp to 90
TCL: Running for 100000 steps
ETITLE: TS BOND ANGLE DIHED IMPRP ELECT VDW BOUNDARY MISC KINETIC TOTAL TEMP POTENTIAL TOTAL3 TEMPAVG PRESSURE GPRESSURE VOLUME PRESSAVG GPRESSAVG
ENERGY: 200000 1.0063 2.6087 4.6098 0.0000 -14251.1968 2561.1612 0.0000 0.0000 347.5916 -11334.2190 58.9638 -11681.8107 -11333.4138 58.9638 1056.8848 1113.2535 28431.7991 1056.8848 1113.2535
ENERGY: 300000 0.6232 2.4650 4.3556 0.0000 -13952.3540 2331.1039 0.0000 0.0000 538.0556 -11075.7508 91.2732 -11613.8063 -11073.3781 90.0415 -500.8984 -448.5896 28507.7117 3.9668 3.8494
TCL: Running 100000 steps at 120 kelvin.
TCL: Setting parameter langevinTemp to 120
TCL: Running for 100000 steps
ETITLE: TS BOND ANGLE DIHED IMPRP ELECT VDW BOUNDARY MISC KINETIC TOTAL TEMP POTENTIAL TOTAL3 TEMPAVG PRESSURE GPRESSURE VOLUME PRESSAVG GPRESSAVG
ENERGY: 300000 0.6232 2.4650 4.3556 0.0000 -13952.3540 2331.1039 0.0000 0.0000 537.7968 -11076.0096 91.2293 -11613.8063 -11074.5950 91.2293 -499.3940 -447.8121 28507.7117 -499.3940 -447.8121
ENERGY: 400000 1.3762 4.0291 3.2458 0.0000 -13803.4507 2354.0668 0.0000 0.0000 724.2883 -10716.4446 122.8648 -11440.7328 -10715.1574 120.0146 376.3014 416.5548 28487.9122 3.7862 3.6734
TCL: Running 100000 steps at 150 kelvin.
TCL: Setting parameter langevinTemp to 150
TCL: Running for 100000 steps
ETITLE: TS BOND ANGLE DIHED IMPRP ELECT VDW BOUNDARY MISC KINETIC TOTAL TEMP POTENTIAL TOTAL3 TEMPAVG PRESSURE GPRESSURE VOLUME PRESSAVG GPRESSAVG
ENERGY: 400000 1.3762 4.0291 3.2458 0.0000 -13803.4507 2354.0668 0.0000 0.0000 723.9273 -10716.8055 122.8036 -11440.7328 -10715.5514 122.8036 368.5785 415.8410 28487.9122 368.5785 415.8410
ENERGY: 500000 0.6548 6.3422 3.2720 0.0000 -13579.2137 2292.8153 0.0000 0.0000 880.0812 -10396.0484 149.2928 -11276.1296 -10392.6143 149.9925 478.5738 504.3916 28697.5051 3.7073 3.5939
TCL: Running 100000 steps at 180 kelvin.
TCL: Setting parameter langevinTemp to 180
TCL: Running for 100000 steps
ETITLE: TS BOND ANGLE DIHED IMPRP ELECT VDW BOUNDARY MISC KINETIC TOTAL TEMP POTENTIAL TOTAL3 TEMPAVG PRESSURE GPRESSURE VOLUME PRESSAVG GPRESSAVG
ENERGY: 500000 0.6548 6.3422 3.2720 0.0000 -13579.2137 2292.8153 0.0000 0.0000 879.6252 -10396.5043 149.2154 -11276.1296 -10395.6014 149.2154 445.6842 506.0180 28697.5051 445.6842 506.0180
ENERGY: 600000 0.9035 6.9817 5.0078 0.0000 -13108.5997 2109.9084 0.0000 0.0000 1043.9903 -9941.8079 177.0975 -10985.7982 -9939.0177 179.9381 34.4649 132.3782 28831.6710 3.4483 3.4348
TCL: Running 100000 steps at 210 kelvin.
TCL: Setting parameter langevinTemp to 210
TCL: Running for 100000 steps
ETITLE: TS BOND ANGLE DIHED IMPRP ELECT VDW BOUNDARY MISC KINETIC TOTAL TEMP POTENTIAL TOTAL3 TEMPAVG PRESSURE GPRESSURE VOLUME PRESSAVG GPRESSAVG
ENERGY: 600000 0.9035 6.9817 5.0078 0.0000 -13108.5997 2109.9084 0.0000 0.0000 1043.4589 -9942.3393 177.0074 -10985.7982 -9940.2574 177.0074 65.2229 131.9169 28831.6710 65.2229 131.9169
ENERGY: 700000 3.4968 8.4558 4.0667 0.0000 -12394.8039 1884.6237 0.0000 0.0000 1236.8960 -9257.2649 209.8211 -10494.1609 -9253.8851 209.6394 -129.3005 -42.4440 28952.1944 3.0598 3.0606
TCL: Running 100000 steps at 240 kelvin.
TCL: Setting parameter langevinTemp to 240
TCL: Running for 100000 steps
ETITLE: TS BOND ANGLE DIHED IMPRP ELECT VDW BOUNDARY MISC KINETIC TOTAL TEMP POTENTIAL TOTAL3 TEMPAVG PRESSURE GPRESSURE VOLUME PRESSAVG GPRESSAVG
ENERGY: 700000 3.4968 8.4558 4.0667 0.0000 -12394.8039 1884.6237 0.0000 0.0000 1236.2603 -9257.9005 209.7133 -10494.1609 -9255.1838 209.7133 -107.9911 -41.9068 28952.1944 -107.9911 -41.9068
ENERGY: 800000 1.5588 9.2239 3.9054 0.0000 -11754.1997 1727.5729 0.0000 0.0000 1405.0978 -8606.8410 238.3541 -10011.9387 -8602.8516 240.1635 243.1673 307.1345 29213.5776 3.4503 3.4680
TCL: Running 100000 steps at 270 kelvin.
TCL: Setting parameter langevinTemp to 270
TCL: Running for 100000 steps
ETITLE: TS BOND ANGLE DIHED IMPRP ELECT VDW BOUNDARY MISC KINETIC TOTAL TEMP POTENTIAL TOTAL3 TEMPAVG PRESSURE GPRESSURE VOLUME PRESSAVG GPRESSAVG
ENERGY: 800000 1.5588 9.2239 3.9054 0.0000 -11754.1997 1727.5729 0.0000 0.0000 1404.4023 -8607.5365 238.2361 -10011.9387 -8605.4739 238.2361 232.0156 308.4580 29213.5776 232.0156 308.4580
ENERGY: 900000 3.2179 6.4396 5.6142 0.0000 -11208.7411 1552.8550 0.0000 0.0000 1616.0029 -8024.6116 274.1310 -9640.6145 -8021.6673 270.0565 -355.5736 -143.3076 29948.2888 1.9551 2.0564
TCL: Running 1000000 steps at 300 kelvin.
TCL: Setting parameter langevinTemp to 300
TCL: Running for 1000000 steps
ETITLE: TS BOND ANGLE DIHED IMPRP ELECT VDW BOUNDARY MISC KINETIC TOTAL TEMP POTENTIAL TOTAL3 TEMPAVG PRESSURE GPRESSURE VOLUME PRESSAVG GPRESSAVG
ENERGY: 900000 3.2179 6.4396 5.6142 0.0000 -11208.7411 1552.8550 0.0000 0.0000 1615.1924 -8025.4220 273.9935 -9640.6145 -8022.3996 273.9935 -233.6036 -145.4861 29948.2888 -233.6036 -145.4861
ENERGY: 1100000 2.9767 11.2876 4.4326 0.0000 -10554.1967 1308.0074 0.0000 0.0000 1763.2290 -7464.2633 299.1057 -9227.4923 -7460.0542 300.1061 -1019.2425 -971.1585 30770.5253 3.0773 2.8662
ENERGY: 1300000 1.4857 7.8370 5.0118 0.0000 -10596.9684 1401.1022 0.0000 0.0000 1798.4365 -7383.0952 305.0782 -9181.5317 -7376.8279 299.9957 -36.6947 33.0046 30597.4026 3.3307 3.1740
ENERGY: 1500000 0.4551 8.2867 5.9897 0.0000 -10613.6263 1377.1036 0.0000 0.0000 1730.0059 -7491.7854 293.4699 -9221.7912 -7489.5177 300.7154 -363.2777 -337.4524 30663.2635 3.5896 3.5651
ENERGY: 1700000 2.2589 11.6275 6.0148 0.0000 -10671.4560 1426.3033 0.0000 0.0000 1818.2239 -7407.0275 308.4348 -9225.2514 -7401.9602 300.0551 -47.1302 45.8426 30615.5905 3.9324 4.0388
ENERGY: 1900000 2.4855 9.5857 4.2824 0.0000 -10701.5859 1385.2209 0.0000 0.0000 1757.1023 -7542.9092 298.0664 -9300.0115 -7539.9802 299.7089 -737.6369 -606.2404 30616.2197 2.2977 2.4564
TCL: Exiting due to exit command.
