Info: SIMULATION PARAMETERS:
Info: TIMESTEP               2
Info: NUMBER OF STEPS        0
Info: STEPS PER CYCLE        10
Info: PERIODIC CELL BASIS 1  36.005 0 0
Info: PERIODIC CELL BASIS 2  0 34.26 0
Info: PERIODIC CELL BASIS 3  0 0 36.199
Info: PERIODIC CELL CENTER   0 0 0
Info: WRAPPING WATERS AROUND PERIODIC BOUNDARIES ON OUTPUT.
Info: WRAPPING ALL CLUSTERS AROUND PERIODIC BOUNDARIES ON OUTPUT.
Info: FIRST LDB TIMESTEP     50
Info: LAST LDB TIMESTEP     -1
Info: HOM BACKGROUND SCALING 1
Info: PME BACKGROUND SCALING 1
Info: MIN ATOMS PER PATCH    40
Info: EMPTY PATCH LOAD       40 ATOMS
Info: INITIAL TEMPERATURE    300
Info: CENTER OF MASS MOVING INITIALLY? NO
Info: DIELECTRIC             1
Info: EXCLUDE                SCALED ONE-FOUR
Info: 1-4 ELECTROSTATICS SCALED BY 0.833333
Info: MODIFIED 1-4 VDW PARAMETERS WILL BE USED
Info: DCD FILENAME           mobley_3999471_equil.dcd
Info: DCD FREQUENCY          100000
Info: DCD FIRST STEP         100000
Info: DCD FILE WILL CONTAIN UNIT CELL DATA
Info: XST FILENAME           mobley_3999471_equil.xst
Info: XST FREQUENCY          100000
Info: NO VELOCITY DCD OUTPUT
Info: NO FORCE DCD OUTPUT
Info: OUTPUT FILENAME        mobley_3999471_equil
Info: BINARY OUTPUT FILES WILL BE USED
Info: RESTART FILENAME       mobley_3999471_equil.restart
Info: RESTART FREQUENCY      100000
Info: BINARY RESTART FILES WILL BE USED
Info: CUTOFF                 9
Info: PAIRLIST DISTANCE      11
Info: PAIRLIST SHRINK RATE   0.01
Info: PAIRLIST GROW RATE     0.01
Info: PAIRLIST TRIGGER       0.3
Info: PAIRLISTS PER CYCLE    2
Info: PAIRLISTS ENABLED
Info: MARGIN                 8
Info: HYDROGEN GROUP CUTOFF  2.5
Info: PATCH DIMENSION        21.5
Info: ENERGY OUTPUT STEPS    100000
Info: ENERGY EVALUATION STEPS    100000
Info: OUTPUT ENERGY PRECISION 4
Info: CROSSTERM ENERGY INCLUDED IN DIHEDRAL
Info: TIMING OUTPUT STEPS    1000000
Info: PRESSURE OUTPUT STEPS  100000
Info: LANGEVIN DYNAMICS ACTIVE
Info: LANGEVIN TEMPERATURE   30
Info: LANGEVIN USING BBK INTEGRATOR
Info: LANGEVIN DAMPING COEFFICIENT IS 1 INVERSE PS
Info: LANGEVIN DYNAMICS APPLIED TO HYDROGENS
Info: LANGEVIN PISTON PRESSURE CONTROL ACTIVE
Info:        TARGET PRESSURE IS 1.01325 BAR
Info:     OSCILLATION PERIOD IS 50 FS
Info:             DECAY TIME IS 25 FS
Info:     PISTON TEMPERATURE IS 300 K
Info:       PRESSURE CONTROL IS GROUP-BASED
Info:    INITIAL STRAIN RATE IS 0 0 0
Info:       CELL FLUCTUATION IS ISOTROPIC
Info: PARTICLE MESH EWALD (PME) ACTIVE
Info: PME TOLERANCE               1e-06
Info: PME EWALD COEFFICIENT       0.348832
Info: PME INTERPOLATION ORDER     4
Info: PME GRID DIMENSIONS         40 36 40
Info: PME MAXIMUM GRID SPACING    1
Info: FULL ELECTROSTATIC EVALUATION FREQUENCY      2
Info: USING VERLET I (r-RESPA) MTS SCHEME.
Info: C1 SPLITTING OF LONG RANGE ELECTROSTATICS
Info: PLACING ATOMS IN PATCHES BY HYDROGEN GROUPS
Info: RIGID BONDS TO HYDROGEN : ALL
Info:         ERROR TOLERANCE : 1e-08
Info:          MAX ITERATIONS : 100
Info: RIGID WATER USING SETTLE ALGORITHM
Info: RANDOM NUMBER SEED     1743157771
Info: USE HYDROGEN BONDS?    NO
Info: Using AMBER format force field!
Info: AMBER PARM FILE        mobley_3999471.prmtop
Info: COORDINATE PDB         mobley_3999471.pdb
Info: Exclusions will be read from PARM file!
Info: SCNB (VDW SCALING)     2
Info: USING ARITHMETIC MEAN TO COMBINE L-J SIGMA PARAMETERS
Info: BINARY COORDINATES     mobley_3999471_min.coor
Info: SUMMARY OF PARAMETERS:
Info: 6 BONDS
Info: 6 ANGLES
Info:   6 HARMONIC
Info:   0 COSINE-BASED
Info: 3 DIHEDRAL
Info: 0 IMPROPER
Info: 0 CROSSTERM
Info: 0 VDW
Info: 21 VDW_PAIRS
Info: 0 NBTHOLE_PAIRS
Info: STRUCTURE SUMMARY:
Info: 2987 ATOMS
Info: 2986 BONDS
Info: 12 ANGLES
Info: 15 DIHEDRALS
Info: 0 IMPROPERS
Info: 0 CROSSTERMS
Info: 3007 EXCLUSIONS
Info: 2983 RIGID BONDS
Info: 5978 DEGREES OF FREEDOM
Info: 997 HYDROGEN GROUPS
Info: 4 ATOMS IN LARGEST HYDROGEN GROUP
Info: 997 MIGRATION GROUPS
Info: 4 ATOMS IN LARGEST MIGRATION GROUP
Info: TOTAL MASS = 17988.8 amu
Info: TOTAL CHARGE = 0.000100009 e
Info: MASS DENSITY = 0.668984 g/cm^3
Info: ATOM DENSITY = 0.0668942 atoms/A^3
Info: ADDED 0 IMPLICIT EXCLUSIONS
Info: NONBONDED TABLE R-SQUARED SPACING: 0.0625
Info: NONBONDED TABLE SIZE: 705 POINTS
Info: REMOVING COM VELOCITY 0.155733 0.0362209 0.0330513
TCL: Running for 100000 steps
ETITLE: TS BOND ANGLE DIHED IMPRP ELECT VDW BOUNDARY MISC KINETIC TOTAL TEMP POTENTIAL TOTAL3 TEMPAVG PRESSURE GPRESSURE VOLUME PRESSAVG GPRESSAVG
ENERGY: 0 0.0001 0.0645 1.5008 0.0000 -13793.8649 2417.8290 0.0000 0.0000 1824.2504 -9550.2202 307.1277 -11374.4705 -9549.8267 307.1277 469.2462 504.3582 44652.5995 469.2462 504.3582
ENERGY: 100000 0.0473 0.3087 1.5310 0.0000 -14520.1809 2635.0722 0.0000 0.0000 177.0778 -11706.1439 29.8125 -11883.2217 -11705.7208 30.9088 936.2864 1016.6022 29443.8819 3.2076 3.1467
TCL: Running 100000 steps at 60 kelvin.
TCL: Setting parameter langevinTemp to 60
TCL: Running for 100000 steps
ETITLE: TS BOND ANGLE DIHED IMPRP ELECT VDW BOUNDARY MISC KINETIC TOTAL TEMP POTENTIAL TOTAL3 TEMPAVG PRESSURE GPRESSURE VOLUME PRESSAVG GPRESSAVG
ENERGY: 100000 0.0473 0.3087 1.5310 0.0000 -14520.1809 2635.0722 0.0000 0.0000 176.9902 -11706.2315 29.7978 -11883.2217 -11705.8763 29.7978 954.5963 1016.5253 29443.8819 954.5963 1016.5253
ENERGY: 200000 0.2063 0.5322 1.4974 0.0000 -14276.4056 2433.7689 0.0000 0.0000 345.4777 -11494.9231 58.1640 -11840.4008 -11494.2171 60.0404 -300.6248 -260.0862 29186.6200 3.7393 3.7302
TCL: Running 100000 steps at 90 kelvin.
TCL: Setting parameter langevinTemp to 90
TCL: Running for 100000 steps
ETITLE: TS BOND ANGLE DIHED IMPRP ELECT VDW BOUNDARY MISC KINETIC TOTAL TEMP POTENTIAL TOTAL3 TEMPAVG PRESSURE GPRESSURE VOLUME PRESSAVG GPRESSAVG
ENERGY: 200000 0.2063 0.5322 1.4974 0.0000 -14276.4056 2433.7689 0.0000 0.0000 345.2951 -11495.1057 58.1333 -11840.4008 -11494.3603 58.1333 -312.9539 -259.9107 29186.6200 -312.9539 -259.9107
ENERGY: 300000 0.0146 0.8921 1.4959 0.0000 -14279.6176 2558.9832 0.0000 0.0000 526.7158 -11191.5161 88.6770 -11718.2319 -11190.0823 89.9241 1106.8449 1190.5812 29012.1093 2.6382 2.7054
TCL: Running 100000 steps at 120 kelvin.
TCL: Setting parameter langevinTemp to 120
TCL: Running for 100000 steps
ETITLE: TS BOND ANGLE DIHED IMPRP ELECT VDW BOUNDARY MISC KINETIC TOTAL TEMP POTENTIAL TOTAL3 TEMPAVG PRESSURE GPRESSURE VOLUME PRESSAVG GPRESSAVG
ENERGY: 300000 0.0146 0.8921 1.4959 0.0000 -14279.6176 2558.9832 0.0000 0.0000 526.4458 -11191.7861 88.6315 -11718.2319 -11190.7480 88.6315 1131.1441 1191.0246 29012.1093 1131.1441 1191.0246
ENERGY: 400000 0.1406 1.2586 1.5474 0.0000 -14001.5442 2408.9067 0.0000 0.0000 719.0797 -10870.6113 121.0630 -11589.6909 -10870.2271 120.0091 382.1192 456.1365 29149.7595 2.3513 2.2720
TCL: Running 100000 steps at 150 kelvin.
TCL: Setting parameter langevinTemp to 150
TCL: Running for 100000 steps
ETITLE: TS BOND ANGLE DIHED IMPRP ELECT VDW BOUNDARY MISC KINETIC TOTAL TEMP POTENTIAL TOTAL3 TEMPAVG PRESSURE GPRESSURE VOLUME PRESSAVG GPRESSAVG
ENERGY: 400000 0.1406 1.2586 1.5474 0.0000 -14001.5442 2408.9067 0.0000 0.0000 718.7095 -10870.9814 121.0007 -11589.6909 -10869.7825 121.0007 405.2844 455.0305 29149.7595 405.2844 455.0305
ENERGY: 500000 0.4288 2.5260 1.5912 0.0000 -13789.0572 2302.9235 0.0000 0.0000 852.1383 -10629.4494 143.4645 -11481.5877 -10627.4055 149.5971 -183.8328 -101.7826 29416.1547 3.0658 2.9577
TCL: Running 100000 steps at 180 kelvin.
TCL: Setting parameter langevinTemp to 180
TCL: Running for 100000 steps
ETITLE: TS BOND ANGLE DIHED IMPRP ELECT VDW BOUNDARY MISC KINETIC TOTAL TEMP POTENTIAL TOTAL3 TEMPAVG PRESSURE GPRESSURE VOLUME PRESSAVG GPRESSAVG
ENERGY: 500000 0.4288 2.5260 1.5912 0.0000 -13789.0572 2302.9235 0.0000 0.0000 851.7158 -10629.8719 143.3934 -11481.5877 -10628.2413 143.3934 -162.6708 -101.7387 29416.1547 -162.6708 -101.7387
ENERGY: 600000 1.2621 2.1980 1.7636 0.0000 -13331.1775 2138.4006 0.0000 0.0000 1046.8923 -10140.6608 176.2530 -11187.5531 -10138.0778 179.8168 -267.0716 -245.7453 29476.2449 3.1141 3.0084
TCL: Running 100000 steps at 210 kelvin.
TCL: Setting parameter langevinTemp to 210
TCL: Running for 100000 steps
ETITLE: TS BOND ANGLE DIHED IMPRP ELECT VDW BOUNDARY MISC KINETIC TOTAL TEMP POTENTIAL TOTAL3 TEMPAVG PRESSURE GPRESSURE VOLUME PRESSAVG GPRESSAVG
ENERGY: 600000 1.2621 2.1980 1.7636 0.0000 -13331.1775 2138.4006 0.0000 0.0000 1046.3568 -10141.1963 176.1628 -11187.5531 -10138.9378 176.1628 -289.8060 -245.5476 29476.2449 -289.8060 -245.5476
ENERGY: 700000 0.0741 1.3955 1.5295 0.0000 -12624.2666 1913.7778 0.0000 0.0000 1248.3152 -9459.1744 210.1642 -10707.4896 -9455.6609 209.7611 -139.1088 -100.5774 29347.1130 2.8695 2.9962
TCL: Running 100000 steps at 240 kelvin.
TCL: Setting parameter langevinTemp to 240
TCL: Running for 100000 steps
ETITLE: TS BOND ANGLE DIHED IMPRP ELECT VDW BOUNDARY MISC KINETIC TOTAL TEMP POTENTIAL TOTAL3 TEMPAVG PRESSURE GPRESSURE VOLUME PRESSAVG GPRESSAVG
ENERGY: 700000 0.0741 1.3955 1.5295 0.0000 -12624.2666 1913.7778 0.0000 0.0000 1247.7006 -9459.7890 210.0607 -10707.4896 -9457.6167 210.0607 -175.9919 -99.9931 29347.1130 -175.9919 -99.9931
ENERGY: 800000 0.3330 1.1578 1.5181 0.0000 -11941.4382 1720.9867 0.0000 0.0000 1414.6572 -8802.7854 238.1692 -10217.4426 -8802.6928 240.1355 -211.7155 -149.6977 29562.5079 4.1327 4.0717
TCL: Running 100000 steps at 270 kelvin.
TCL: Setting parameter langevinTemp to 270
TCL: Running for 100000 steps
ETITLE: TS BOND ANGLE DIHED IMPRP ELECT VDW BOUNDARY MISC KINETIC TOTAL TEMP POTENTIAL TOTAL3 TEMPAVG PRESSURE GPRESSURE VOLUME PRESSAVG GPRESSAVG
ENERGY: 800000 0.3330 1.1578 1.5181 0.0000 -11941.4382 1720.9867 0.0000 0.0000 1413.9336 -8803.5090 238.0474 -10217.4426 -8800.6749 238.0474 -224.5719 -153.8175 29562.5079 -224.5719 -153.8175
ENERGY: 900000 0.5681 0.7490 2.1429 0.0000 -11435.4199 1611.7584 0.0000 0.0000 1598.6960 -8221.5054 269.1537 -9820.2015 -8219.1427 269.9271 320.5310 421.3395 29678.3611 2.4968 2.4249
TCL: Running 1000000 steps at 300 kelvin.
TCL: Setting parameter langevinTemp to 300
TCL: Running for 1000000 steps
ETITLE: TS BOND ANGLE DIHED IMPRP ELECT VDW BOUNDARY MISC KINETIC TOTAL TEMP POTENTIAL TOTAL3 TEMPAVG PRESSURE GPRESSURE VOLUME PRESSAVG GPRESSAVG
ENERGY: 900000 0.5681 0.7490 2.1429 0.0000 -11435.4199 1611.7584 0.0000 0.0000 1597.8964 -8222.3051 269.0191 -9820.2015 -8219.4972 269.0191 339.8196 419.2139 29678.3611 339.8196 419.2139
ENERGY: 1100000 0.4946 1.8929 2.2882 0.0000 -10926.0917 1511.8545 0.0000 0.0000 1736.6101 -7672.9514 292.3727 -9409.5615 -7672.0436 299.9938 286.6728 398.4999 30677.4890 2.2653 1.9623
ENERGY: 1300000 0.8991 3.2586 1.5137 0.0000 -10837.7816 1422.9414 0.0000 0.0000 1738.5609 -7670.6079 292.7011 -9409.1688 -7666.4401 299.7011 -563.8099 -470.5937 31166.8081 3.7009 3.5993
ENERGY: 1500000 1.0742 1.9597 2.0196 0.0000 -10882.2190 1445.3441 0.0000 0.0000 1790.8982 -7640.9232 301.5125 -9431.8214 -7637.8959 301.0868 -103.6133 -47.9517 30554.5041 2.4517 2.6094
ENERGY: 1700000 0.4582 2.4269 1.6350 0.0000 -10852.5513 1454.9712 0.0000 0.0000 1804.2201 -7588.8399 303.7554 -9393.0600 -7585.2215 300.3621 193.5621 251.6814 30469.2483 3.3904 3.3132
ENERGY: 1900000 0.8965 2.6150 1.5392 0.0000 -11091.3356 1557.9161 0.0000 0.0000 1764.9709 -7763.3979 297.1475 -9528.3688 -7760.2035 300.2928 368.4814 471.4546 30672.3136 3.2627 3.2058
TCL: Exiting due to exit command.
