Info: SIMULATION PARAMETERS:
Info: TIMESTEP               2
Info: NUMBER OF STEPS        0
Info: STEPS PER CYCLE        10
Info: PERIODIC CELL BASIS 1  36.005 0 0
Info: PERIODIC CELL BASIS 2  0 33.404 0
Info: PERIODIC CELL BASIS 3  0 0 36.583
Info: PERIODIC CELL CENTER   0 0 0
Info: WRAPPING WATERS AROUND PERIODIC BOUNDARIES ON OUTPUT.
Info: WRAPPING ALL CLUSTERS AROUND PERIODIC BOUNDARIES ON OUTPUT.
Info: FIRST LDB TIMESTEP     50
Info: LAST LDB TIMESTEP     -1
Info: HOM BACKGROUND SCALING 1
Info: PME BACKGROUND SCALING 1
Info: MIN ATOMS PER PATCH    40
Info: EMPTY PATCH LOAD       40 ATOMS
Info: INITIAL TEMPERATURE    300
Info: CENTER OF MASS MOVING INITIALLY? NO
Info: DIELECTRIC             1
Info: EXCLUDE                SCALED ONE-FOUR
Info: 1-4 ELECTROSTATICS SCALED BY 0.833333
Info: MODIFIED 1-4 VDW PARAMETERS WILL BE USED
Info: DCD FILENAME           mobley_9626434_equil.dcd
Info: DCD FREQUENCY          100000
Info: DCD FIRST STEP         100000
Info: DCD FILE WILL CONTAIN UNIT CELL DATA
Info: XST FILENAME           mobley_9626434_equil.xst
Info: XST FREQUENCY          100000
Info: NO VELOCITY DCD OUTPUT
Info: NO FORCE DCD OUTPUT
Info: OUTPUT FILENAME        mobley_9626434_equil
Info: BINARY OUTPUT FILES WILL BE USED
Info: RESTART FILENAME       mobley_9626434_equil.restart
Info: RESTART FREQUENCY      100000
Info: BINARY RESTART FILES WILL BE USED
Info: CUTOFF                 9
Info: PAIRLIST DISTANCE      11
Info: PAIRLIST SHRINK RATE   0.01
Info: PAIRLIST GROW RATE     0.01
Info: PAIRLIST TRIGGER       0.3
Info: PAIRLISTS PER CYCLE    2
Info: PAIRLISTS ENABLED
Info: MARGIN                 8
Info: HYDROGEN GROUP CUTOFF  2.5
Info: PATCH DIMENSION        21.5
Info: ENERGY OUTPUT STEPS    100000
Info: ENERGY EVALUATION STEPS    100000
Info: OUTPUT ENERGY PRECISION 4
Info: CROSSTERM ENERGY INCLUDED IN DIHEDRAL
Info: TIMING OUTPUT STEPS    1000000
Info: PRESSURE OUTPUT STEPS  100000
Info: LANGEVIN DYNAMICS ACTIVE
Info: LANGEVIN TEMPERATURE   30
Info: LANGEVIN USING BBK INTEGRATOR
Info: LANGEVIN DAMPING COEFFICIENT IS 1 INVERSE PS
Info: LANGEVIN DYNAMICS APPLIED TO HYDROGENS
Info: LANGEVIN PISTON PRESSURE CONTROL ACTIVE
Info:        TARGET PRESSURE IS 1.01325 BAR
Info:     OSCILLATION PERIOD IS 50 FS
Info:             DECAY TIME IS 25 FS
Info:     PISTON TEMPERATURE IS 300 K
Info:       PRESSURE CONTROL IS GROUP-BASED
Info:    INITIAL STRAIN RATE IS 0 0 0
Info:       CELL FLUCTUATION IS ISOTROPIC
Info: PARTICLE MESH EWALD (PME) ACTIVE
Info: PME TOLERANCE               1e-06
Info: PME EWALD COEFFICIENT       0.348832
Info: PME INTERPOLATION ORDER     4
Info: PME GRID DIMENSIONS         40 36 40
Info: PME MAXIMUM GRID SPACING    1
Info: FULL ELECTROSTATIC EVALUATION FREQUENCY      2
Info: USING VERLET I (r-RESPA) MTS SCHEME.
Info: C1 SPLITTING OF LONG RANGE ELECTROSTATICS
Info: PLACING ATOMS IN PATCHES BY HYDROGEN GROUPS
Info: RIGID BONDS TO HYDROGEN : ALL
Info:         ERROR TOLERANCE : 1e-08
Info:          MAX ITERATIONS : 100
Info: RIGID WATER USING SETTLE ALGORITHM
Info: RANDOM NUMBER SEED     1743248436
Info: USE HYDROGEN BONDS?    NO
Info: Using AMBER format force field!
Info: AMBER PARM FILE        mobley_9626434.prmtop
Info: COORDINATE PDB         mobley_9626434.pdb
Info: Exclusions will be read from PARM file!
Info: SCNB (VDW SCALING)     2
Info: USING ARITHMETIC MEAN TO COMBINE L-J SIGMA PARAMETERS
Info: BINARY COORDINATES     mobley_9626434_min.coor
Info: SUMMARY OF PARAMETERS:
Info: 8 BONDS
Info: 10 ANGLES
Info:   10 HARMONIC
Info:   0 COSINE-BASED
Info: 10 DIHEDRAL
Info: 0 IMPROPER
Info: 0 CROSSTERM
Info: 0 VDW
Info: 28 VDW_PAIRS
Info: 0 NBTHOLE_PAIRS
Info: STRUCTURE SUMMARY:
Info: 2965 ATOMS
Info: 2964 BONDS
Info: 26 ANGLES
Info: 38 DIHEDRALS
Info: 0 IMPROPERS
Info: 0 CROSSTERMS
Info: 3017 EXCLUSIONS
Info: 2959 RIGID BONDS
Info: 5936 DEGREES OF FREEDOM
Info: 989 HYDROGEN GROUPS
Info: 4 ATOMS IN LARGEST HYDROGEN GROUP
Info: 989 MIGRATION GROUPS
Info: 4 ATOMS IN LARGEST MIGRATION GROUP
Info: TOTAL MASS = 17799.8 amu
Info: TOTAL CHARGE = -9.99831e-05 e
Info: MASS DENSITY = 0.671792 g/cm^3
Info: ATOM DENSITY = 0.0673882 atoms/A^3
Info: ADDED 0 IMPLICIT EXCLUSIONS
Info: NONBONDED TABLE R-SQUARED SPACING: 0.0625
Info: NONBONDED TABLE SIZE: 705 POINTS
Info: REMOVING COM VELOCITY -0.134155 -0.00261529 -0.186174
TCL: Running for 100000 steps
ETITLE: TS BOND ANGLE DIHED IMPRP ELECT VDW BOUNDARY MISC KINETIC TOTAL TEMP POTENTIAL TOTAL3 TEMPAVG PRESSURE GPRESSURE VOLUME PRESSAVG GPRESSAVG
ENERGY: 0 0.0957 0.3206 2.6564 0.0000 -13698.3519 2427.2456 0.0000 0.0000 1733.8459 -9534.1877 293.9727 -11268.0336 -9533.8658 293.9727 527.4406 559.5113 43998.7772 527.4406 559.5113
ENERGY: 100000 0.4122 0.9648 2.6875 0.0000 -14211.0869 2379.4623 0.0000 0.0000 177.3571 -11650.2030 30.0708 -11827.5601 -11649.6870 30.8918 -1054.2788 -1007.1161 28825.9411 4.1307 4.1751
TCL: Running 100000 steps at 60 kelvin.
TCL: Setting parameter langevinTemp to 60
TCL: Running for 100000 steps
ETITLE: TS BOND ANGLE DIHED IMPRP ELECT VDW BOUNDARY MISC KINETIC TOTAL TEMP POTENTIAL TOTAL3 TEMPAVG PRESSURE GPRESSURE VOLUME PRESSAVG GPRESSAVG
ENERGY: 100000 0.4122 0.9648 2.6875 0.0000 -14211.0869 2379.4623 0.0000 0.0000 177.2685 -11650.2916 30.0558 -11827.5601 -11649.8540 30.0558 -1053.9707 -1007.0348 28825.9411 -1053.9707 -1007.0348
ENERGY: 200000 0.1106 1.1454 3.2742 0.0000 -14259.5568 2520.5351 0.0000 0.0000 353.3404 -11381.1512 59.9087 -11734.4916 -11380.4095 60.0426 741.1142 765.2561 28512.5207 4.1200 3.9923
TCL: Running 100000 steps at 90 kelvin.
TCL: Setting parameter langevinTemp to 90
TCL: Running for 100000 steps
ETITLE: TS BOND ANGLE DIHED IMPRP ELECT VDW BOUNDARY MISC KINETIC TOTAL TEMP POTENTIAL TOTAL3 TEMPAVG PRESSURE GPRESSURE VOLUME PRESSAVG GPRESSAVG
ENERGY: 200000 0.1106 1.1454 3.2742 0.0000 -14259.5568 2520.5351 0.0000 0.0000 353.1630 -11381.3286 59.8786 -11734.4916 -11380.7360 59.8786 724.7645 765.4755 28512.5207 724.7645 765.4755
ENERGY: 300000 0.9708 1.2355 3.0449 0.0000 -13844.4256 2206.7761 0.0000 0.0000 541.3718 -11091.0266 91.7893 -11632.3984 -11089.2647 89.9710 -1799.2515 -1727.6589 29212.7346 4.2514 4.2728
TCL: Running 100000 steps at 120 kelvin.
TCL: Setting parameter langevinTemp to 120
TCL: Running for 100000 steps
ETITLE: TS BOND ANGLE DIHED IMPRP ELECT VDW BOUNDARY MISC KINETIC TOTAL TEMP POTENTIAL TOTAL3 TEMPAVG PRESSURE GPRESSURE VOLUME PRESSAVG GPRESSAVG
ENERGY: 300000 0.9708 1.2355 3.0449 0.0000 -13844.4256 2206.7761 0.0000 0.0000 541.1070 -11091.2914 91.7444 -11632.3984 -11090.2265 91.7444 -1776.7206 -1727.0068 29212.7346 -1776.7206 -1727.0068
ENERGY: 400000 0.3075 3.5446 3.6614 0.0000 -13923.7599 2416.9333 0.0000 0.0000 697.8321 -10801.4812 118.3171 -11499.3132 -10800.4418 120.0089 508.0297 564.3061 28939.6165 5.1983 5.2381
TCL: Running 100000 steps at 150 kelvin.
TCL: Setting parameter langevinTemp to 150
TCL: Running for 100000 steps
ETITLE: TS BOND ANGLE DIHED IMPRP ELECT VDW BOUNDARY MISC KINETIC TOTAL TEMP POTENTIAL TOTAL3 TEMPAVG PRESSURE GPRESSURE VOLUME PRESSAVG GPRESSAVG
ENERGY: 400000 0.3075 3.5446 3.6614 0.0000 -13923.7599 2416.9333 0.0000 0.0000 697.4757 -10801.8375 118.2566 -11499.3132 -10800.5280 118.2566 522.0876 563.6644 28939.6165 522.0876 563.6644
ENERGY: 500000 0.1968 3.0609 2.9280 0.0000 -13531.3919 2220.9808 0.0000 0.0000 894.1386 -10410.0867 151.6008 -11304.2253 -10406.9113 149.7669 -197.6742 -171.5147 29196.3039 3.0750 2.8393
TCL: Running 100000 steps at 180 kelvin.
TCL: Setting parameter langevinTemp to 180
TCL: Running for 100000 steps
ETITLE: TS BOND ANGLE DIHED IMPRP ELECT VDW BOUNDARY MISC KINETIC TOTAL TEMP POTENTIAL TOTAL3 TEMPAVG PRESSURE GPRESSURE VOLUME PRESSAVG GPRESSAVG
ENERGY: 500000 0.1968 3.0609 2.9280 0.0000 -13531.3919 2220.9808 0.0000 0.0000 893.6871 -10410.5382 151.5242 -11304.2253 -10408.8033 151.5242 -213.9125 -170.1181 29196.3039 -213.9125 -170.1181
ENERGY: 600000 1.0649 3.3929 2.9164 0.0000 -13150.5356 2123.4913 0.0000 0.0000 1054.0590 -9965.6111 178.7152 -11019.6701 -9962.0952 180.0271 -347.1817 -229.0629 29396.0886 3.5992 3.5992
TCL: Running 100000 steps at 210 kelvin.
TCL: Setting parameter langevinTemp to 210
TCL: Running for 100000 steps
ETITLE: TS BOND ANGLE DIHED IMPRP ELECT VDW BOUNDARY MISC KINETIC TOTAL TEMP POTENTIAL TOTAL3 TEMPAVG PRESSURE GPRESSURE VOLUME PRESSAVG GPRESSAVG
ENERGY: 600000 1.0649 3.3929 2.9164 0.0000 -13150.5356 2123.4913 0.0000 0.0000 1053.5254 -9966.1447 178.6247 -11019.6701 -9963.9651 178.6247 -284.6758 -227.1768 29396.0886 -284.6758 -227.1768
ENERGY: 700000 1.1759 3.9520 2.9168 0.0000 -12484.7581 1895.1026 0.0000 0.0000 1207.0056 -9374.6052 204.6472 -10581.6108 -9371.7248 209.6932 -278.4663 -215.1452 29017.7473 3.6918 3.7731
TCL: Running 100000 steps at 240 kelvin.
TCL: Setting parameter langevinTemp to 240
TCL: Running for 100000 steps
ETITLE: TS BOND ANGLE DIHED IMPRP ELECT VDW BOUNDARY MISC KINETIC TOTAL TEMP POTENTIAL TOTAL3 TEMPAVG PRESSURE GPRESSURE VOLUME PRESSAVG GPRESSAVG
ENERGY: 700000 1.1759 3.9520 2.9168 0.0000 -12484.7581 1895.1026 0.0000 0.0000 1206.3705 -9375.2403 204.5395 -10581.6108 -9372.5661 204.5395 -290.3638 -215.8965 29017.7473 -290.3638 -215.8965
ENERGY: 800000 0.8344 6.0320 2.4396 0.0000 -11738.3973 1693.7058 0.0000 0.0000 1423.3562 -8612.0292 241.3293 -10035.3854 -8608.3563 239.6681 180.2747 292.7371 29010.9989 3.7932 3.9691
TCL: Running 100000 steps at 270 kelvin.
TCL: Setting parameter langevinTemp to 270
TCL: Running for 100000 steps
ETITLE: TS BOND ANGLE DIHED IMPRP ELECT VDW BOUNDARY MISC KINETIC TOTAL TEMP POTENTIAL TOTAL3 TEMPAVG PRESSURE GPRESSURE VOLUME PRESSAVG GPRESSAVG
ENERGY: 800000 0.8344 6.0320 2.4396 0.0000 -11738.3973 1693.7058 0.0000 0.0000 1422.6572 -8612.7283 241.2108 -10035.3854 -8610.1234 241.2108 198.0676 293.8608 29010.9989 198.0676 293.8608
ENERGY: 900000 2.0509 8.6484 2.6599 0.0000 -11214.1052 1549.0701 0.0000 0.0000 1609.4225 -8042.2534 272.8768 -9651.6759 -8040.4840 270.1203 -104.4945 -26.7711 29688.9572 2.2237 2.1164
TCL: Running 1000000 steps at 300 kelvin.
TCL: Setting parameter langevinTemp to 300
TCL: Running for 1000000 steps
ETITLE: TS BOND ANGLE DIHED IMPRP ELECT VDW BOUNDARY MISC KINETIC TOTAL TEMP POTENTIAL TOTAL3 TEMPAVG PRESSURE GPRESSURE VOLUME PRESSAVG GPRESSAVG
ENERGY: 900000 2.0509 8.6484 2.6599 0.0000 -11214.1052 1549.0701 0.0000 0.0000 1608.6362 -8043.0397 272.7435 -9651.6759 -8040.5419 272.7435 -99.1289 -29.5659 29688.9572 -99.1289 -29.5659
ENERGY: 1100000 1.3978 7.1249 7.4252 0.0000 -10675.3711 1433.7795 0.0000 0.0000 1746.1929 -7479.4508 296.0661 -9225.6437 -7475.5066 300.1164 23.3315 164.9020 30326.3427 2.9640 3.1938
ENERGY: 1300000 3.5017 3.6126 2.9400 0.0000 -10820.4762 1467.1184 0.0000 0.0000 1744.7357 -7598.5678 295.8190 -9343.3035 -7595.0638 300.0826 -298.9273 -244.9100 30835.2853 3.7161 3.6195
ENERGY: 1500000 0.3615 7.5696 5.4141 0.0000 -10741.6211 1501.0389 0.0000 0.0000 1763.1466 -7464.0903 298.9406 -9227.2369 -7459.7144 300.3026 481.3948 565.2932 30509.9662 2.8124 2.7270
ENERGY: 1700000 0.8988 3.8701 4.5038 0.0000 -10764.7775 1437.2828 0.0000 0.0000 1667.9221 -7650.3000 282.7953 -9318.2220 -7645.5259 299.9998 -289.8867 -212.1884 30757.4875 2.7363 2.9450
ENERGY: 1900000 0.2174 8.5590 3.9289 0.0000 -10613.6726 1401.9064 0.0000 0.0000 1761.9537 -7437.1073 298.7383 -9199.0609 -7431.0732 299.2787 -423.3441 -291.7733 31170.7099 2.9652 2.9493
TCL: Exiting due to exit command.
