Info: SIMULATION PARAMETERS:
Info: TIMESTEP               2
Info: NUMBER OF STEPS        0
Info: STEPS PER CYCLE        10
Info: PERIODIC CELL BASIS 1  35.89 0 0
Info: PERIODIC CELL BASIS 2  0 34.26 0
Info: PERIODIC CELL BASIS 3  0 0 36.199
Info: PERIODIC CELL CENTER   0 0 0
Info: WRAPPING WATERS AROUND PERIODIC BOUNDARIES ON OUTPUT.
Info: WRAPPING ALL CLUSTERS AROUND PERIODIC BOUNDARIES ON OUTPUT.
Info: FIRST LDB TIMESTEP     50
Info: LAST LDB TIMESTEP     -1
Info: HOM BACKGROUND SCALING 1
Info: PME BACKGROUND SCALING 1
Info: MIN ATOMS PER PATCH    40
Info: EMPTY PATCH LOAD       40 ATOMS
Info: INITIAL TEMPERATURE    300
Info: CENTER OF MASS MOVING INITIALLY? NO
Info: DIELECTRIC             1
Info: EXCLUDE                SCALED ONE-FOUR
Info: 1-4 ELECTROSTATICS SCALED BY 0.833333
Info: MODIFIED 1-4 VDW PARAMETERS WILL BE USED
Info: DCD FILENAME           mobley_313406_equil.dcd
Info: DCD FREQUENCY          100000
Info: DCD FIRST STEP         100000
Info: DCD FILE WILL CONTAIN UNIT CELL DATA
Info: XST FILENAME           mobley_313406_equil.xst
Info: XST FREQUENCY          100000
Info: NO VELOCITY DCD OUTPUT
Info: NO FORCE DCD OUTPUT
Info: OUTPUT FILENAME        mobley_313406_equil
Info: BINARY OUTPUT FILES WILL BE USED
Info: RESTART FILENAME       mobley_313406_equil.restart
Info: RESTART FREQUENCY      100000
Info: BINARY RESTART FILES WILL BE USED
Info: CUTOFF                 9
Info: PAIRLIST DISTANCE      11
Info: PAIRLIST SHRINK RATE   0.01
Info: PAIRLIST GROW RATE     0.01
Info: PAIRLIST TRIGGER       0.3
Info: PAIRLISTS PER CYCLE    2
Info: PAIRLISTS ENABLED
Info: MARGIN                 8
Info: HYDROGEN GROUP CUTOFF  2.5
Info: PATCH DIMENSION        21.5
Info: ENERGY OUTPUT STEPS    100000
Info: ENERGY EVALUATION STEPS    100000
Info: OUTPUT ENERGY PRECISION 4
Info: CROSSTERM ENERGY INCLUDED IN DIHEDRAL
Info: TIMING OUTPUT STEPS    1000000
Info: PRESSURE OUTPUT STEPS  100000
Info: LANGEVIN DYNAMICS ACTIVE
Info: LANGEVIN TEMPERATURE   30
Info: LANGEVIN USING BBK INTEGRATOR
Info: LANGEVIN DAMPING COEFFICIENT IS 1 INVERSE PS
Info: LANGEVIN DYNAMICS APPLIED TO HYDROGENS
Info: LANGEVIN PISTON PRESSURE CONTROL ACTIVE
Info:        TARGET PRESSURE IS 1.01325 BAR
Info:     OSCILLATION PERIOD IS 50 FS
Info:             DECAY TIME IS 25 FS
Info:     PISTON TEMPERATURE IS 300 K
Info:       PRESSURE CONTROL IS GROUP-BASED
Info:    INITIAL STRAIN RATE IS 0 0 0
Info:       CELL FLUCTUATION IS ISOTROPIC
Info: PARTICLE MESH EWALD (PME) ACTIVE
Info: PME TOLERANCE               1e-06
Info: PME EWALD COEFFICIENT       0.348832
Info: PME INTERPOLATION ORDER     4
Info: PME GRID DIMENSIONS         36 36 40
Info: PME MAXIMUM GRID SPACING    1
Info: FULL ELECTROSTATIC EVALUATION FREQUENCY      2
Info: USING VERLET I (r-RESPA) MTS SCHEME.
Info: C1 SPLITTING OF LONG RANGE ELECTROSTATICS
Info: PLACING ATOMS IN PATCHES BY HYDROGEN GROUPS
Info: RIGID BONDS TO HYDROGEN : ALL
Info:         ERROR TOLERANCE : 1e-08
Info:          MAX ITERATIONS : 100
Info: RIGID WATER USING SETTLE ALGORITHM
Info: RANDOM NUMBER SEED     1743225768
Info: USE HYDROGEN BONDS?    NO
Info: Using AMBER format force field!
Info: AMBER PARM FILE        mobley_313406.prmtop
Info: COORDINATE PDB         mobley_313406.pdb
Info: Exclusions will be read from PARM file!
Info: SCNB (VDW SCALING)     2
Info: USING ARITHMETIC MEAN TO COMBINE L-J SIGMA PARAMETERS
Info: BINARY COORDINATES     mobley_313406_min.coor
Info: SUMMARY OF PARAMETERS:
Info: 7 BONDS
Info: 8 ANGLES
Info: 6 DIHEDRAL
Info: 0 IMPROPER
Info: 0 CROSSTERM
Info: 0 VDW
Info: 21 VDW_PAIRS
Info: 0 NBTHOLE_PAIRS
Info: STRUCTURE SUMMARY:
Info: 2997 ATOMS
Info: 2996 BONDS
Info: 19 ANGLES
Info: 24 DIHEDRALS
Info: 0 IMPROPERS
Info: 0 CROSSTERMS
Info: 3036 EXCLUSIONS
Info: 2993 RIGID BONDS
Info: 5998 DEGREES OF FREEDOM
Info: 999 HYDROGEN GROUPS
Info: 4 ATOMS IN LARGEST HYDROGEN GROUP
Info: 999 MIGRATION GROUPS
Info: 4 ATOMS IN LARGEST MIGRATION GROUP
Info: TOTAL MASS = 17986 amu
Info: TOTAL CHARGE = 9.99756e-05 e
Info: MASS DENSITY = 0.671022 g/cm^3
Info: ATOM DENSITY = 0.0673332 atoms/A^3
Info: ADDED 0 IMPLICIT EXCLUSIONS
Info: NONBONDED TABLE R-SQUARED SPACING: 0.0625
Info: NONBONDED TABLE SIZE: 705 POINTS
Info: REMOVING COM VELOCITY 0.00533946 0.160236 0.0692748
TCL: Running for 100000 steps
ETITLE: TS BOND ANGLE DIHED IMPRP ELECT VDW BOUNDARY MISC KINETIC TOTAL TEMP POTENTIAL TOTAL3 TEMPAVG PRESSURE GPRESSURE VOLUME PRESSAVG GPRESSAVG
ENERGY: 0 0.0135 0.1244 1.6458 0.0000 -13919.3570 2473.1118 0.0000 0.0000 1802.1162 -9642.3454 302.3895 -11444.4616 -9642.0139 302.3895 631.4109 662.8245 44509.9791 631.4109 662.8245
ENERGY: 100000 0.0483 0.6235 0.8500 0.0000 -14377.4607 2421.1320 0.0000 0.0000 178.5925 -11776.2145 29.9673 -11954.8070 -11775.6986 30.8353 -784.2590 -728.9223 29066.7342 3.5862 3.4841
TCL: Running 100000 steps at 60 kelvin.
TCL: Setting parameter langevinTemp to 60
TCL: Running for 100000 steps
ETITLE: TS BOND ANGLE DIHED IMPRP ELECT VDW BOUNDARY MISC KINETIC TOTAL TEMP POTENTIAL TOTAL3 TEMPAVG PRESSURE GPRESSURE VOLUME PRESSAVG GPRESSAVG
ENERGY: 100000 0.0483 0.6235 0.8500 0.0000 -14377.4607 2421.1320 0.0000 0.0000 178.5024 -11776.3046 29.9521 -11954.8070 -11775.8858 29.9521 -787.7151 -729.2175 29066.7342 -787.7151 -729.2175
ENERGY: 200000 0.2026 0.4478 0.9916 0.0000 -14382.2252 2490.4684 0.0000 0.0000 355.9377 -11534.1770 59.7252 -11890.1147 -11533.4230 59.9932 101.1589 154.6406 28794.5543 4.0268 4.0286
TCL: Running 100000 steps at 90 kelvin.
TCL: Setting parameter langevinTemp to 90
TCL: Running for 100000 steps
ETITLE: TS BOND ANGLE DIHED IMPRP ELECT VDW BOUNDARY MISC KINETIC TOTAL TEMP POTENTIAL TOTAL3 TEMPAVG PRESSURE GPRESSURE VOLUME PRESSAVG GPRESSAVG
ENERGY: 200000 0.2026 0.4478 0.9916 0.0000 -14382.2252 2490.4684 0.0000 0.0000 355.7595 -11534.3552 59.6953 -11890.1148 -11533.5040 59.6953 98.0878 154.6343 28794.5543 98.0878 154.6343
ENERGY: 300000 0.2626 2.7528 1.1581 0.0000 -14125.4552 2351.2848 0.0000 0.0000 526.2910 -11243.7060 88.3100 -11769.9970 -11241.8783 90.0196 -607.3203 -553.4933 28892.0870 6.2776 6.3747
TCL: Running 100000 steps at 120 kelvin.
TCL: Setting parameter langevinTemp to 120
TCL: Running for 100000 steps
ETITLE: TS BOND ANGLE DIHED IMPRP ELECT VDW BOUNDARY MISC KINETIC TOTAL TEMP POTENTIAL TOTAL3 TEMPAVG PRESSURE GPRESSURE VOLUME PRESSAVG GPRESSAVG
ENERGY: 300000 0.2626 2.7528 1.1581 0.0000 -14125.4552 2351.2848 0.0000 0.0000 526.0264 -11243.9706 88.2656 -11769.9970 -11242.9782 88.2656 -609.8265 -553.5530 28892.0870 -609.8265 -553.5530
ENERGY: 400000 0.3220 2.8659 1.0128 0.0000 -13940.0773 2263.7140 0.0000 0.0000 710.2721 -10961.8905 119.1815 -11672.1626 -10959.6328 120.0747 -832.7086 -773.6203 28828.8651 4.6202 4.5473
TCL: Running 100000 steps at 150 kelvin.
TCL: Setting parameter langevinTemp to 150
TCL: Running for 100000 steps
ETITLE: TS BOND ANGLE DIHED IMPRP ELECT VDW BOUNDARY MISC KINETIC TOTAL TEMP POTENTIAL TOTAL3 TEMPAVG PRESSURE GPRESSURE VOLUME PRESSAVG GPRESSAVG
ENERGY: 400000 0.3220 2.8659 1.0128 0.0000 -13940.0773 2263.7140 0.0000 0.0000 709.9135 -10962.2491 119.1213 -11672.1626 -10960.6287 119.1213 -833.4329 -773.5720 28828.8651 -833.4329 -773.5720
ENERGY: 500000 0.0483 4.1411 0.8597 0.0000 -13781.7598 2280.7341 0.0000 0.0000 910.5075 -10585.4691 152.7803 -11495.9766 -10584.1902 149.9883 -134.3303 -113.5598 29174.6987 3.9390 3.9373
TCL: Running 100000 steps at 180 kelvin.
TCL: Setting parameter langevinTemp to 180
TCL: Running for 100000 steps
ETITLE: TS BOND ANGLE DIHED IMPRP ELECT VDW BOUNDARY MISC KINETIC TOTAL TEMP POTENTIAL TOTAL3 TEMPAVG PRESSURE GPRESSURE VOLUME PRESSAVG GPRESSAVG
ENERGY: 500000 0.0483 4.1411 0.8597 0.0000 -13781.7598 2280.7341 0.0000 0.0000 910.0677 -10585.9089 152.7065 -11495.9766 -10584.1901 152.7065 -180.3876 -114.3717 29174.6987 -180.3876 -114.3717
ENERGY: 600000 0.1196 4.1840 1.7121 0.0000 -13268.8363 2096.8543 0.0000 0.0000 1083.0902 -10082.8760 181.7392 -11165.9662 -10078.5888 179.5983 -570.5203 -522.7633 29401.3983 3.7727 3.9113
TCL: Running 100000 steps at 210 kelvin.
TCL: Setting parameter langevinTemp to 210
TCL: Running for 100000 steps
ETITLE: TS BOND ANGLE DIHED IMPRP ELECT VDW BOUNDARY MISC KINETIC TOTAL TEMP POTENTIAL TOTAL3 TEMPAVG PRESSURE GPRESSURE VOLUME PRESSAVG GPRESSAVG
ENERGY: 600000 0.1196 4.1840 1.7121 0.0000 -13268.8363 2096.8543 0.0000 0.0000 1082.5597 -10083.4066 181.6502 -11165.9662 -10081.3385 181.6502 -573.9242 -520.4173 29401.3983 -573.9242 -520.4173
ENERGY: 700000 0.0138 2.1225 1.8074 0.0000 -12682.3679 1923.1240 0.0000 0.0000 1244.5316 -9510.7686 208.8285 -10755.3002 -9508.6676 210.0703 -85.6200 -55.2532 29007.9252 2.8543 2.9275
TCL: Running 100000 steps at 240 kelvin.
TCL: Setting parameter langevinTemp to 240
TCL: Running for 100000 steps
ETITLE: TS BOND ANGLE DIHED IMPRP ELECT VDW BOUNDARY MISC KINETIC TOTAL TEMP POTENTIAL TOTAL3 TEMPAVG PRESSURE GPRESSURE VOLUME PRESSAVG GPRESSAVG
ENERGY: 700000 0.0138 2.1225 1.8074 0.0000 -12682.3679 1923.1240 0.0000 0.0000 1243.9053 -9511.3949 208.7235 -10755.3002 -9508.9513 208.7235 -143.4093 -55.8770 29007.9252 -143.4093 -55.8770
ENERGY: 800000 1.3403 2.1450 1.4132 0.0000 -11928.7776 1696.3777 0.0000 0.0000 1385.9972 -8841.5042 232.5660 -10227.5015 -8837.9215 239.6518 -518.8691 -427.5203 29801.9275 3.2888 3.2690
TCL: Running 100000 steps at 270 kelvin.
TCL: Setting parameter langevinTemp to 270
TCL: Running for 100000 steps
ETITLE: TS BOND ANGLE DIHED IMPRP ELECT VDW BOUNDARY MISC KINETIC TOTAL TEMP POTENTIAL TOTAL3 TEMPAVG PRESSURE GPRESSURE VOLUME PRESSAVG GPRESSAVG
ENERGY: 800000 1.3403 2.1450 1.4132 0.0000 -11928.7776 1696.3777 0.0000 0.0000 1385.2621 -8842.2394 232.4427 -10227.5015 -8840.5018 232.4427 -516.8170 -426.8718 29801.9275 -516.8170 -426.8718
ENERGY: 900000 1.1223 3.6305 1.4066 0.0000 -11518.7756 1606.4894 0.0000 0.0000 1567.2622 -8338.8646 262.9817 -9906.1268 -8338.0201 269.6867 91.4185 196.3370 29505.2876 2.8314 2.9215
TCL: Running 1000000 steps at 300 kelvin.
TCL: Setting parameter langevinTemp to 300
TCL: Running for 1000000 steps
ETITLE: TS BOND ANGLE DIHED IMPRP ELECT VDW BOUNDARY MISC KINETIC TOTAL TEMP POTENTIAL TOTAL3 TEMPAVG PRESSURE GPRESSURE VOLUME PRESSAVG GPRESSAVG
ENERGY: 900000 1.1223 3.6305 1.4066 0.0000 -11518.7756 1606.4894 0.0000 0.0000 1566.4691 -8339.6577 262.8487 -9906.1268 -8337.6010 262.8487 106.6025 193.8910 29505.2876 106.6025 193.8910
ENERGY: 1100000 1.4555 5.4546 1.4825 0.0000 -10919.3989 1539.0518 0.0000 0.0000 1803.1802 -7568.7743 302.5680 -9371.9545 -7565.5854 300.2418 730.5937 788.1925 30666.7696 3.6034 3.7151
ENERGY: 1300000 0.7905 4.1786 1.1553 0.0000 -10774.4681 1406.0954 0.0000 0.0000 1791.1060 -7571.1423 300.5420 -9362.2482 -7569.6477 300.0397 -571.5125 -483.8941 31148.3929 2.9086 3.0386
ENERGY: 1500000 0.2271 1.7571 0.7022 0.0000 -10951.5270 1508.0684 0.0000 0.0000 1837.3051 -7603.4671 308.2941 -9440.7722 -7599.1361 299.6014 424.3644 584.1786 30522.8430 3.1435 3.2039
ENERGY: 1700000 0.6426 6.0836 1.5652 0.0000 -10915.3787 1474.7165 0.0000 0.0000 1750.0265 -7682.3442 293.6490 -9432.3707 -7679.1745 300.1516 184.6067 305.5839 30379.4362 2.2500 2.3753
ENERGY: 1900000 0.7341 8.8660 1.6477 0.0000 -10814.3730 1396.0420 0.0000 0.0000 1836.5053 -7570.5778 308.1599 -9407.0831 -7567.7491 300.1399 -678.3289 -581.8247 31274.0770 2.1214 2.2255
TCL: Exiting due to exit command.
