Info: SIMULATION PARAMETERS:
Info: TIMESTEP               2
Info: NUMBER OF STEPS        0
Info: STEPS PER CYCLE        10
Info: PERIODIC CELL BASIS 1  32.955 0 0
Info: PERIODIC CELL BASIS 2  0 35.779 0
Info: PERIODIC CELL BASIS 3  0 0 37.451
Info: PERIODIC CELL CENTER   0 0 0
Info: WRAPPING WATERS AROUND PERIODIC BOUNDARIES ON OUTPUT.
Info: WRAPPING ALL CLUSTERS AROUND PERIODIC BOUNDARIES ON OUTPUT.
Info: FIRST LDB TIMESTEP     50
Info: LAST LDB TIMESTEP     -1
Info: HOM BACKGROUND SCALING 1
Info: PME BACKGROUND SCALING 1
Info: MIN ATOMS PER PATCH    40
Info: EMPTY PATCH LOAD       40 ATOMS
Info: INITIAL TEMPERATURE    300
Info: CENTER OF MASS MOVING INITIALLY? NO
Info: DIELECTRIC             1
Info: EXCLUDE                SCALED ONE-FOUR
Info: 1-4 ELECTROSTATICS SCALED BY 0.833333
Info: MODIFIED 1-4 VDW PARAMETERS WILL BE USED
Info: DCD FILENAME           mobley_4479135_equil.dcd
Info: DCD FREQUENCY          100000
Info: DCD FIRST STEP         100000
Info: DCD FILE WILL CONTAIN UNIT CELL DATA
Info: XST FILENAME           mobley_4479135_equil.xst
Info: XST FREQUENCY          100000
Info: NO VELOCITY DCD OUTPUT
Info: NO FORCE DCD OUTPUT
Info: OUTPUT FILENAME        mobley_4479135_equil
Info: BINARY OUTPUT FILES WILL BE USED
Info: RESTART FILENAME       mobley_4479135_equil.restart
Info: RESTART FREQUENCY      100000
Info: BINARY RESTART FILES WILL BE USED
Info: CUTOFF                 9
Info: PAIRLIST DISTANCE      11
Info: PAIRLIST SHRINK RATE   0.01
Info: PAIRLIST GROW RATE     0.01
Info: PAIRLIST TRIGGER       0.3
Info: PAIRLISTS PER CYCLE    2
Info: PAIRLISTS ENABLED
Info: MARGIN                 8
Info: HYDROGEN GROUP CUTOFF  2.5
Info: PATCH DIMENSION        21.5
Info: ENERGY OUTPUT STEPS    100000
Info: ENERGY EVALUATION STEPS    100000
Info: OUTPUT ENERGY PRECISION 4
Info: CROSSTERM ENERGY INCLUDED IN DIHEDRAL
Info: TIMING OUTPUT STEPS    1000000
Info: PRESSURE OUTPUT STEPS  100000
Info: LANGEVIN DYNAMICS ACTIVE
Info: LANGEVIN TEMPERATURE   30
Info: LANGEVIN USING BBK INTEGRATOR
Info: LANGEVIN DAMPING COEFFICIENT IS 1 INVERSE PS
Info: LANGEVIN DYNAMICS APPLIED TO HYDROGENS
Info: LANGEVIN PISTON PRESSURE CONTROL ACTIVE
Info:        TARGET PRESSURE IS 1.01325 BAR
Info:     OSCILLATION PERIOD IS 50 FS
Info:             DECAY TIME IS 25 FS
Info:     PISTON TEMPERATURE IS 300 K
Info:       PRESSURE CONTROL IS GROUP-BASED
Info:    INITIAL STRAIN RATE IS 0 0 0
Info:       CELL FLUCTUATION IS ISOTROPIC
Info: PARTICLE MESH EWALD (PME) ACTIVE
Info: PME TOLERANCE               1e-06
Info: PME EWALD COEFFICIENT       0.348832
Info: PME INTERPOLATION ORDER     4
Info: PME GRID DIMENSIONS         36 36 40
Info: PME MAXIMUM GRID SPACING    1
Info: FULL ELECTROSTATIC EVALUATION FREQUENCY      2
Info: USING VERLET I (r-RESPA) MTS SCHEME.
Info: C1 SPLITTING OF LONG RANGE ELECTROSTATICS
Info: PLACING ATOMS IN PATCHES BY HYDROGEN GROUPS
Info: RIGID BONDS TO HYDROGEN : ALL
Info:         ERROR TOLERANCE : 1e-08
Info:          MAX ITERATIONS : 100
Info: RIGID WATER USING SETTLE ALGORITHM
Info: RANDOM NUMBER SEED     1743246722
Info: USE HYDROGEN BONDS?    NO
Info: Using AMBER format force field!
Info: AMBER PARM FILE        mobley_4479135.prmtop
Info: COORDINATE PDB         mobley_4479135.pdb
Info: Exclusions will be read from PARM file!
Info: SCNB (VDW SCALING)     2
Info: USING ARITHMETIC MEAN TO COMBINE L-J SIGMA PARAMETERS
Info: BINARY COORDINATES     mobley_4479135_min.coor
Info: SUMMARY OF PARAMETERS:
Info: 7 BONDS
Info: 7 ANGLES
Info:   7 HARMONIC
Info:   0 COSINE-BASED
Info: 4 DIHEDRAL
Info: 0 IMPROPER
Info: 0 CROSSTERM
Info: 0 VDW
Info: 10 VDW_PAIRS
Info: 0 NBTHOLE_PAIRS
Info: STRUCTURE SUMMARY:
Info: 2990 ATOMS
Info: 2991 BONDS
Info: 42 ANGLES
Info: 74 DIHEDRALS
Info: 0 IMPROPERS
Info: 0 CROSSTERMS
Info: 3087 EXCLUSIONS
Info: 2976 RIGID BONDS
Info: 5994 DEGREES OF FREEDOM
Info: 1002 HYDROGEN GROUPS
Info: 3 ATOMS IN LARGEST HYDROGEN GROUP
Info: 1002 MIGRATION GROUPS
Info: 3 ATOMS IN LARGEST MIGRATION GROUP
Info: TOTAL MASS = 17980 amu
Info: TOTAL CHARGE = 0.00040002 e
Info: MASS DENSITY = 0.676141 g/cm^3
Info: ATOM DENSITY = 0.0677108 atoms/A^3
Info: ADDED 0 IMPLICIT EXCLUSIONS
Info: NONBONDED TABLE R-SQUARED SPACING: 0.0625
Info: NONBONDED TABLE SIZE: 705 POINTS
Info: REMOVING COM VELOCITY -0.0845166 -0.0701486 -0.201726
TCL: Running for 100000 steps
ETITLE: TS BOND ANGLE DIHED IMPRP ELECT VDW BOUNDARY MISC KINETIC TOTAL TEMP POTENTIAL TOTAL3 TEMPAVG PRESSURE GPRESSURE VOLUME PRESSAVG GPRESSAVG
ENERGY: 0 0.6803 0.3916 3.8266 0.0000 -13768.5633 2412.9557 0.0000 0.0000 1758.3728 -9592.3363 295.2464 -11350.7091 -9591.9623 295.2464 252.2487 289.5611 44158.3597 252.2487 289.5611
ENERGY: 100000 1.0222 1.1226 4.9862 0.0000 -14189.8572 2376.9945 0.0000 0.0000 179.8389 -11625.8928 30.1965 -11805.7316 -11625.2875 30.8956 -1138.4610 -1073.8258 29977.0163 3.8929 3.8605
TCL: Running 100000 steps at 60 kelvin.
TCL: Setting parameter langevinTemp to 60
TCL: Running for 100000 steps
ETITLE: TS BOND ANGLE DIHED IMPRP ELECT VDW BOUNDARY MISC KINETIC TOTAL TEMP POTENTIAL TOTAL3 TEMPAVG PRESSURE GPRESSURE VOLUME PRESSAVG GPRESSAVG
ENERGY: 100000 1.0222 1.1226 4.9862 0.0000 -14189.8572 2376.9945 0.0000 0.0000 179.7512 -11625.9804 30.1818 -11805.7316 -11625.5375 30.1818 -1138.5616 -1073.7180 29977.0163 -1138.5616 -1073.7180
ENERGY: 200000 0.8391 1.7906 6.6204 0.0000 -14142.6193 2382.8953 0.0000 0.0000 337.8021 -11412.6718 56.7200 -11750.4739 -11411.5383 60.0510 -727.5224 -671.9990 29686.0231 3.9581 3.8730
TCL: Running 100000 steps at 90 kelvin.
TCL: Setting parameter langevinTemp to 90
TCL: Running for 100000 steps
ETITLE: TS BOND ANGLE DIHED IMPRP ELECT VDW BOUNDARY MISC KINETIC TOTAL TEMP POTENTIAL TOTAL3 TEMPAVG PRESSURE GPRESSURE VOLUME PRESSAVG GPRESSAVG
ENERGY: 200000 0.8391 1.7906 6.6204 0.0000 -14142.6193 2382.8953 0.0000 0.0000 337.6260 -11412.8479 56.6904 -11750.4739 -11411.9093 56.6904 -712.6544 -672.3205 29686.0231 -712.6544 -672.3205
ENERGY: 300000 2.0828 2.0919 7.2551 0.0000 -14024.3500 2349.7808 0.0000 0.0000 552.4561 -11110.6833 92.7623 -11663.1394 -11108.8784 90.1907 -692.9315 -608.9178 29460.5032 3.1418 3.1325
TCL: Running 100000 steps at 120 kelvin.
TCL: Setting parameter langevinTemp to 120
TCL: Running for 100000 steps
ETITLE: TS BOND ANGLE DIHED IMPRP ELECT VDW BOUNDARY MISC KINETIC TOTAL TEMP POTENTIAL TOTAL3 TEMPAVG PRESSURE GPRESSURE VOLUME PRESSAVG GPRESSAVG
ENERGY: 300000 2.0828 2.0919 7.2551 0.0000 -14024.3500 2349.7808 0.0000 0.0000 552.1891 -11110.9502 92.7175 -11663.1394 -11109.4549 92.7175 -657.6733 -608.6979 29460.5032 -657.6733 -608.6979
ENERGY: 400000 1.3467 1.9489 7.0603 0.0000 -13812.5707 2265.3417 0.0000 0.0000 722.6975 -10814.1756 121.3473 -11536.8731 -10812.6861 119.7549 -630.4912 -544.5755 29277.2924 5.1038 5.0586
TCL: Running 100000 steps at 150 kelvin.
TCL: Setting parameter langevinTemp to 150
TCL: Running for 100000 steps
ETITLE: TS BOND ANGLE DIHED IMPRP ELECT VDW BOUNDARY MISC KINETIC TOTAL TEMP POTENTIAL TOTAL3 TEMPAVG PRESSURE GPRESSURE VOLUME PRESSAVG GPRESSAVG
ENERGY: 400000 1.3467 1.9489 7.0603 0.0000 -13812.5707 2265.3417 0.0000 0.0000 722.3569 -10814.5163 121.2901 -11536.8731 -10812.5130 121.2901 -606.5537 -545.5526 29277.2924 -606.5537 -545.5526
ENERGY: 500000 3.7558 5.5593 8.2073 0.0000 -13479.7907 2129.4015 0.0000 0.0000 908.9162 -10423.9507 152.6151 -11332.8669 -10421.2409 149.8737 -1350.7383 -1300.8258 29735.3827 1.5721 1.5103
TCL: Running 100000 steps at 180 kelvin.
TCL: Setting parameter langevinTemp to 180
TCL: Running for 100000 steps
ETITLE: TS BOND ANGLE DIHED IMPRP ELECT VDW BOUNDARY MISC KINETIC TOTAL TEMP POTENTIAL TOTAL3 TEMPAVG PRESSURE GPRESSURE VOLUME PRESSAVG GPRESSAVG
ENERGY: 500000 3.7558 5.5593 8.2073 0.0000 -13479.7907 2129.4015 0.0000 0.0000 908.4827 -10424.3842 152.5423 -11332.8669 -10422.2228 152.5423 -1360.5613 -1300.9424 29735.3827 -1360.5613 -1300.9424
ENERGY: 600000 3.1210 5.2357 8.5016 0.0000 -13289.0645 2190.5890 0.0000 0.0000 1068.3839 -10013.2332 179.3911 -11081.6171 -10010.5160 179.3909 216.6185 307.3109 29436.2755 3.3248 3.3799
TCL: Running 100000 steps at 210 kelvin.
TCL: Setting parameter langevinTemp to 210
TCL: Running for 100000 steps
ETITLE: TS BOND ANGLE DIHED IMPRP ELECT VDW BOUNDARY MISC KINETIC TOTAL TEMP POTENTIAL TOTAL3 TEMPAVG PRESSURE GPRESSURE VOLUME PRESSAVG GPRESSAVG
ENERGY: 600000 3.1210 5.2357 8.5016 0.0000 -13289.0645 2190.5890 0.0000 0.0000 1067.8531 -10013.7640 179.3020 -11081.6171 -10011.3807 179.3020 257.5244 308.1970 29436.2755 257.5244 308.1970
ENERGY: 700000 4.4131 6.2535 7.3363 0.0000 -12536.3871 1902.3164 0.0000 0.0000 1266.4039 -9349.6639 212.6405 -10616.0678 -9346.1260 209.6101 -129.3143 -104.4729 29126.6981 4.8225 4.6825
TCL: Running 100000 steps at 240 kelvin.
TCL: Setting parameter langevinTemp to 240
TCL: Running for 100000 steps
ETITLE: TS BOND ANGLE DIHED IMPRP ELECT VDW BOUNDARY MISC KINETIC TOTAL TEMP POTENTIAL TOTAL3 TEMPAVG PRESSURE GPRESSURE VOLUME PRESSAVG GPRESSAVG
ENERGY: 700000 4.4131 6.2535 7.3363 0.0000 -12536.3871 1902.3164 0.0000 0.0000 1265.7762 -9350.2916 212.5351 -10616.0678 -9347.9701 212.5351 -173.6813 -104.2267 29126.6981 -173.6813 -104.2267
ENERGY: 800000 5.9445 7.2493 13.9437 0.0000 -11933.4915 1763.9899 0.0000 0.0000 1431.7505 -8710.6136 240.4036 -10142.3641 -8708.8205 239.9595 82.6215 171.2036 29614.5281 3.0940 3.0858
TCL: Running 100000 steps at 270 kelvin.
TCL: Setting parameter langevinTemp to 270
TCL: Running for 100000 steps
ETITLE: TS BOND ANGLE DIHED IMPRP ELECT VDW BOUNDARY MISC KINETIC TOTAL TEMP POTENTIAL TOTAL3 TEMPAVG PRESSURE GPRESSURE VOLUME PRESSAVG GPRESSAVG
ENERGY: 800000 5.9445 7.2493 13.9437 0.0000 -11933.4915 1763.9899 0.0000 0.0000 1431.0517 -8711.3123 240.2863 -10142.3641 -8709.0139 240.2863 92.1022 169.0340 29614.5281 92.1022 169.0340
ENERGY: 900000 6.9646 4.3816 14.3054 0.0000 -11228.6317 1526.9829 0.0000 0.0000 1650.6804 -8025.3167 277.1639 -9675.9971 -8023.0027 270.2460 -175.5283 -59.1439 29948.2805 3.8955 3.7519
TCL: Running 1000000 steps at 300 kelvin.
TCL: Setting parameter langevinTemp to 300
TCL: Running for 1000000 steps
ETITLE: TS BOND ANGLE DIHED IMPRP ELECT VDW BOUNDARY MISC KINETIC TOTAL TEMP POTENTIAL TOTAL3 TEMPAVG PRESSURE GPRESSURE VOLUME PRESSAVG GPRESSAVG
ENERGY: 900000 6.9646 4.3816 14.3054 0.0000 -11228.6317 1526.9829 0.0000 0.0000 1649.8972 -8026.1000 277.0324 -9675.9971 -8023.6830 277.0324 -148.0754 -58.6554 29948.2805 -148.0754 -58.6554
ENERGY: 1100000 3.7756 7.5375 15.1111 0.0000 -10680.9207 1348.6890 0.0000 0.0000 1783.3358 -7522.4718 299.4379 -9305.8076 -7518.4853 300.6429 -656.4275 -596.2701 31027.8788 2.1397 1.9295
ENERGY: 1300000 5.6310 7.8865 12.0792 0.0000 -10812.4847 1474.8025 0.0000 0.0000 1759.2781 -7552.8073 295.3984 -9312.0854 -7549.5345 300.1971 411.3379 432.6294 30389.0618 2.7592 2.7314
ENERGY: 1500000 3.9213 5.5908 9.6841 0.0000 -10814.2414 1480.8063 0.0000 0.0000 1768.4881 -7545.7507 296.9448 -9314.2388 -7543.1587 300.1781 488.4311 606.5464 30039.5263 2.5764 2.4947
ENERGY: 1700000 7.2233 4.8029 10.2513 0.0000 -10860.6868 1508.2593 0.0000 0.0000 1815.3713 -7514.7787 304.8169 -9330.1500 -7512.0018 300.6955 250.6911 370.9875 31100.7066 3.5425 3.5356
ENERGY: 1900000 4.7173 8.2645 11.8308 0.0000 -10759.5412 1404.4571 0.0000 0.0000 1744.1208 -7586.1507 292.8534 -9330.2715 -7582.9733 300.2150 -421.3287 -329.5815 30562.8922 2.5613 2.4161
TCL: Exiting due to exit command.
