Info: SIMULATION PARAMETERS:
Info: TIMESTEP               2
Info: NUMBER OF STEPS        0
Info: STEPS PER CYCLE        10
Info: PERIODIC CELL BASIS 1  35.01 0 0
Info: PERIODIC CELL BASIS 2  0 35.411 0
Info: PERIODIC CELL BASIS 3  0 0 35.644
Info: PERIODIC CELL CENTER   0 0 0
Info: WRAPPING WATERS AROUND PERIODIC BOUNDARIES ON OUTPUT.
Info: WRAPPING ALL CLUSTERS AROUND PERIODIC BOUNDARIES ON OUTPUT.
Info: FIRST LDB TIMESTEP     50
Info: LAST LDB TIMESTEP     -1
Info: HOM BACKGROUND SCALING 1
Info: PME BACKGROUND SCALING 1
Info: MIN ATOMS PER PATCH    40
Info: EMPTY PATCH LOAD       40 ATOMS
Info: INITIAL TEMPERATURE    300
Info: CENTER OF MASS MOVING INITIALLY? NO
Info: DIELECTRIC             1
Info: EXCLUDE                SCALED ONE-FOUR
Info: 1-4 ELECTROSTATICS SCALED BY 0.833333
Info: MODIFIED 1-4 VDW PARAMETERS WILL BE USED
Info: DCD FILENAME           mobley_9029594_equil.dcd
Info: DCD FREQUENCY          100000
Info: DCD FIRST STEP         100000
Info: DCD FILE WILL CONTAIN UNIT CELL DATA
Info: XST FILENAME           mobley_9029594_equil.xst
Info: XST FREQUENCY          100000
Info: NO VELOCITY DCD OUTPUT
Info: NO FORCE DCD OUTPUT
Info: OUTPUT FILENAME        mobley_9029594_equil
Info: BINARY OUTPUT FILES WILL BE USED
Info: RESTART FILENAME       mobley_9029594_equil.restart
Info: RESTART FREQUENCY      100000
Info: BINARY RESTART FILES WILL BE USED
Info: CUTOFF                 9
Info: PAIRLIST DISTANCE      11
Info: PAIRLIST SHRINK RATE   0.01
Info: PAIRLIST GROW RATE     0.01
Info: PAIRLIST TRIGGER       0.3
Info: PAIRLISTS PER CYCLE    2
Info: PAIRLISTS ENABLED
Info: MARGIN                 8
Info: HYDROGEN GROUP CUTOFF  2.5
Info: PATCH DIMENSION        21.5
Info: ENERGY OUTPUT STEPS    100000
Info: ENERGY EVALUATION STEPS    100000
Info: OUTPUT ENERGY PRECISION 4
Info: CROSSTERM ENERGY INCLUDED IN DIHEDRAL
Info: TIMING OUTPUT STEPS    1000000
Info: PRESSURE OUTPUT STEPS  100000
Info: LANGEVIN DYNAMICS ACTIVE
Info: LANGEVIN TEMPERATURE   30
Info: LANGEVIN USING BBK INTEGRATOR
Info: LANGEVIN DAMPING COEFFICIENT IS 1 INVERSE PS
Info: LANGEVIN DYNAMICS APPLIED TO HYDROGENS
Info: LANGEVIN PISTON PRESSURE CONTROL ACTIVE
Info:        TARGET PRESSURE IS 1.01325 BAR
Info:     OSCILLATION PERIOD IS 50 FS
Info:             DECAY TIME IS 25 FS
Info:     PISTON TEMPERATURE IS 300 K
Info:       PRESSURE CONTROL IS GROUP-BASED
Info:    INITIAL STRAIN RATE IS 0 0 0
Info:       CELL FLUCTUATION IS ISOTROPIC
Info: PARTICLE MESH EWALD (PME) ACTIVE
Info: PME TOLERANCE               1e-06
Info: PME EWALD COEFFICIENT       0.348832
Info: PME INTERPOLATION ORDER     4
Info: PME GRID DIMENSIONS         36 36 36
Info: PME MAXIMUM GRID SPACING    1
Info: FULL ELECTROSTATIC EVALUATION FREQUENCY      2
Info: USING VERLET I (r-RESPA) MTS SCHEME.
Info: C1 SPLITTING OF LONG RANGE ELECTROSTATICS
Info: PLACING ATOMS IN PATCHES BY HYDROGEN GROUPS
Info: RIGID BONDS TO HYDROGEN : ALL
Info:         ERROR TOLERANCE : 1e-08
Info:          MAX ITERATIONS : 100
Info: RIGID WATER USING SETTLE ALGORITHM
Info: RANDOM NUMBER SEED     1743154816
Info: USE HYDROGEN BONDS?    NO
Info: Using AMBER format force field!
Info: AMBER PARM FILE        mobley_9029594.prmtop
Info: COORDINATE PDB         mobley_9029594.pdb
Info: Exclusions will be read from PARM file!
Info: SCNB (VDW SCALING)     2
Info: USING ARITHMETIC MEAN TO COMBINE L-J SIGMA PARAMETERS
Info: BINARY COORDINATES     mobley_9029594_min.coor
Info: SUMMARY OF PARAMETERS:
Info: 4 BONDS
Info: 2 ANGLES
Info:   2 HARMONIC
Info:   0 COSINE-BASED
Info: 0 DIHEDRAL
Info: 0 IMPROPER
Info: 0 CROSSTERM
Info: 0 VDW
Info: 15 VDW_PAIRS
Info: 0 NBTHOLE_PAIRS
Info: STRUCTURE SUMMARY:
Info: 2975 ATOMS
Info: 2974 BONDS
Info: 6 ANGLES
Info: 0 DIHEDRALS
Info: 0 IMPROPERS
Info: 0 CROSSTERMS
Info: 2980 EXCLUSIONS
Info: 2973 RIGID BONDS
Info: 5952 DEGREES OF FREEDOM
Info: 992 HYDROGEN GROUPS
Info: 4 ATOMS IN LARGEST HYDROGEN GROUP
Info: 992 MIGRATION GROUPS
Info: 4 ATOMS IN LARGEST MIGRATION GROUP
Info: TOTAL MASS = 17869.9 amu
Info: TOTAL CHARGE = 7.45058e-09 e
Info: MASS DENSITY = 0.671528 g/cm^3
Info: ATOM DENSITY = 0.067324 atoms/A^3
Info: ADDED 0 IMPLICIT EXCLUSIONS
Info: NONBONDED TABLE R-SQUARED SPACING: 0.0625
Info: NONBONDED TABLE SIZE: 705 POINTS
Info: REMOVING COM VELOCITY -0.106804 0.0252733 0.187379
TCL: Running for 100000 steps
ETITLE: TS BOND ANGLE DIHED IMPRP ELECT VDW BOUNDARY MISC KINETIC TOTAL TEMP POTENTIAL TOTAL3 TEMPAVG PRESSURE GPRESSURE VOLUME PRESSAVG GPRESSAVG
ENERGY: 0 0.0020 0.1364 0.0000 0.0000 -13809.1941 2459.4297 0.0000 0.0000 1776.3902 -9573.2356 300.3764 -11349.6259 -9572.8597 300.3764 637.1948 669.9216 44189.2608 637.1948 669.9216
ENERGY: 100000 0.0659 0.2844 0.0000 0.0000 -14454.6738 2576.2597 0.0000 0.0000 180.4545 -11697.6092 30.5137 -11878.0637 -11697.2122 30.9189 756.5719 783.0058 28769.1214 3.5589 3.5830
TCL: Running 100000 steps at 60 kelvin.
TCL: Setting parameter langevinTemp to 60
TCL: Running for 100000 steps
ETITLE: TS BOND ANGLE DIHED IMPRP ELECT VDW BOUNDARY MISC KINETIC TOTAL TEMP POTENTIAL TOTAL3 TEMPAVG PRESSURE GPRESSURE VOLUME PRESSAVG GPRESSAVG
ENERGY: 100000 0.0659 0.2844 0.0000 0.0000 -14454.6738 2576.2597 0.0000 0.0000 180.3634 -11697.7003 30.4983 -11878.0637 -11697.3766 30.4983 744.3570 782.7771 28769.1214 744.3570 782.7771
ENERGY: 200000 0.0042 0.2651 0.0000 0.0000 -14321.0917 2516.0202 0.0000 0.0000 344.0051 -11460.7972 58.1691 -11804.8023 -11460.2577 60.0083 459.7863 536.3983 28631.9068 4.9558 4.9836
TCL: Running 100000 steps at 90 kelvin.
TCL: Setting parameter langevinTemp to 90
TCL: Running for 100000 steps
ETITLE: TS BOND ANGLE DIHED IMPRP ELECT VDW BOUNDARY MISC KINETIC TOTAL TEMP POTENTIAL TOTAL3 TEMPAVG PRESSURE GPRESSURE VOLUME PRESSAVG GPRESSAVG
ENERGY: 200000 0.0042 0.2651 0.0000 0.0000 -14321.0917 2516.0202 0.0000 0.0000 343.8267 -11460.9755 58.1389 -11804.8023 -11460.4274 58.1389 483.3351 536.3357 28631.9068 483.3351 536.3357
ENERGY: 300000 0.0006 0.6699 0.0000 0.0000 -14180.1011 2495.3929 0.0000 0.0000 529.8454 -11154.1923 89.5935 -11684.0377 -11153.3934 89.9247 673.7706 725.4598 28834.1308 4.1416 4.0871
TCL: Running 100000 steps at 120 kelvin.
TCL: Setting parameter langevinTemp to 120
TCL: Running for 100000 steps
ETITLE: TS BOND ANGLE DIHED IMPRP ELECT VDW BOUNDARY MISC KINETIC TOTAL TEMP POTENTIAL TOTAL3 TEMPAVG PRESSURE GPRESSURE VOLUME PRESSAVG GPRESSAVG
ENERGY: 300000 0.0006 0.6699 0.0000 0.0000 -14180.1011 2495.3929 0.0000 0.0000 529.5755 -11154.4622 89.5479 -11684.0377 -11153.5640 89.5479 675.3074 724.6894 28834.1308 675.3074 724.6894
ENERGY: 400000 0.0048 0.8710 0.0000 0.0000 -13958.7418 2349.8148 0.0000 0.0000 682.9404 -10925.1108 115.4809 -11608.0511 -10923.1813 119.8257 -185.6896 -79.7801 28829.4612 3.4446 3.4024
TCL: Running 100000 steps at 150 kelvin.
TCL: Setting parameter langevinTemp to 150
TCL: Running for 100000 steps
ETITLE: TS BOND ANGLE DIHED IMPRP ELECT VDW BOUNDARY MISC KINETIC TOTAL TEMP POTENTIAL TOTAL3 TEMPAVG PRESSURE GPRESSURE VOLUME PRESSAVG GPRESSAVG
ENERGY: 400000 0.0048 0.8710 0.0000 0.0000 -13958.7418 2349.8148 0.0000 0.0000 682.5794 -10925.4717 115.4199 -11608.0511 -10923.8038 115.4199 -140.6048 -79.7239 28829.4612 -140.6048 -79.7239
ENERGY: 500000 0.0688 0.8824 0.0000 0.0000 -13681.6258 2255.6915 0.0000 0.0000 887.3998 -10537.5832 150.0537 -11424.9830 -10534.2106 150.3998 -264.6581 -232.4675 29171.3764 3.7067 3.8778
TCL: Running 100000 steps at 180 kelvin.
TCL: Setting parameter langevinTemp to 180
TCL: Running for 100000 steps
ETITLE: TS BOND ANGLE DIHED IMPRP ELECT VDW BOUNDARY MISC KINETIC TOTAL TEMP POTENTIAL TOTAL3 TEMPAVG PRESSURE GPRESSURE VOLUME PRESSAVG GPRESSAVG
ENERGY: 500000 0.0688 0.8824 0.0000 0.0000 -13681.6258 2255.6915 0.0000 0.0000 886.9377 -10538.0453 149.9756 -11424.9830 -10536.7183 149.9756 -266.0425 -231.0740 29171.3764 -266.0425 -231.0740
ENERGY: 600000 0.0000 0.6814 0.0000 0.0000 -13235.1235 2152.0606 0.0000 0.0000 1046.4775 -10035.9039 176.9528 -11082.3814 -10032.4542 180.0352 12.2655 92.6304 29149.7227 3.9133 3.8215
TCL: Running 100000 steps at 210 kelvin.
TCL: Setting parameter langevinTemp to 210
TCL: Running for 100000 steps
ETITLE: TS BOND ANGLE DIHED IMPRP ELECT VDW BOUNDARY MISC KINETIC TOTAL TEMP POTENTIAL TOTAL3 TEMPAVG PRESSURE GPRESSURE VOLUME PRESSAVG GPRESSAVG
ENERGY: 600000 0.0000 0.6814 0.0000 0.0000 -13235.1235 2152.0606 0.0000 0.0000 1045.9650 -10036.4165 176.8661 -11082.3814 -10034.6724 176.8661 25.2028 93.8980 29149.7227 25.2028 93.8980
ENERGY: 700000 1.5841 0.2179 0.0000 0.0000 -12493.4702 1838.0559 0.0000 0.0000 1270.3150 -9383.2973 214.8023 -10653.6123 -9381.1036 210.3692 -698.6709 -647.5479 29044.1295 3.1306 3.3661
TCL: Running 100000 steps at 240 kelvin.
TCL: Setting parameter langevinTemp to 240
TCL: Running for 100000 steps
ETITLE: TS BOND ANGLE DIHED IMPRP ELECT VDW BOUNDARY MISC KINETIC TOTAL TEMP POTENTIAL TOTAL3 TEMPAVG PRESSURE GPRESSURE VOLUME PRESSAVG GPRESSAVG
ENERGY: 700000 1.5841 0.2179 0.0000 0.0000 -12493.4702 1838.0559 0.0000 0.0000 1269.6467 -9383.9656 214.6893 -10653.6123 -9381.5946 214.6893 -733.4105 -647.5075 29044.1295 -733.4105 -647.5075
ENERGY: 800000 0.1231 1.1315 0.0000 0.0000 -11871.0301 1659.6145 0.0000 0.0000 1413.6023 -8796.5588 239.0313 -10210.1611 -8793.7665 239.5318 -681.8887 -610.7408 29273.6316 4.0177 4.0361
TCL: Running 100000 steps at 270 kelvin.
TCL: Setting parameter langevinTemp to 270
TCL: Running for 100000 steps
ETITLE: TS BOND ANGLE DIHED IMPRP ELECT VDW BOUNDARY MISC KINETIC TOTAL TEMP POTENTIAL TOTAL3 TEMPAVG PRESSURE GPRESSURE VOLUME PRESSAVG GPRESSAVG
ENERGY: 800000 0.1231 1.1315 0.0000 0.0000 -11871.0301 1659.6145 0.0000 0.0000 1412.8802 -8797.2809 238.9092 -10210.1611 -8795.1557 238.9092 -687.8974 -610.7083 29273.6316 -687.8974 -610.7083
ENERGY: 900000 1.4418 0.5322 0.0000 0.0000 -11544.7280 1717.6236 0.0000 0.0000 1646.7538 -8178.3766 278.4557 -9825.1304 -8175.7023 270.4550 1007.2912 1058.7936 29682.4750 2.2146 2.4080
TCL: Running 1000000 steps at 300 kelvin.
TCL: Setting parameter langevinTemp to 300
TCL: Running for 1000000 steps
ETITLE: TS BOND ANGLE DIHED IMPRP ELECT VDW BOUNDARY MISC KINETIC TOTAL TEMP POTENTIAL TOTAL3 TEMPAVG PRESSURE GPRESSURE VOLUME PRESSAVG GPRESSAVG
ENERGY: 900000 1.4418 0.5322 0.0000 0.0000 -11544.7280 1717.6236 0.0000 0.0000 1646.0023 -8179.1281 278.3286 -9825.1304 -8176.1861 278.3286 976.5241 1056.1684 29682.4750 976.5241 1056.1684
ENERGY: 1100000 0.1321 1.1472 0.0000 0.0000 -10793.1013 1507.5101 0.0000 0.0000 1765.0394 -7519.2725 298.4571 -9284.3118 -7515.1552 300.7570 593.3482 638.9352 30636.6501 4.3055 4.4427
ENERGY: 1300000 1.6024 0.8940 0.0000 0.0000 -10984.6317 1575.8839 0.0000 0.0000 1758.4215 -7647.8299 297.3380 -9406.2514 -7643.2835 300.7157 890.8274 1022.9894 30453.4511 3.2106 3.2887
ENERGY: 1500000 0.0322 2.0531 0.0000 0.0000 -10841.0186 1487.5108 0.0000 0.0000 1730.9753 -7620.4472 292.6970 -9351.4225 -7617.1575 300.2167 49.0095 140.8674 31106.6065 3.0580 2.9730
ENERGY: 1700000 0.2439 1.1199 0.0000 0.0000 -10772.0504 1440.5334 0.0000 0.0000 1718.2313 -7611.9218 290.5421 -9330.1531 -7609.5257 299.8209 -466.4903 -335.7220 31082.7480 3.5619 3.6091
ENERGY: 1900000 0.0829 3.4917 0.0000 0.0000 -10914.5378 1477.2623 0.0000 0.0000 1790.6325 -7643.0684 302.7847 -9433.7009 -7638.0805 299.9081 -26.1011 64.7798 30691.4894 2.6282 2.7822
TCL: Exiting due to exit command.
