Info: SIMULATION PARAMETERS:
Info: TIMESTEP               2
Info: NUMBER OF STEPS        0
Info: STEPS PER CYCLE        10
Info: PERIODIC CELL BASIS 1  34.207 0 0
Info: PERIODIC CELL BASIS 2  0 35.411 0
Info: PERIODIC CELL BASIS 3  0 0 35.723
Info: PERIODIC CELL CENTER   0 0 0
Info: WRAPPING WATERS AROUND PERIODIC BOUNDARIES ON OUTPUT.
Info: WRAPPING ALL CLUSTERS AROUND PERIODIC BOUNDARIES ON OUTPUT.
Info: FIRST LDB TIMESTEP     50
Info: LAST LDB TIMESTEP     -1
Info: HOM BACKGROUND SCALING 1
Info: PME BACKGROUND SCALING 1
Info: MIN ATOMS PER PATCH    40
Info: EMPTY PATCH LOAD       40 ATOMS
Info: INITIAL TEMPERATURE    300
Info: CENTER OF MASS MOVING INITIALLY? NO
Info: DIELECTRIC             1
Info: EXCLUDE                SCALED ONE-FOUR
Info: 1-4 ELECTROSTATICS SCALED BY 0.833333
Info: MODIFIED 1-4 VDW PARAMETERS WILL BE USED
Info: DCD FILENAME           mobley_7578802_equil.dcd
Info: DCD FREQUENCY          100000
Info: DCD FIRST STEP         100000
Info: DCD FILE WILL CONTAIN UNIT CELL DATA
Info: XST FILENAME           mobley_7578802_equil.xst
Info: XST FREQUENCY          100000
Info: NO VELOCITY DCD OUTPUT
Info: NO FORCE DCD OUTPUT
Info: OUTPUT FILENAME        mobley_7578802_equil
Info: BINARY OUTPUT FILES WILL BE USED
Info: RESTART FILENAME       mobley_7578802_equil.restart
Info: RESTART FREQUENCY      100000
Info: BINARY RESTART FILES WILL BE USED
Info: CUTOFF                 9
Info: PAIRLIST DISTANCE      11
Info: PAIRLIST SHRINK RATE   0.01
Info: PAIRLIST GROW RATE     0.01
Info: PAIRLIST TRIGGER       0.3
Info: PAIRLISTS PER CYCLE    2
Info: PAIRLISTS ENABLED
Info: MARGIN                 8
Info: HYDROGEN GROUP CUTOFF  2.5
Info: PATCH DIMENSION        21.5
Info: ENERGY OUTPUT STEPS    100000
Info: ENERGY EVALUATION STEPS    100000
Info: OUTPUT ENERGY PRECISION 4
Info: CROSSTERM ENERGY INCLUDED IN DIHEDRAL
Info: TIMING OUTPUT STEPS    1000000
Info: PRESSURE OUTPUT STEPS  100000
Info: LANGEVIN DYNAMICS ACTIVE
Info: LANGEVIN TEMPERATURE   30
Info: LANGEVIN USING BBK INTEGRATOR
Info: LANGEVIN DAMPING COEFFICIENT IS 1 INVERSE PS
Info: LANGEVIN DYNAMICS APPLIED TO HYDROGENS
Info: LANGEVIN PISTON PRESSURE CONTROL ACTIVE
Info:        TARGET PRESSURE IS 1.01325 BAR
Info:     OSCILLATION PERIOD IS 50 FS
Info:             DECAY TIME IS 25 FS
Info:     PISTON TEMPERATURE IS 300 K
Info:       PRESSURE CONTROL IS GROUP-BASED
Info:    INITIAL STRAIN RATE IS 0 0 0
Info:       CELL FLUCTUATION IS ISOTROPIC
Info: PARTICLE MESH EWALD (PME) ACTIVE
Info: PME TOLERANCE               1e-06
Info: PME EWALD COEFFICIENT       0.348832
Info: PME INTERPOLATION ORDER     4
Info: PME GRID DIMENSIONS         36 36 36
Info: PME MAXIMUM GRID SPACING    1
Info: FULL ELECTROSTATIC EVALUATION FREQUENCY      2
Info: USING VERLET I (r-RESPA) MTS SCHEME.
Info: C1 SPLITTING OF LONG RANGE ELECTROSTATICS
Info: PLACING ATOMS IN PATCHES BY HYDROGEN GROUPS
Info: RIGID BONDS TO HYDROGEN : ALL
Info:         ERROR TOLERANCE : 1e-08
Info:          MAX ITERATIONS : 100
Info: RIGID WATER USING SETTLE ALGORITHM
Info: RANDOM NUMBER SEED     1743153443
Info: USE HYDROGEN BONDS?    NO
Info: Using AMBER format force field!
Info: AMBER PARM FILE        mobley_7578802.prmtop
Info: COORDINATE PDB         mobley_7578802.pdb
Info: Exclusions will be read from PARM file!
Info: SCNB (VDW SCALING)     2
Info: USING ARITHMETIC MEAN TO COMBINE L-J SIGMA PARAMETERS
Info: BINARY COORDINATES     mobley_7578802_min.coor
Info: SUMMARY OF PARAMETERS:
Info: 4 BONDS
Info: 2 ANGLES
Info:   2 HARMONIC
Info:   0 COSINE-BASED
Info: 0 DIHEDRAL
Info: 0 IMPROPER
Info: 0 CROSSTERM
Info: 0 VDW
Info: 15 VDW_PAIRS
Info: 0 NBTHOLE_PAIRS
Info: STRUCTURE SUMMARY:
Info: 2912 ATOMS
Info: 2911 BONDS
Info: 6 ANGLES
Info: 0 DIHEDRALS
Info: 0 IMPROPERS
Info: 0 CROSSTERMS
Info: 2917 EXCLUSIONS
Info: 2908 RIGID BONDS
Info: 5828 DEGREES OF FREEDOM
Info: 973 HYDROGEN GROUPS
Info: 3 ATOMS IN LARGEST HYDROGEN GROUP
Info: 973 MIGRATION GROUPS
Info: 3 ATOMS IN LARGEST MIGRATION GROUP
Info: TOTAL MASS = 17710.2 amu
Info: TOTAL CHARGE = 9.9998e-05 e
Info: MASS DENSITY = 0.679645 g/cm^3
Info: ATOM DENSITY = 0.0672962 atoms/A^3
Info: ADDED 0 IMPLICIT EXCLUSIONS
Info: NONBONDED TABLE R-SQUARED SPACING: 0.0625
Info: NONBONDED TABLE SIZE: 705 POINTS
Info: REMOVING COM VELOCITY 0.0587632 -0.060919 -0.172587
TCL: Running for 100000 steps
ETITLE: TS BOND ANGLE DIHED IMPRP ELECT VDW BOUNDARY MISC KINETIC TOTAL TEMP POTENTIAL TOTAL3 TEMPAVG PRESSURE GPRESSURE VOLUME PRESSAVG GPRESSAVG
ENERGY: 0 0.0013 0.1182 0.0000 0.0000 -13543.4876 2404.7032 0.0000 0.0000 1755.7010 -9382.9638 303.1946 -11138.6648 -9382.6097 303.1946 584.0156 616.1925 43271.4155 584.0156 616.1925
ENERGY: 100000 0.0681 0.2244 0.0000 0.0000 -14133.8319 2498.6804 0.0000 0.0000 168.1879 -11466.6711 29.0446 -11634.8590 -11466.1718 30.9767 674.5806 702.4425 27904.0707 3.2000 3.1480
TCL: Running 100000 steps at 60 kelvin.
TCL: Setting parameter langevinTemp to 60
TCL: Running for 100000 steps
ETITLE: TS BOND ANGLE DIHED IMPRP ELECT VDW BOUNDARY MISC KINETIC TOTAL TEMP POTENTIAL TOTAL3 TEMPAVG PRESSURE GPRESSURE VOLUME PRESSAVG GPRESSAVG
ENERGY: 100000 0.0681 0.2244 0.0000 0.0000 -14133.8319 2498.6804 0.0000 0.0000 168.0992 -11466.7598 29.0293 -11634.8590 -11466.3641 29.0293 655.0761 702.5698 27904.0707 655.0761 702.5698
ENERGY: 200000 0.2206 0.3364 0.0000 0.0000 -13983.5184 2400.7437 0.0000 0.0000 351.8301 -11230.3877 60.7581 -11582.2178 -11229.5229 60.0315 31.5253 84.3583 27986.9000 4.8211 4.8228
TCL: Running 100000 steps at 90 kelvin.
TCL: Setting parameter langevinTemp to 90
TCL: Running for 100000 steps
ETITLE: TS BOND ANGLE DIHED IMPRP ELECT VDW BOUNDARY MISC KINETIC TOTAL TEMP POTENTIAL TOTAL3 TEMPAVG PRESSURE GPRESSURE VOLUME PRESSAVG GPRESSAVG
ENERGY: 200000 0.2206 0.3364 0.0000 0.0000 -13983.5184 2400.7437 0.0000 0.0000 351.6631 -11230.5547 60.7292 -11582.2178 -11229.8632 60.7292 41.9527 84.2928 27986.9000 41.9527 84.2928
ENERGY: 300000 0.4423 0.5206 0.0000 0.0000 -13875.5539 2394.8613 0.0000 0.0000 514.3338 -10965.3960 88.8210 -11479.7297 -10964.4564 89.8637 245.3929 304.7237 28234.4998 3.6579 3.6891
TCL: Running 100000 steps at 120 kelvin.
TCL: Setting parameter langevinTemp to 120
TCL: Running for 100000 steps
ETITLE: TS BOND ANGLE DIHED IMPRP ELECT VDW BOUNDARY MISC KINETIC TOTAL TEMP POTENTIAL TOTAL3 TEMPAVG PRESSURE GPRESSURE VOLUME PRESSAVG GPRESSAVG
ENERGY: 300000 0.4423 0.5206 0.0000 0.0000 -13875.5539 2394.8613 0.0000 0.0000 514.0677 -10965.6621 88.7751 -11479.7297 -10964.8049 88.7751 245.7786 304.6889 28234.4998 245.7786 304.6889
ENERGY: 400000 0.4352 0.7209 0.0000 0.0000 -13699.2476 2330.0612 0.0000 0.0000 690.0050 -10678.0253 119.1580 -11368.0303 -10675.7856 119.9634 103.9593 186.2360 28317.6008 3.4544 3.5640
TCL: Running 100000 steps at 150 kelvin.
TCL: Setting parameter langevinTemp to 150
TCL: Running for 100000 steps
ETITLE: TS BOND ANGLE DIHED IMPRP ELECT VDW BOUNDARY MISC KINETIC TOTAL TEMP POTENTIAL TOTAL3 TEMPAVG PRESSURE GPRESSURE VOLUME PRESSAVG GPRESSAVG
ENERGY: 400000 0.4352 0.7209 0.0000 0.0000 -13699.2476 2330.0612 0.0000 0.0000 689.6555 -10678.3748 119.0976 -11368.0303 -10677.1513 119.0976 136.0774 186.7545 28317.6008 136.0774 186.7545
ENERGY: 500000 0.4063 0.8730 0.0000 0.0000 -13531.4280 2321.1943 0.0000 0.0000 881.1944 -10327.7600 152.1747 -11208.9544 -10325.4593 150.1390 755.6039 790.4485 28183.9505 3.7861 3.7807
TCL: Running 100000 steps at 180 kelvin.
TCL: Setting parameter langevinTemp to 180
TCL: Running for 100000 steps
ETITLE: TS BOND ANGLE DIHED IMPRP ELECT VDW BOUNDARY MISC KINETIC TOTAL TEMP POTENTIAL TOTAL3 TEMPAVG PRESSURE GPRESSURE VOLUME PRESSAVG GPRESSAVG
ENERGY: 500000 0.4063 0.8730 0.0000 0.0000 -13531.4280 2321.1943 0.0000 0.0000 880.7646 -10328.1897 152.1005 -11208.9544 -10326.4866 152.1005 745.7306 791.1265 28183.9505 745.7306 791.1265
ENERGY: 600000 0.3853 0.5010 0.0000 0.0000 -13011.2488 2143.3274 0.0000 0.0000 1068.0794 -9798.9558 184.4482 -10867.0352 -9797.3693 179.9131 374.9946 472.9520 28600.1452 3.0710 3.0836
TCL: Running 100000 steps at 210 kelvin.
TCL: Setting parameter langevinTemp to 210
TCL: Running for 100000 steps
ETITLE: TS BOND ANGLE DIHED IMPRP ELECT VDW BOUNDARY MISC KINETIC TOTAL TEMP POTENTIAL TOTAL3 TEMPAVG PRESSURE GPRESSURE VOLUME PRESSAVG GPRESSAVG
ENERGY: 600000 0.3853 0.5010 0.0000 0.0000 -13011.2488 2143.3274 0.0000 0.0000 1067.5662 -9799.4690 184.3596 -10867.0352 -9798.2169 184.3596 395.7587 472.4861 28600.1452 395.7587 472.4861
ENERGY: 700000 0.1290 1.1113 0.0000 0.0000 -12299.3685 1947.9744 0.0000 0.0000 1223.2192 -9126.9346 211.2395 -10350.1537 -9125.3887 209.8515 861.6632 1003.1822 28220.8295 3.7766 3.6528
TCL: Running 100000 steps at 240 kelvin.
TCL: Setting parameter langevinTemp to 240
TCL: Running for 100000 steps
ETITLE: TS BOND ANGLE DIHED IMPRP ELECT VDW BOUNDARY MISC KINETIC TOTAL TEMP POTENTIAL TOTAL3 TEMPAVG PRESSURE GPRESSURE VOLUME PRESSAVG GPRESSAVG
ENERGY: 700000 0.1290 1.1113 0.0000 0.0000 -12299.3685 1947.9744 0.0000 0.0000 1222.5896 -9127.5641 211.1308 -10350.1538 -9125.3652 211.1308 908.6400 1002.5262 28220.8295 908.6400 1002.5262
ENERGY: 800000 0.1909 0.1823 0.0000 0.0000 -11710.2700 1688.7847 0.0000 0.0000 1342.3295 -8678.7826 231.8088 -10021.1121 -8675.8817 240.1020 -390.2073 -297.3720 28831.1259 2.9877 3.1196
TCL: Running 100000 steps at 270 kelvin.
TCL: Setting parameter langevinTemp to 270
TCL: Running for 100000 steps
ETITLE: TS BOND ANGLE DIHED IMPRP ELECT VDW BOUNDARY MISC KINETIC TOTAL TEMP POTENTIAL TOTAL3 TEMPAVG PRESSURE GPRESSURE VOLUME PRESSAVG GPRESSAVG
ENERGY: 800000 0.1909 0.1823 0.0000 0.0000 -11710.2700 1688.7847 0.0000 0.0000 1341.6514 -8679.4607 231.6917 -10021.1121 -8676.7900 231.6917 -370.4183 -298.2024 28831.1259 -370.4183 -298.2024
ENERGY: 900000 0.6055 2.5897 0.0000 0.0000 -11096.8061 1523.0146 0.0000 0.0000 1573.0327 -7997.5637 271.6493 -9570.5964 -7993.1183 269.8140 57.0758 121.0913 28951.4523 3.3820 3.2825
TCL: Running 1000000 steps at 300 kelvin.
TCL: Setting parameter langevinTemp to 300
TCL: Running for 1000000 steps
ETITLE: TS BOND ANGLE DIHED IMPRP ELECT VDW BOUNDARY MISC KINETIC TOTAL TEMP POTENTIAL TOTAL3 TEMPAVG PRESSURE GPRESSURE VOLUME PRESSAVG GPRESSAVG
ENERGY: 900000 0.6055 2.5897 0.0000 0.0000 -11096.8061 1523.0146 0.0000 0.0000 1572.2527 -7998.3437 271.5146 -9570.5964 -7995.8636 271.5146 45.9040 121.1661 28951.4523 45.9040 121.1661
ENERGY: 1100000 0.3747 2.2006 0.0000 0.0000 -10589.2154 1356.9436 0.0000 0.0000 1742.5283 -7487.1682 300.9197 -9229.6965 -7484.6863 300.1939 -514.6231 -488.5115 29687.0003 3.6566 3.5033
ENERGY: 1300000 0.4494 1.3088 0.0000 0.0000 -10599.5419 1412.7029 0.0000 0.0000 1683.1484 -7501.9324 290.6653 -9185.0808 -7500.1315 300.6312 146.1801 278.9634 29437.1671 2.4152 2.3112
ENERGY: 1500000 1.3526 1.0571 0.0000 0.0000 -10544.9466 1408.0214 0.0000 0.0000 1702.4348 -7432.0807 293.9959 -9134.5155 -7428.6759 300.4412 -377.5981 -262.0155 30519.0852 4.3210 4.0345
ENERGY: 1700000 0.6168 3.7207 0.0000 0.0000 -10493.5691 1357.7719 0.0000 0.0000 1681.5885 -7449.8711 290.3960 -9131.4597 -7444.3176 300.2865 -459.9196 -333.1968 30331.4191 2.9372 2.7435
ENERGY: 1900000 1.4409 2.2906 0.0000 0.0000 -10499.8125 1333.6892 0.0000 0.0000 1744.7164 -7417.6754 301.2976 -9162.3918 -7416.4683 300.5961 -987.9304 -863.6236 30506.1206 3.2281 3.1163
TCL: Exiting due to exit command.
