Info: SIMULATION PARAMETERS:
Info: TIMESTEP               2
Info: NUMBER OF STEPS        0
Info: STEPS PER CYCLE        10
Info: PERIODIC CELL BASIS 1  39.546 0 0
Info: PERIODIC CELL BASIS 2  0 34.1 0
Info: PERIODIC CELL BASIS 3  0 0 33.27
Info: PERIODIC CELL CENTER   0 0 0
Info: WRAPPING WATERS AROUND PERIODIC BOUNDARIES ON OUTPUT.
Info: WRAPPING ALL CLUSTERS AROUND PERIODIC BOUNDARIES ON OUTPUT.
Info: FIRST LDB TIMESTEP     50
Info: LAST LDB TIMESTEP     -1
Info: HOM BACKGROUND SCALING 1
Info: PME BACKGROUND SCALING 1
Info: MIN ATOMS PER PATCH    40
Info: EMPTY PATCH LOAD       40 ATOMS
Info: INITIAL TEMPERATURE    300
Info: CENTER OF MASS MOVING INITIALLY? NO
Info: DIELECTRIC             1
Info: EXCLUDE                SCALED ONE-FOUR
Info: 1-4 ELECTROSTATICS SCALED BY 0.833333
Info: MODIFIED 1-4 VDW PARAMETERS WILL BE USED
Info: DCD FILENAME           mobley_7542832_equil.dcd
Info: DCD FREQUENCY          100000
Info: DCD FIRST STEP         100000
Info: DCD FILE WILL CONTAIN UNIT CELL DATA
Info: XST FILENAME           mobley_7542832_equil.xst
Info: XST FREQUENCY          100000
Info: NO VELOCITY DCD OUTPUT
Info: NO FORCE DCD OUTPUT
Info: OUTPUT FILENAME        mobley_7542832_equil
Info: BINARY OUTPUT FILES WILL BE USED
Info: RESTART FILENAME       mobley_7542832_equil.restart
Info: RESTART FREQUENCY      100000
Info: BINARY RESTART FILES WILL BE USED
Info: CUTOFF                 9
Info: PAIRLIST DISTANCE      11
Info: PAIRLIST SHRINK RATE   0.01
Info: PAIRLIST GROW RATE     0.01
Info: PAIRLIST TRIGGER       0.3
Info: PAIRLISTS PER CYCLE    2
Info: PAIRLISTS ENABLED
Info: MARGIN                 8
Info: HYDROGEN GROUP CUTOFF  2.5
Info: PATCH DIMENSION        21.5
Info: ENERGY OUTPUT STEPS    100000
Info: ENERGY EVALUATION STEPS    100000
Info: OUTPUT ENERGY PRECISION 4
Info: CROSSTERM ENERGY INCLUDED IN DIHEDRAL
Info: TIMING OUTPUT STEPS    1000000
Info: PRESSURE OUTPUT STEPS  100000
Info: LANGEVIN DYNAMICS ACTIVE
Info: LANGEVIN TEMPERATURE   30
Info: LANGEVIN USING BBK INTEGRATOR
Info: LANGEVIN DAMPING COEFFICIENT IS 1 INVERSE PS
Info: LANGEVIN DYNAMICS APPLIED TO HYDROGENS
Info: LANGEVIN PISTON PRESSURE CONTROL ACTIVE
Info:        TARGET PRESSURE IS 1.01325 BAR
Info:     OSCILLATION PERIOD IS 50 FS
Info:             DECAY TIME IS 25 FS
Info:     PISTON TEMPERATURE IS 300 K
Info:       PRESSURE CONTROL IS GROUP-BASED
Info:    INITIAL STRAIN RATE IS 0 0 0
Info:       CELL FLUCTUATION IS ISOTROPIC
Info: PARTICLE MESH EWALD (PME) ACTIVE
Info: PME TOLERANCE               1e-06
Info: PME EWALD COEFFICIENT       0.348832
Info: PME INTERPOLATION ORDER     4
Info: PME GRID DIMENSIONS         40 36 36
Info: PME MAXIMUM GRID SPACING    1
Info: FULL ELECTROSTATIC EVALUATION FREQUENCY      2
Info: USING VERLET I (r-RESPA) MTS SCHEME.
Info: C1 SPLITTING OF LONG RANGE ELECTROSTATICS
Info: PLACING ATOMS IN PATCHES BY HYDROGEN GROUPS
Info: RIGID BONDS TO HYDROGEN : ALL
Info:         ERROR TOLERANCE : 1e-08
Info:          MAX ITERATIONS : 100
Info: RIGID WATER USING SETTLE ALGORITHM
Info: RANDOM NUMBER SEED     1743255034
Info: USE HYDROGEN BONDS?    NO
Info: Using AMBER format force field!
Info: AMBER PARM FILE        mobley_7542832.prmtop
Info: COORDINATE PDB         mobley_7542832.pdb
Info: Exclusions will be read from PARM file!
Info: SCNB (VDW SCALING)     2
Info: USING ARITHMETIC MEAN TO COMBINE L-J SIGMA PARAMETERS
Info: BINARY COORDINATES     mobley_7542832_min.coor
Info: SUMMARY OF PARAMETERS:
Info: 6 BONDS
Info: 8 ANGLES
Info: 8 DIHEDRAL
Info: 0 IMPROPER
Info: 0 CROSSTERM
Info: 0 VDW
Info: 21 VDW_PAIRS
Info: 0 NBTHOLE_PAIRS
Info: STRUCTURE SUMMARY:
Info: 2991 ATOMS
Info: 2990 BONDS
Info: 37 ANGLES
Info: 48 DIHEDRALS
Info: 0 IMPROPERS
Info: 0 CROSSTERMS
Info: 3069 EXCLUSIONS
Info: 2984 RIGID BONDS
Info: 5989 DEGREES OF FREEDOM
Info: 997 HYDROGEN GROUPS
Info: 4 ATOMS IN LARGEST HYDROGEN GROUP
Info: 997 MIGRATION GROUPS
Info: 4 ATOMS IN LARGEST MIGRATION GROUP
Info: TOTAL MASS = 17938 amu
Info: TOTAL CHARGE = -0.000399992 e
Info: MASS DENSITY = 0.663932 g/cm^3
Info: ATOM DENSITY = 0.0666663 atoms/A^3
Info: ADDED 0 IMPLICIT EXCLUSIONS
Info: NONBONDED TABLE R-SQUARED SPACING: 0.0625
Info: NONBONDED TABLE SIZE: 705 POINTS
Info: REMOVING COM VELOCITY -0.102994 0.0922385 0.0722572
TCL: Running for 100000 steps
ETITLE: TS BOND ANGLE DIHED IMPRP ELECT VDW BOUNDARY MISC KINETIC TOTAL TEMP POTENTIAL TOTAL3 TEMPAVG PRESSURE GPRESSURE VOLUME PRESSAVG GPRESSAVG
ENERGY: 0 0.0535 0.1591 1.5684 0.0000 -13801.6984 2424.6623 0.0000 0.0000 1801.3487 -9573.9064 302.7149 -11375.2551 -9573.5639 302.7149 338.8496 374.0856 44865.2138 338.8496 374.0856
ENERGY: 100000 0.0993 1.1771 1.8399 0.0000 -14311.1516 2445.2626 0.0000 0.0000 176.0177 -11686.7550 29.5796 -11862.7727 -11686.1723 30.8524 -698.8821 -654.4511 30299.9202 3.7042 3.6935
TCL: Running 100000 steps at 60 kelvin.
TCL: Setting parameter langevinTemp to 60
TCL: Running for 100000 steps
ETITLE: TS BOND ANGLE DIHED IMPRP ELECT VDW BOUNDARY MISC KINETIC TOTAL TEMP POTENTIAL TOTAL3 TEMPAVG PRESSURE GPRESSURE VOLUME PRESSAVG GPRESSAVG
ENERGY: 100000 0.0993 1.1771 1.8399 0.0000 -14311.1516 2445.2626 0.0000 0.0000 175.9277 -11686.8450 29.5645 -11862.7727 -11686.4754 29.5645 -693.5917 -654.4852 30299.9202 -693.5917 -654.4852
ENERGY: 200000 0.4240 2.4238 1.7646 0.0000 -14300.5387 2528.0444 0.0000 0.0000 361.5103 -11406.3715 60.7515 -11767.8819 -11405.8346 60.0833 269.7689 338.2957 29948.8692 4.0964 4.1204
TCL: Running 100000 steps at 90 kelvin.
TCL: Setting parameter langevinTemp to 90
TCL: Running for 100000 steps
ETITLE: TS BOND ANGLE DIHED IMPRP ELECT VDW BOUNDARY MISC KINETIC TOTAL TEMP POTENTIAL TOTAL3 TEMPAVG PRESSURE GPRESSURE VOLUME PRESSAVG GPRESSAVG
ENERGY: 200000 0.4240 2.4238 1.7646 0.0000 -14300.5387 2528.0444 0.0000 0.0000 361.3391 -11406.5428 60.7227 -11767.8819 -11405.8172 60.7227 296.9419 338.0363 29948.8692 296.9419 338.0363
ENERGY: 300000 0.7354 2.8027 1.8543 0.0000 -14081.8288 2382.5101 0.0000 0.0000 526.9463 -11166.9800 88.5528 -11693.9263 -11165.7466 90.1424 -501.9090 -452.0657 29816.7878 3.2742 3.1934
TCL: Running 100000 steps at 120 kelvin.
TCL: Setting parameter langevinTemp to 120
TCL: Running for 100000 steps
ETITLE: TS BOND ANGLE DIHED IMPRP ELECT VDW BOUNDARY MISC KINETIC TOTAL TEMP POTENTIAL TOTAL3 TEMPAVG PRESSURE GPRESSURE VOLUME PRESSAVG GPRESSAVG
ENERGY: 300000 0.7354 2.8027 1.8543 0.0000 -14081.8288 2382.5101 0.0000 0.0000 526.6848 -11167.2415 88.5089 -11693.9263 -11166.1350 88.5089 -507.9168 -452.5224 29816.7878 -507.9168 -452.5224
ENERGY: 400000 0.6695 2.8847 1.9449 0.0000 -14043.9637 2429.2313 0.0000 0.0000 730.5852 -10878.6480 122.7741 -11609.2332 -10876.6001 120.0318 251.3346 325.5973 29460.5518 3.0815 3.0490
TCL: Running 100000 steps at 150 kelvin.
TCL: Setting parameter langevinTemp to 150
TCL: Running for 100000 steps
ETITLE: TS BOND ANGLE DIHED IMPRP ELECT VDW BOUNDARY MISC KINETIC TOTAL TEMP POTENTIAL TOTAL3 TEMPAVG PRESSURE GPRESSURE VOLUME PRESSAVG GPRESSAVG
ENERGY: 400000 0.6695 2.8847 1.9449 0.0000 -14043.9637 2429.2313 0.0000 0.0000 730.2421 -10878.9910 122.7165 -11609.2332 -10877.2307 122.7165 275.0901 326.2218 29460.5518 275.0901 326.2218
ENERGY: 500000 1.0703 3.0225 1.9202 0.0000 -13790.6566 2358.4449 0.0000 0.0000 897.3715 -10528.8272 150.8024 -11426.1987 -10527.8434 150.1456 523.6555 623.2623 29101.5438 4.6793 4.7718
TCL: Running 100000 steps at 180 kelvin.
TCL: Setting parameter langevinTemp to 180
TCL: Running for 100000 steps
ETITLE: TS BOND ANGLE DIHED IMPRP ELECT VDW BOUNDARY MISC KINETIC TOTAL TEMP POTENTIAL TOTAL3 TEMPAVG PRESSURE GPRESSURE VOLUME PRESSAVG GPRESSAVG
ENERGY: 500000 1.0703 3.0225 1.9202 0.0000 -13790.6566 2358.4449 0.0000 0.0000 896.9347 -10529.2640 150.7290 -11426.1987 -10527.3145 150.7290 556.0691 621.8030 29101.5438 556.0691 621.8030
ENERGY: 600000 2.0321 4.1737 2.0726 0.0000 -13303.7659 2182.0063 0.0000 0.0000 1057.7435 -10055.7378 177.7528 -11113.4812 -10051.9666 179.8781 283.3067 286.8764 29324.9532 4.4545 4.5340
TCL: Running 100000 steps at 210 kelvin.
TCL: Setting parameter langevinTemp to 210
TCL: Running for 100000 steps
ETITLE: TS BOND ANGLE DIHED IMPRP ELECT VDW BOUNDARY MISC KINETIC TOTAL TEMP POTENTIAL TOTAL3 TEMPAVG PRESSURE GPRESSURE VOLUME PRESSAVG GPRESSAVG
ENERGY: 600000 2.0321 4.1737 2.0726 0.0000 -13303.7659 2182.0063 0.0000 0.0000 1057.2199 -10056.2614 177.6648 -11113.4812 -10054.4336 177.6648 241.9058 287.8775 29324.9532 241.9058 287.8775
ENERGY: 700000 0.8095 5.0787 1.9849 0.0000 -12511.8155 1897.2002 0.0000 0.0000 1251.6524 -9355.0899 210.3390 -10606.7422 -9352.0845 209.8174 -353.0067 -245.0616 29475.8097 3.1482 3.2156
TCL: Running 100000 steps at 240 kelvin.
TCL: Setting parameter langevinTemp to 240
TCL: Running for 100000 steps
ETITLE: TS BOND ANGLE DIHED IMPRP ELECT VDW BOUNDARY MISC KINETIC TOTAL TEMP POTENTIAL TOTAL3 TEMPAVG PRESSURE GPRESSURE VOLUME PRESSAVG GPRESSAVG
ENERGY: 700000 0.8095 5.0787 1.9849 0.0000 -12511.8155 1897.2002 0.0000 0.0000 1251.0454 -9355.6969 210.2370 -10606.7422 -9353.5949 210.2370 -333.6744 -245.0930 29475.8097 -333.6744 -245.0930
ENERGY: 800000 3.5258 10.0441 3.4567 0.0000 -11923.8577 1730.5513 0.0000 0.0000 1409.8848 -8766.3951 236.9298 -10176.2798 -8762.6195 240.3555 -85.9370 -38.0064 29384.7676 3.8508 3.8495
TCL: Running 100000 steps at 270 kelvin.
TCL: Setting parameter langevinTemp to 270
TCL: Running for 100000 steps
ETITLE: TS BOND ANGLE DIHED IMPRP ELECT VDW BOUNDARY MISC KINETIC TOTAL TEMP POTENTIAL TOTAL3 TEMPAVG PRESSURE GPRESSURE VOLUME PRESSAVG GPRESSAVG
ENERGY: 800000 3.5258 10.0441 3.4567 0.0000 -11923.8577 1730.5513 0.0000 0.0000 1409.1683 -8767.1115 236.8094 -10176.2798 -8765.3652 236.8094 -109.8492 -36.6745 29384.7676 -109.8492 -36.6745
ENERGY: 900000 1.3650 8.3398 4.8102 0.0000 -11201.6889 1438.5034 0.0000 0.0000 1606.2539 -8142.4166 269.9295 -9748.6705 -8141.8973 270.4828 -1271.5026 -1097.1740 30197.1081 2.6568 2.9303
TCL: Running 1000000 steps at 300 kelvin.
TCL: Setting parameter langevinTemp to 300
TCL: Running for 1000000 steps
ETITLE: TS BOND ANGLE DIHED IMPRP ELECT VDW BOUNDARY MISC KINETIC TOTAL TEMP POTENTIAL TOTAL3 TEMPAVG PRESSURE GPRESSURE VOLUME PRESSAVG GPRESSAVG
ENERGY: 900000 1.3650 8.3398 4.8102 0.0000 -11201.6889 1438.5034 0.0000 0.0000 1605.4476 -8143.2229 269.7940 -9748.6705 -8140.0673 269.7940 -1191.8344 -1098.9312 30197.1081 -1191.8344 -1098.9312
ENERGY: 1100000 2.1079 12.5099 3.3385 0.0000 -10807.7814 1476.5410 0.0000 0.0000 1777.1410 -7536.1431 298.6469 -9313.2841 -7533.4836 300.6969 494.1594 498.9332 30730.2725 3.1258 3.1831
ENERGY: 1300000 0.9594 8.4824 4.1751 0.0000 -10982.5723 1508.6827 0.0000 0.0000 1793.9697 -7666.3029 301.4749 -9460.2726 -7664.0186 299.4142 279.6711 415.1858 30292.7949 2.7276 2.7948
ENERGY: 1500000 1.2592 7.0878 3.3086 0.0000 -10916.2802 1464.3303 0.0000 0.0000 1754.3609 -7685.9333 294.8187 -9440.2943 -7682.6888 300.0477 39.1224 51.4565 30512.0294 2.0551 2.0287
ENERGY: 1700000 1.5120 13.1700 4.6393 0.0000 -10688.2621 1403.4542 0.0000 0.0000 1724.4505 -7541.0361 289.7923 -9265.4866 -7538.5269 300.4738 -52.7489 71.9961 30587.3225 4.0126 3.8887
ENERGY: 1900000 0.5967 6.7087 3.0654 0.0000 -10713.5285 1333.7909 0.0000 0.0000 1821.7693 -7547.5975 306.1466 -9369.3668 -7545.4986 299.5489 -923.1056 -859.6466 30909.0715 2.6006 2.6590
TCL: Exiting due to exit command.
