Info: SIMULATION PARAMETERS:
Info: TIMESTEP               2
Info: NUMBER OF STEPS        0
Info: STEPS PER CYCLE        10
Info: PERIODIC CELL BASIS 1  35.01 0 0
Info: PERIODIC CELL BASIS 2  0 35.411 0
Info: PERIODIC CELL BASIS 3  0 0 35.566
Info: PERIODIC CELL CENTER   0 0 0
Info: WRAPPING WATERS AROUND PERIODIC BOUNDARIES ON OUTPUT.
Info: WRAPPING ALL CLUSTERS AROUND PERIODIC BOUNDARIES ON OUTPUT.
Info: FIRST LDB TIMESTEP     50
Info: LAST LDB TIMESTEP     -1
Info: HOM BACKGROUND SCALING 1
Info: PME BACKGROUND SCALING 1
Info: MIN ATOMS PER PATCH    40
Info: EMPTY PATCH LOAD       40 ATOMS
Info: INITIAL TEMPERATURE    300
Info: CENTER OF MASS MOVING INITIALLY? NO
Info: DIELECTRIC             1
Info: EXCLUDE                SCALED ONE-FOUR
Info: 1-4 ELECTROSTATICS SCALED BY 0.833333
Info: MODIFIED 1-4 VDW PARAMETERS WILL BE USED
Info: DCD FILENAME           mobley_1636752_equil.dcd
Info: DCD FREQUENCY          100000
Info: DCD FIRST STEP         100000
Info: DCD FILE WILL CONTAIN UNIT CELL DATA
Info: XST FILENAME           mobley_1636752_equil.xst
Info: XST FREQUENCY          100000
Info: NO VELOCITY DCD OUTPUT
Info: NO FORCE DCD OUTPUT
Info: OUTPUT FILENAME        mobley_1636752_equil
Info: BINARY OUTPUT FILES WILL BE USED
Info: RESTART FILENAME       mobley_1636752_equil.restart
Info: RESTART FREQUENCY      100000
Info: BINARY RESTART FILES WILL BE USED
Info: CUTOFF                 9
Info: PAIRLIST DISTANCE      11
Info: PAIRLIST SHRINK RATE   0.01
Info: PAIRLIST GROW RATE     0.01
Info: PAIRLIST TRIGGER       0.3
Info: PAIRLISTS PER CYCLE    2
Info: PAIRLISTS ENABLED
Info: MARGIN                 8
Info: HYDROGEN GROUP CUTOFF  2.5
Info: PATCH DIMENSION        21.5
Info: ENERGY OUTPUT STEPS    100000
Info: ENERGY EVALUATION STEPS    100000
Info: OUTPUT ENERGY PRECISION 4
Info: CROSSTERM ENERGY INCLUDED IN DIHEDRAL
Info: TIMING OUTPUT STEPS    1000000
Info: PRESSURE OUTPUT STEPS  100000
Info: LANGEVIN DYNAMICS ACTIVE
Info: LANGEVIN TEMPERATURE   30
Info: LANGEVIN USING BBK INTEGRATOR
Info: LANGEVIN DAMPING COEFFICIENT IS 1 INVERSE PS
Info: LANGEVIN DYNAMICS APPLIED TO HYDROGENS
Info: LANGEVIN PISTON PRESSURE CONTROL ACTIVE
Info:        TARGET PRESSURE IS 1.01325 BAR
Info:     OSCILLATION PERIOD IS 50 FS
Info:             DECAY TIME IS 25 FS
Info:     PISTON TEMPERATURE IS 300 K
Info:       PRESSURE CONTROL IS GROUP-BASED
Info:    INITIAL STRAIN RATE IS 0 0 0
Info:       CELL FLUCTUATION IS ISOTROPIC
Info: PARTICLE MESH EWALD (PME) ACTIVE
Info: PME TOLERANCE               1e-06
Info: PME EWALD COEFFICIENT       0.348832
Info: PME INTERPOLATION ORDER     4
Info: PME GRID DIMENSIONS         36 36 36
Info: PME MAXIMUM GRID SPACING    1
Info: FULL ELECTROSTATIC EVALUATION FREQUENCY      2
Info: USING VERLET I (r-RESPA) MTS SCHEME.
Info: C1 SPLITTING OF LONG RANGE ELECTROSTATICS
Info: PLACING ATOMS IN PATCHES BY HYDROGEN GROUPS
Info: RIGID BONDS TO HYDROGEN : ALL
Info:         ERROR TOLERANCE : 1e-08
Info:          MAX ITERATIONS : 100
Info: RIGID WATER USING SETTLE ALGORITHM
Info: RANDOM NUMBER SEED     1743155036
Info: USE HYDROGEN BONDS?    NO
Info: Using AMBER format force field!
Info: AMBER PARM FILE        mobley_1636752.prmtop
Info: COORDINATE PDB         mobley_1636752.pdb
Info: Exclusions will be read from PARM file!
Info: SCNB (VDW SCALING)     2
Info: USING ARITHMETIC MEAN TO COMBINE L-J SIGMA PARAMETERS
Info: BINARY COORDINATES     mobley_1636752_min.coor
Info: SUMMARY OF PARAMETERS:
Info: 5 BONDS
Info: 3 ANGLES
Info:   3 HARMONIC
Info:   0 COSINE-BASED
Info: 1 DIHEDRAL
Info: 0 IMPROPER
Info: 0 CROSSTERM
Info: 0 VDW
Info: 15 VDW_PAIRS
Info: 0 NBTHOLE_PAIRS
Info: STRUCTURE SUMMARY:
Info: 2964 ATOMS
Info: 2963 BONDS
Info: 7 ANGLES
Info: 3 DIHEDRALS
Info: 0 IMPROPERS
Info: 0 CROSSTERMS
Info: 2973 EXCLUSIONS
Info: 2962 RIGID BONDS
Info: 5930 DEGREES OF FREEDOM
Info: 988 HYDROGEN GROUPS
Info: 4 ATOMS IN LARGEST HYDROGEN GROUP
Info: 988 MIGRATION GROUPS
Info: 4 ATOMS IN LARGEST MIGRATION GROUP
Info: TOTAL MASS = 17795.8 amu
Info: TOTAL CHARGE = 9.99756e-05 e
Info: MASS DENSITY = 0.670212 g/cm^3
Info: ATOM DENSITY = 0.0672222 atoms/A^3
Info: ADDED 0 IMPLICIT EXCLUSIONS
Info: NONBONDED TABLE R-SQUARED SPACING: 0.0625
Info: NONBONDED TABLE SIZE: 705 POINTS
Info: REMOVING COM VELOCITY -0.0539015 0.057878 -0.0797589
TCL: Running for 100000 steps
ETITLE: TS BOND ANGLE DIHED IMPRP ELECT VDW BOUNDARY MISC KINETIC TOTAL TEMP POTENTIAL TOTAL3 TEMPAVG PRESSURE GPRESSURE VOLUME PRESSAVG GPRESSAVG
ENERGY: 0 0.0090 0.0346 0.0069 0.0000 -13761.5981 2447.0644 0.0000 0.0000 1747.8403 -9566.6430 296.6453 -11314.4832 -9566.2804 296.6453 631.1596 659.9526 44092.5612 631.1596 659.9526
ENERGY: 100000 0.0012 0.5904 0.0307 0.0000 -14179.2481 2365.7859 0.0000 0.0000 177.4386 -11635.4013 30.1151 -11812.8399 -11634.8931 30.8978 -1012.3724 -957.5575 29450.6618 5.2816 5.3017
TCL: Running 100000 steps at 60 kelvin.
TCL: Setting parameter langevinTemp to 60
TCL: Running for 100000 steps
ETITLE: TS BOND ANGLE DIHED IMPRP ELECT VDW BOUNDARY MISC KINETIC TOTAL TEMP POTENTIAL TOTAL3 TEMPAVG PRESSURE GPRESSURE VOLUME PRESSAVG GPRESSAVG
ENERGY: 100000 0.0012 0.5904 0.0307 0.0000 -14179.2481 2365.7859 0.0000 0.0000 177.3519 -11635.4880 30.1004 -11812.8399 -11635.1189 30.1004 -1011.1910 -957.5684 29450.6618 -1011.1910 -957.5684
ENERGY: 200000 0.0814 0.3723 0.0243 0.0000 -14201.8352 2448.0219 0.0000 0.0000 352.0536 -11401.2816 59.7509 -11753.3352 -11399.9941 59.9226 -96.1186 -49.8928 28950.3417 3.8878 3.8932
TCL: Running 100000 steps at 90 kelvin.
TCL: Setting parameter langevinTemp to 90
TCL: Running for 100000 steps
ETITLE: TS BOND ANGLE DIHED IMPRP ELECT VDW BOUNDARY MISC KINETIC TOTAL TEMP POTENTIAL TOTAL3 TEMPAVG PRESSURE GPRESSURE VOLUME PRESSAVG GPRESSAVG
ENERGY: 200000 0.0814 0.3723 0.0243 0.0000 -14201.8352 2448.0219 0.0000 0.0000 351.8874 -11401.4478 59.7227 -11753.3352 -11400.6969 59.7227 -101.6701 -49.1817 28950.3417 -101.6701 -49.1817
ENERGY: 300000 0.0266 1.3136 0.0059 0.0000 -14061.8785 2377.9149 0.0000 0.0000 509.5821 -11173.0353 86.4868 -11682.6174 -11171.4051 89.7310 -496.2346 -468.3520 29265.2690 3.3175 3.4261
TCL: Running 100000 steps at 120 kelvin.
TCL: Setting parameter langevinTemp to 120
TCL: Running for 100000 steps
ETITLE: TS BOND ANGLE DIHED IMPRP ELECT VDW BOUNDARY MISC KINETIC TOTAL TEMP POTENTIAL TOTAL3 TEMPAVG PRESSURE GPRESSURE VOLUME PRESSAVG GPRESSAVG
ENERGY: 300000 0.0266 1.3136 0.0059 0.0000 -14061.8785 2377.9149 0.0000 0.0000 509.3082 -11173.3092 86.4403 -11682.6174 -11172.1785 86.4403 -526.9359 -468.1464 29265.2690 -526.9359 -468.1464
ENERGY: 400000 0.0155 2.5890 0.1235 0.0000 -13902.1559 2367.1411 0.0000 0.0000 702.2034 -10830.0834 119.1787 -11532.2868 -10827.4248 120.2667 73.6502 106.1475 28991.2014 4.1349 4.0965
TCL: Running 100000 steps at 150 kelvin.
TCL: Setting parameter langevinTemp to 150
TCL: Running for 100000 steps
ETITLE: TS BOND ANGLE DIHED IMPRP ELECT VDW BOUNDARY MISC KINETIC TOTAL TEMP POTENTIAL TOTAL3 TEMPAVG PRESSURE GPRESSURE VOLUME PRESSAVG GPRESSAVG
ENERGY: 400000 0.0155 2.5890 0.1235 0.0000 -13902.1559 2367.1411 0.0000 0.0000 701.8503 -10830.4365 119.1188 -11532.2868 -10829.0794 119.1188 52.1925 107.0551 28991.2014 52.1925 107.0551
ENERGY: 500000 0.1233 0.6099 0.0341 0.0000 -13612.2357 2282.8282 0.0000 0.0000 879.3470 -10449.2933 149.2437 -11328.6403 -10446.8945 150.1915 -223.9727 -158.2016 29623.7723 3.9062 3.8881
TCL: Running 100000 steps at 180 kelvin.
TCL: Setting parameter langevinTemp to 180
TCL: Running for 100000 steps
ETITLE: TS BOND ANGLE DIHED IMPRP ELECT VDW BOUNDARY MISC KINETIC TOTAL TEMP POTENTIAL TOTAL3 TEMPAVG PRESSURE GPRESSURE VOLUME PRESSAVG GPRESSAVG
ENERGY: 500000 0.1233 0.6099 0.0341 0.0000 -13612.2357 2282.8282 0.0000 0.0000 878.9013 -10449.7390 149.1680 -11328.6403 -10447.7762 149.1680 -194.3299 -158.4988 29623.7723 -194.3299 -158.4988
ENERGY: 600000 0.0434 0.5652 0.0654 0.0000 -13054.8249 2008.6639 0.0000 0.0000 1082.7915 -9962.6954 183.7725 -11045.4870 -9961.0840 180.0541 -894.1723 -858.9710 29066.1974 3.6258 3.6967
TCL: Running 100000 steps at 210 kelvin.
TCL: Setting parameter langevinTemp to 210
TCL: Running for 100000 steps
ETITLE: TS BOND ANGLE DIHED IMPRP ELECT VDW BOUNDARY MISC KINETIC TOTAL TEMP POTENTIAL TOTAL3 TEMPAVG PRESSURE GPRESSURE VOLUME PRESSAVG GPRESSAVG
ENERGY: 600000 0.0434 0.5652 0.0654 0.0000 -13054.8249 2008.6639 0.0000 0.0000 1082.2835 -9963.2035 183.6863 -11045.4870 -9961.1627 183.6863 -898.7138 -859.5800 29066.1974 -898.7138 -859.5800
ENERGY: 700000 0.0229 1.7145 0.1082 0.0000 -12457.2736 1923.0869 0.0000 0.0000 1256.6346 -9275.7065 213.2773 -10532.3411 -9273.0566 209.7793 351.3891 395.6639 28751.9746 4.3122 4.3054
TCL: Running 100000 steps at 240 kelvin.
TCL: Setting parameter langevinTemp to 240
TCL: Running for 100000 steps
ETITLE: TS BOND ANGLE DIHED IMPRP ELECT VDW BOUNDARY MISC KINETIC TOTAL TEMP POTENTIAL TOTAL3 TEMPAVG PRESSURE GPRESSURE VOLUME PRESSAVG GPRESSAVG
ENERGY: 700000 0.0229 1.7145 0.1082 0.0000 -12457.2736 1923.0869 0.0000 0.0000 1255.9834 -9276.3577 213.1668 -10532.3411 -9274.2950 213.1668 325.4433 396.4544 28751.9746 325.4433 396.4544
ENERGY: 800000 0.0001 3.3646 0.6986 0.0000 -11745.5095 1681.7335 0.0000 0.0000 1377.0097 -8682.7030 233.7075 -10059.7127 -8680.2576 239.7048 -215.2377 -154.8450 29237.0762 2.2874 2.3439
TCL: Running 100000 steps at 270 kelvin.
TCL: Setting parameter langevinTemp to 270
TCL: Running for 100000 steps
ETITLE: TS BOND ANGLE DIHED IMPRP ELECT VDW BOUNDARY MISC KINETIC TOTAL TEMP POTENTIAL TOTAL3 TEMPAVG PRESSURE GPRESSURE VOLUME PRESSAVG GPRESSAVG
ENERGY: 800000 0.0001 3.3646 0.6986 0.0000 -11745.5095 1681.7335 0.0000 0.0000 1376.2901 -8683.4226 233.5854 -10059.7127 -8681.3662 233.5854 -228.8386 -154.2837 29237.0762 -228.8386 -154.2837
ENERGY: 900000 0.2029 1.0030 0.7927 0.0000 -11396.1374 1636.8701 0.0000 0.0000 1556.1494 -8201.1193 264.1113 -9757.2688 -8199.0300 269.7780 273.5653 370.1930 29578.9625 3.8012 3.7282
TCL: Running 1000000 steps at 300 kelvin.
TCL: Setting parameter langevinTemp to 300
TCL: Running for 1000000 steps
ETITLE: TS BOND ANGLE DIHED IMPRP ELECT VDW BOUNDARY MISC KINETIC TOTAL TEMP POTENTIAL TOTAL3 TEMPAVG PRESSURE GPRESSURE VOLUME PRESSAVG GPRESSAVG
ENERGY: 900000 0.2029 1.0030 0.7927 0.0000 -11396.1374 1636.8701 0.0000 0.0000 1555.4029 -8201.8659 263.9846 -9757.2688 -8199.5856 263.9846 277.0956 368.6991 29578.9625 277.0956 368.6991
ENERGY: 1100000 0.0206 1.4532 0.0023 0.0000 -10795.9050 1418.2505 0.0000 0.0000 1749.0047 -7627.1737 296.8429 -9376.1785 -7622.9643 300.6274 -178.9140 -151.4989 30247.2277 3.0937 2.9625
ENERGY: 1300000 0.0134 0.6944 0.0931 0.0000 -10962.6080 1464.4350 0.0000 0.0000 1745.5063 -7751.8658 296.2491 -9497.3720 -7748.2706 300.0984 -262.9106 -213.6768 29960.6817 2.9184 2.8710
ENERGY: 1500000 0.0002 1.3820 0.1655 0.0000 -10828.6752 1476.6627 0.0000 0.0000 1780.5713 -7569.8935 302.2004 -9350.4649 -7568.2123 299.7366 203.0459 241.8324 30420.1741 3.2079 3.2280
ENERGY: 1700000 0.1006 1.3453 0.3773 0.0000 -10766.2995 1460.7839 0.0000 0.0000 1772.2780 -7531.4145 300.7929 -9303.6925 -7529.8857 300.4672 212.8365 295.7922 30270.7765 3.7110 3.7871
ENERGY: 1900000 0.1799 0.4744 0.4733 0.0000 -10685.0762 1426.3087 0.0000 0.0000 1745.8834 -7511.7566 296.3132 -9257.6400 -7508.4440 300.4753 -68.8999 45.3108 30437.4054 3.2363 3.3231
TCL: Exiting due to exit command.
