Info: SIMULATION PARAMETERS:
Info: TIMESTEP               2
Info: NUMBER OF STEPS        0
Info: STEPS PER CYCLE        10
Info: PERIODIC CELL BASIS 1  36.005 0 0
Info: PERIODIC CELL BASIS 2  0 34.1 0
Info: PERIODIC CELL BASIS 3  0 0 36.199
Info: PERIODIC CELL CENTER   0 0 0
Info: WRAPPING WATERS AROUND PERIODIC BOUNDARIES ON OUTPUT.
Info: WRAPPING ALL CLUSTERS AROUND PERIODIC BOUNDARIES ON OUTPUT.
Info: FIRST LDB TIMESTEP     50
Info: LAST LDB TIMESTEP     -1
Info: HOM BACKGROUND SCALING 1
Info: PME BACKGROUND SCALING 1
Info: MIN ATOMS PER PATCH    40
Info: EMPTY PATCH LOAD       40 ATOMS
Info: INITIAL TEMPERATURE    300
Info: CENTER OF MASS MOVING INITIALLY? NO
Info: DIELECTRIC             1
Info: EXCLUDE                SCALED ONE-FOUR
Info: 1-4 ELECTROSTATICS SCALED BY 0.833333
Info: MODIFIED 1-4 VDW PARAMETERS WILL BE USED
Info: DCD FILENAME           mobley_3274817_equil.dcd
Info: DCD FREQUENCY          100000
Info: DCD FIRST STEP         100000
Info: DCD FILE WILL CONTAIN UNIT CELL DATA
Info: XST FILENAME           mobley_3274817_equil.xst
Info: XST FREQUENCY          100000
Info: NO VELOCITY DCD OUTPUT
Info: NO FORCE DCD OUTPUT
Info: OUTPUT FILENAME        mobley_3274817_equil
Info: BINARY OUTPUT FILES WILL BE USED
Info: RESTART FILENAME       mobley_3274817_equil.restart
Info: RESTART FREQUENCY      100000
Info: BINARY RESTART FILES WILL BE USED
Info: CUTOFF                 9
Info: PAIRLIST DISTANCE      11
Info: PAIRLIST SHRINK RATE   0.01
Info: PAIRLIST GROW RATE     0.01
Info: PAIRLIST TRIGGER       0.3
Info: PAIRLISTS PER CYCLE    2
Info: PAIRLISTS ENABLED
Info: MARGIN                 8
Info: HYDROGEN GROUP CUTOFF  2.5
Info: PATCH DIMENSION        21.5
Info: ENERGY OUTPUT STEPS    100000
Info: ENERGY EVALUATION STEPS    100000
Info: OUTPUT ENERGY PRECISION 4
Info: CROSSTERM ENERGY INCLUDED IN DIHEDRAL
Info: TIMING OUTPUT STEPS    1000000
Info: PRESSURE OUTPUT STEPS  100000
Info: LANGEVIN DYNAMICS ACTIVE
Info: LANGEVIN TEMPERATURE   30
Info: LANGEVIN USING BBK INTEGRATOR
Info: LANGEVIN DAMPING COEFFICIENT IS 1 INVERSE PS
Info: LANGEVIN DYNAMICS APPLIED TO HYDROGENS
Info: LANGEVIN PISTON PRESSURE CONTROL ACTIVE
Info:        TARGET PRESSURE IS 1.01325 BAR
Info:     OSCILLATION PERIOD IS 50 FS
Info:             DECAY TIME IS 25 FS
Info:     PISTON TEMPERATURE IS 300 K
Info:       PRESSURE CONTROL IS GROUP-BASED
Info:    INITIAL STRAIN RATE IS 0 0 0
Info:       CELL FLUCTUATION IS ISOTROPIC
Info: PARTICLE MESH EWALD (PME) ACTIVE
Info: PME TOLERANCE               1e-06
Info: PME EWALD COEFFICIENT       0.348832
Info: PME INTERPOLATION ORDER     4
Info: PME GRID DIMENSIONS         40 36 40
Info: PME MAXIMUM GRID SPACING    1
Info: FULL ELECTROSTATIC EVALUATION FREQUENCY      2
Info: USING VERLET I (r-RESPA) MTS SCHEME.
Info: C1 SPLITTING OF LONG RANGE ELECTROSTATICS
Info: PLACING ATOMS IN PATCHES BY HYDROGEN GROUPS
Info: RIGID BONDS TO HYDROGEN : ALL
Info:         ERROR TOLERANCE : 1e-08
Info:          MAX ITERATIONS : 100
Info: RIGID WATER USING SETTLE ALGORITHM
Info: RANDOM NUMBER SEED     1743258119
Info: USE HYDROGEN BONDS?    NO
Info: Using AMBER format force field!
Info: AMBER PARM FILE        mobley_3274817.prmtop
Info: COORDINATE PDB         mobley_3274817.pdb
Info: Exclusions will be read from PARM file!
Info: SCNB (VDW SCALING)     2
Info: USING ARITHMETIC MEAN TO COMBINE L-J SIGMA PARAMETERS
Info: BINARY COORDINATES     mobley_3274817_min.coor
Info: SUMMARY OF PARAMETERS:
Info: 11 BONDS
Info: 13 ANGLES
Info:   13 HARMONIC
Info:   0 COSINE-BASED
Info: 11 DIHEDRAL
Info: 0 IMPROPER
Info: 0 CROSSTERM
Info: 0 VDW
Info: 45 VDW_PAIRS
Info: 0 NBTHOLE_PAIRS
Info: STRUCTURE SUMMARY:
Info: 2909 ATOMS
Info: 2909 BONDS
Info: 49 ANGLES
Info: 75 DIHEDRALS
Info: 0 IMPROPERS
Info: 0 CROSSTERMS
Info: 3022 EXCLUSIONS
Info: 2892 RIGID BONDS
Info: 5835 DEGREES OF FREEDOM
Info: 977 HYDROGEN GROUPS
Info: 4 ATOMS IN LARGEST HYDROGEN GROUP
Info: 977 MIGRATION GROUPS
Info: 4 ATOMS IN LARGEST MIGRATION GROUP
Info: TOTAL MASS = 17535.6 amu
Info: TOTAL CHARGE = 9.99689e-05 e
Info: MASS DENSITY = 0.655187 g/cm^3
Info: ATOM DENSITY = 0.0654531 atoms/A^3
Info: ADDED 0 IMPLICIT EXCLUSIONS
Info: NONBONDED TABLE R-SQUARED SPACING: 0.0625
Info: NONBONDED TABLE SIZE: 705 POINTS
Info: REMOVING COM VELOCITY -0.0380521 0.230962 0.0412787
TCL: Running for 100000 steps
ETITLE: TS BOND ANGLE DIHED IMPRP ELECT VDW BOUNDARY MISC KINETIC TOTAL TEMP POTENTIAL TOTAL3 TEMPAVG PRESSURE GPRESSURE VOLUME PRESSAVG GPRESSAVG
ENERGY: 0 0.6746 1.3732 6.8123 0.0000 -13359.5924 2367.6501 0.0000 0.0000 1740.3298 -9242.7523 300.1795 -10983.0821 -9242.4089 300.1795 626.2267 659.2165 44444.0643 626.2267 659.2165
ENERGY: 100000 1.1702 2.6845 3.6587 0.0000 -14029.7354 2500.8555 0.0000 0.0000 172.6235 -11348.7432 29.7748 -11521.3667 -11348.3266 30.8874 726.4295 793.8014 28452.2716 3.1474 3.2005
TCL: Running 100000 steps at 60 kelvin.
TCL: Setting parameter langevinTemp to 60
TCL: Running for 100000 steps
ETITLE: TS BOND ANGLE DIHED IMPRP ELECT VDW BOUNDARY MISC KINETIC TOTAL TEMP POTENTIAL TOTAL3 TEMPAVG PRESSURE GPRESSURE VOLUME PRESSAVG GPRESSAVG
ENERGY: 100000 1.1702 2.6845 3.6587 0.0000 -14029.7354 2500.8555 0.0000 0.0000 172.5390 -11348.8277 29.7603 -11521.3667 -11348.4519 29.7603 733.7639 793.7764 28452.2716 733.7639 793.7764
ENERGY: 200000 2.4527 3.4843 3.6390 0.0000 -13807.3060 2337.4727 0.0000 0.0000 351.6009 -11108.6564 60.6456 -11460.2573 -11107.9718 59.9798 -355.9237 -280.2675 28263.2899 5.4720 5.5579
TCL: Running 100000 steps at 90 kelvin.
TCL: Setting parameter langevinTemp to 90
TCL: Running for 100000 steps
ETITLE: TS BOND ANGLE DIHED IMPRP ELECT VDW BOUNDARY MISC KINETIC TOTAL TEMP POTENTIAL TOTAL3 TEMPAVG PRESSURE GPRESSURE VOLUME PRESSAVG GPRESSAVG
ENERGY: 200000 2.4527 3.4843 3.6390 0.0000 -13807.3060 2337.4727 0.0000 0.0000 351.4340 -11108.8232 60.6168 -11460.2573 -11108.0876 60.6168 -336.5909 -280.2733 28263.2899 -336.5909 -280.2733
ENERGY: 300000 3.1641 4.8686 4.8896 0.0000 -13673.1631 2272.2052 0.0000 0.0000 508.1929 -10879.8426 87.6553 -11388.0355 -10878.3577 90.0311 -550.7895 -490.9781 28166.1089 4.2170 4.3370
TCL: Running 100000 steps at 120 kelvin.
TCL: Setting parameter langevinTemp to 120
TCL: Running for 100000 steps
ETITLE: TS BOND ANGLE DIHED IMPRP ELECT VDW BOUNDARY MISC KINETIC TOTAL TEMP POTENTIAL TOTAL3 TEMPAVG PRESSURE GPRESSURE VOLUME PRESSAVG GPRESSAVG
ENERGY: 300000 3.1641 4.8686 4.8896 0.0000 -13673.1631 2272.2052 0.0000 0.0000 507.9306 -10880.1049 87.6101 -11388.0355 -10878.7588 87.6101 -535.2449 -490.9676 28166.1089 -535.2449 -490.9676
ENERGY: 400000 3.9319 6.5926 8.0023 0.0000 -13500.1218 2219.8163 0.0000 0.0000 711.3546 -10550.4240 122.6975 -11261.7786 -10548.5504 120.1964 -378.8472 -364.6960 28005.2682 4.5866 4.6211
TCL: Running 100000 steps at 150 kelvin.
TCL: Setting parameter langevinTemp to 150
TCL: Running for 100000 steps
ETITLE: TS BOND ANGLE DIHED IMPRP ELECT VDW BOUNDARY MISC KINETIC TOTAL TEMP POTENTIAL TOTAL3 TEMPAVG PRESSURE GPRESSURE VOLUME PRESSAVG GPRESSAVG
ENERGY: 400000 3.9319 6.5926 8.0023 0.0000 -13500.1218 2219.8163 0.0000 0.0000 711.0034 -10550.7753 122.6369 -11261.7786 -10549.2102 122.6369 -421.3742 -365.3181 28005.2682 -421.3742 -365.3181
ENERGY: 500000 3.4331 9.6897 6.3705 0.0000 -13244.1466 2148.1447 0.0000 0.0000 872.1280 -10204.3806 150.4284 -11076.5086 -10202.2344 149.9911 -522.9124 -485.4016 28478.8594 5.2070 5.2789
TCL: Running 100000 steps at 180 kelvin.
TCL: Setting parameter langevinTemp to 180
TCL: Running for 100000 steps
ETITLE: TS BOND ANGLE DIHED IMPRP ELECT VDW BOUNDARY MISC KINETIC TOTAL TEMP POTENTIAL TOTAL3 TEMPAVG PRESSURE GPRESSURE VOLUME PRESSAVG GPRESSAVG
ENERGY: 500000 3.4331 9.6897 6.3705 0.0000 -13244.1466 2148.1447 0.0000 0.0000 871.7092 -10204.7994 150.3561 -11076.5086 -10202.8575 150.3561 -544.7686 -485.5156 28478.8594 -544.7686 -485.5156
ENERGY: 600000 4.6067 8.1416 7.7826 0.0000 -12915.8689 2087.2865 0.0000 0.0000 1088.8535 -9719.1979 187.8101 -10808.0514 -9715.7150 179.9282 141.3526 269.5736 28281.9344 4.7891 4.9490
TCL: Running 100000 steps at 210 kelvin.
TCL: Setting parameter langevinTemp to 210
TCL: Running for 100000 steps
ETITLE: TS BOND ANGLE DIHED IMPRP ELECT VDW BOUNDARY MISC KINETIC TOTAL TEMP POTENTIAL TOTAL3 TEMPAVG PRESSURE GPRESSURE VOLUME PRESSAVG GPRESSAVG
ENERGY: 600000 4.6067 8.1416 7.7826 0.0000 -12915.8689 2087.2865 0.0000 0.0000 1088.3224 -9719.7290 187.7185 -10808.0514 -9717.1011 187.7185 213.9244 268.9386 28281.9344 213.9244 268.9386
ENERGY: 700000 6.4504 5.8772 7.7581 0.0000 -12255.6362 1861.1717 0.0000 0.0000 1253.9590 -9120.4198 216.2882 -10374.3788 -9116.0188 209.6193 -330.6324 -257.8344 28467.0247 4.0169 3.9339
TCL: Running 100000 steps at 240 kelvin.
TCL: Setting parameter langevinTemp to 240
TCL: Running for 100000 steps
ETITLE: TS BOND ANGLE DIHED IMPRP ELECT VDW BOUNDARY MISC KINETIC TOTAL TEMP POTENTIAL TOTAL3 TEMPAVG PRESSURE GPRESSURE VOLUME PRESSAVG GPRESSAVG
ENERGY: 700000 6.4504 5.8772 7.7581 0.0000 -12255.6362 1861.1717 0.0000 0.0000 1253.3699 -9121.0089 216.1866 -10374.3788 -9118.7839 216.1866 -325.7776 -256.5762 28467.0247 -325.7776 -256.5762
ENERGY: 800000 4.2031 13.0313 7.9696 0.0000 -11741.1141 1755.2775 0.0000 0.0000 1405.0504 -8555.5820 242.3491 -9960.6325 -8553.1824 240.2828 686.7982 794.9273 28447.7308 3.5520 3.6392
TCL: Running 100000 steps at 270 kelvin.
TCL: Setting parameter langevinTemp to 270
TCL: Running for 100000 steps
ETITLE: TS BOND ANGLE DIHED IMPRP ELECT VDW BOUNDARY MISC KINETIC TOTAL TEMP POTENTIAL TOTAL3 TEMPAVG PRESSURE GPRESSURE VOLUME PRESSAVG GPRESSAVG
ENERGY: 800000 4.2031 13.0313 7.9696 0.0000 -11741.1141 1755.2775 0.0000 0.0000 1404.3613 -8556.2712 242.2302 -9960.6325 -8553.9162 242.2302 713.9404 793.4399 28447.7308 713.9404 793.4399
ENERGY: 900000 4.9622 8.5794 7.6820 0.0000 -11066.2342 1590.4740 0.0000 0.0000 1559.6737 -7894.8630 269.0192 -9454.5367 -7890.5924 269.5832 580.8164 687.2771 29072.3318 3.8438 3.8180
TCL: Running 1000000 steps at 300 kelvin.
TCL: Setting parameter langevinTemp to 300
TCL: Running for 1000000 steps
ETITLE: TS BOND ANGLE DIHED IMPRP ELECT VDW BOUNDARY MISC KINETIC TOTAL TEMP POTENTIAL TOTAL3 TEMPAVG PRESSURE GPRESSURE VOLUME PRESSAVG GPRESSAVG
ENERGY: 900000 4.9622 8.5794 7.6820 0.0000 -11066.2342 1590.4740 0.0000 0.0000 1558.8973 -7895.6393 268.8853 -9454.5367 -7892.9515 268.8853 606.8865 686.8417 29072.3318 606.8865 686.8417
ENERGY: 1100000 5.6170 6.6324 12.9497 0.0000 -10520.5692 1396.1972 0.0000 0.0000 1724.5317 -7374.6411 297.4546 -9099.1729 -7367.8807 300.5569 -224.8102 -256.2410 30248.2672 3.9249 4.0192
ENERGY: 1300000 3.9340 11.0393 7.8844 0.0000 -10530.1016 1444.6387 0.0000 0.0000 1720.9669 -7341.6383 296.8397 -9062.6052 -7338.2770 300.5133 164.4938 222.7090 29998.8050 3.5157 3.3342
ENERGY: 1500000 4.8912 11.8460 4.9424 0.0000 -10586.9219 1479.6203 0.0000 0.0000 1752.3833 -7333.2387 302.2586 -9085.6220 -7327.3636 299.4524 478.5981 526.8700 30163.6583 2.6457 2.6354
ENERGY: 1700000 8.2496 16.2226 11.9089 0.0000 -10474.9143 1406.0861 0.0000 0.0000 1774.3634 -7258.0836 306.0498 -9032.4471 -7254.3892 300.2487 268.8912 342.1914 29858.3076 4.3342 4.1497
ENERGY: 1900000 4.6982 11.8590 10.8990 0.0000 -10477.6994 1392.5581 0.0000 0.0000 1794.8232 -7262.8619 309.5788 -9057.6850 -7256.8398 299.9940 -87.3534 -20.2979 30238.4273 4.0329 3.8502
TCL: Exiting due to exit command.
