Info: SIMULATION PARAMETERS:
Info: TIMESTEP               2
Info: NUMBER OF STEPS        0
Info: STEPS PER CYCLE        10
Info: PERIODIC CELL BASIS 1  36.005 0 0
Info: PERIODIC CELL BASIS 2  0 34.1 0
Info: PERIODIC CELL BASIS 3  0 0 36.199
Info: PERIODIC CELL CENTER   0 0 0
Info: WRAPPING WATERS AROUND PERIODIC BOUNDARIES ON OUTPUT.
Info: WRAPPING ALL CLUSTERS AROUND PERIODIC BOUNDARIES ON OUTPUT.
Info: FIRST LDB TIMESTEP     50
Info: LAST LDB TIMESTEP     -1
Info: HOM BACKGROUND SCALING 1
Info: PME BACKGROUND SCALING 1
Info: MIN ATOMS PER PATCH    40
Info: EMPTY PATCH LOAD       40 ATOMS
Info: INITIAL TEMPERATURE    300
Info: CENTER OF MASS MOVING INITIALLY? NO
Info: DIELECTRIC             1
Info: EXCLUDE                SCALED ONE-FOUR
Info: 1-4 ELECTROSTATICS SCALED BY 0.833333
Info: MODIFIED 1-4 VDW PARAMETERS WILL BE USED
Info: DCD FILENAME           mobley_6358463_equil.dcd
Info: DCD FREQUENCY          100000
Info: DCD FIRST STEP         100000
Info: DCD FILE WILL CONTAIN UNIT CELL DATA
Info: XST FILENAME           mobley_6358463_equil.xst
Info: XST FREQUENCY          100000
Info: NO VELOCITY DCD OUTPUT
Info: NO FORCE DCD OUTPUT
Info: OUTPUT FILENAME        mobley_6358463_equil
Info: BINARY OUTPUT FILES WILL BE USED
Info: RESTART FILENAME       mobley_6358463_equil.restart
Info: RESTART FREQUENCY      100000
Info: BINARY RESTART FILES WILL BE USED
Info: CUTOFF                 9
Info: PAIRLIST DISTANCE      11
Info: PAIRLIST SHRINK RATE   0.01
Info: PAIRLIST GROW RATE     0.01
Info: PAIRLIST TRIGGER       0.3
Info: PAIRLISTS PER CYCLE    2
Info: PAIRLISTS ENABLED
Info: MARGIN                 8
Info: HYDROGEN GROUP CUTOFF  2.5
Info: PATCH DIMENSION        21.5
Info: ENERGY OUTPUT STEPS    100000
Info: ENERGY EVALUATION STEPS    100000
Info: OUTPUT ENERGY PRECISION 4
Info: CROSSTERM ENERGY INCLUDED IN DIHEDRAL
Info: TIMING OUTPUT STEPS    1000000
Info: PRESSURE OUTPUT STEPS  100000
Info: LANGEVIN DYNAMICS ACTIVE
Info: LANGEVIN TEMPERATURE   30
Info: LANGEVIN USING BBK INTEGRATOR
Info: LANGEVIN DAMPING COEFFICIENT IS 1 INVERSE PS
Info: LANGEVIN DYNAMICS APPLIED TO HYDROGENS
Info: LANGEVIN PISTON PRESSURE CONTROL ACTIVE
Info:        TARGET PRESSURE IS 1.01325 BAR
Info:     OSCILLATION PERIOD IS 50 FS
Info:             DECAY TIME IS 25 FS
Info:     PISTON TEMPERATURE IS 300 K
Info:       PRESSURE CONTROL IS GROUP-BASED
Info:    INITIAL STRAIN RATE IS 0 0 0
Info:       CELL FLUCTUATION IS ISOTROPIC
Info: PARTICLE MESH EWALD (PME) ACTIVE
Info: PME TOLERANCE               1e-06
Info: PME EWALD COEFFICIENT       0.348832
Info: PME INTERPOLATION ORDER     4
Info: PME GRID DIMENSIONS         40 36 40
Info: PME MAXIMUM GRID SPACING    1
Info: FULL ELECTROSTATIC EVALUATION FREQUENCY      2
Info: USING VERLET I (r-RESPA) MTS SCHEME.
Info: C1 SPLITTING OF LONG RANGE ELECTROSTATICS
Info: PLACING ATOMS IN PATCHES BY HYDROGEN GROUPS
Info: RIGID BONDS TO HYDROGEN : ALL
Info:         ERROR TOLERANCE : 1e-08
Info:          MAX ITERATIONS : 100
Info: RIGID WATER USING SETTLE ALGORITHM
Info: RANDOM NUMBER SEED     1743215340
Info: USE HYDROGEN BONDS?    NO
Info: Using AMBER format force field!
Info: AMBER PARM FILE        mobley_6358463.prmtop
Info: COORDINATE PDB         mobley_6358463.pdb
Info: Exclusions will be read from PARM file!
Info: SCNB (VDW SCALING)     2
Info: USING ARITHMETIC MEAN TO COMBINE L-J SIGMA PARAMETERS
Info: BINARY COORDINATES     mobley_6358463_min.coor
Info: SUMMARY OF PARAMETERS:
Info: 6 BONDS
Info: 5 ANGLES
Info:   5 HARMONIC
Info:   0 COSINE-BASED
Info: 3 DIHEDRAL
Info: 0 IMPROPER
Info: 0 CROSSTERM
Info: 0 VDW
Info: 21 VDW_PAIRS
Info: 0 NBTHOLE_PAIRS
Info: STRUCTURE SUMMARY:
Info: 2940 ATOMS
Info: 2940 BONDS
Info: 30 ANGLES
Info: 42 DIHEDRALS
Info: 0 IMPROPERS
Info: 0 CROSSTERMS
Info: 3003 EXCLUSIONS
Info: 2926 RIGID BONDS
Info: 5894 DEGREES OF FREEDOM
Info: 988 HYDROGEN GROUPS
Info: 3 ATOMS IN LARGEST HYDROGEN GROUP
Info: 988 MIGRATION GROUPS
Info: 3 ATOMS IN LARGEST MIGRATION GROUP
Info: TOTAL MASS = 17761.7 amu
Info: TOTAL CHARGE = 0.000300027 e
Info: MASS DENSITY = 0.663636 g/cm^3
Info: ATOM DENSITY = 0.0661506 atoms/A^3
Info: ADDED 0 IMPLICIT EXCLUSIONS
Info: NONBONDED TABLE R-SQUARED SPACING: 0.0625
Info: NONBONDED TABLE SIZE: 705 POINTS
Info: REMOVING COM VELOCITY 0.0164409 -0.0352088 -0.118607
TCL: Running for 100000 steps
ETITLE: TS BOND ANGLE DIHED IMPRP ELECT VDW BOUNDARY MISC KINETIC TOTAL TEMP POTENTIAL TOTAL3 TEMPAVG PRESSURE GPRESSURE VOLUME PRESSAVG GPRESSAVG
ENERGY: 0 1.3263 1.7180 0.0289 0.0000 -13511.0922 2412.2901 0.0000 0.0000 1767.8351 -9327.8938 301.8714 -11095.7289 -9327.5338 301.8714 655.8162 687.7545 44444.0643 655.8162 687.7545
ENERGY: 100000 2.1567 2.0889 0.1960 0.0000 -14203.9641 2530.9490 0.0000 0.0000 178.8097 -11489.7639 30.5331 -11668.5736 -11489.4141 30.9677 324.2120 384.5658 28864.8413 3.0885 3.0768
TCL: Running 100000 steps at 60 kelvin.
TCL: Setting parameter langevinTemp to 60
TCL: Running for 100000 steps
ETITLE: TS BOND ANGLE DIHED IMPRP ELECT VDW BOUNDARY MISC KINETIC TOTAL TEMP POTENTIAL TOTAL3 TEMPAVG PRESSURE GPRESSURE VOLUME PRESSAVG GPRESSAVG
ENERGY: 100000 2.1567 2.0889 0.1960 0.0000 -14203.9641 2530.9490 0.0000 0.0000 178.7252 -11489.8484 30.5187 -11668.5736 -11489.5410 30.5187 319.3620 384.4674 28864.8413 319.3620 384.4674
ENERGY: 200000 3.2072 1.6713 0.7007 0.0000 -13863.9772 2271.8105 0.0000 0.0000 372.1206 -11214.4669 63.5425 -11586.5876 -11213.0540 59.9825 -1408.6902 -1329.6933 28812.6635 2.5768 2.5440
TCL: Running 100000 steps at 90 kelvin.
TCL: Setting parameter langevinTemp to 90
TCL: Running for 100000 steps
ETITLE: TS BOND ANGLE DIHED IMPRP ELECT VDW BOUNDARY MISC KINETIC TOTAL TEMP POTENTIAL TOTAL3 TEMPAVG PRESSURE GPRESSURE VOLUME PRESSAVG GPRESSAVG
ENERGY: 200000 3.2072 1.6713 0.7007 0.0000 -13863.9772 2271.8105 0.0000 0.0000 371.9515 -11214.6361 63.5136 -11586.5876 -11213.6596 63.5136 -1395.2712 -1329.3995 28812.6635 -1395.2712 -1329.3995
ENERGY: 300000 3.5027 3.6551 0.5277 0.0000 -13782.3296 2309.7204 0.0000 0.0000 521.7677 -10943.1559 89.0959 -11464.9237 -10942.6308 90.0398 -481.0721 -383.3331 28664.0313 5.2202 5.1793
TCL: Running 100000 steps at 120 kelvin.
TCL: Setting parameter langevinTemp to 120
TCL: Running for 100000 steps
ETITLE: TS BOND ANGLE DIHED IMPRP ELECT VDW BOUNDARY MISC KINETIC TOTAL TEMP POTENTIAL TOTAL3 TEMPAVG PRESSURE GPRESSURE VOLUME PRESSAVG GPRESSAVG
ENERGY: 300000 3.5027 3.6551 0.5277 0.0000 -13782.3296 2309.7204 0.0000 0.0000 521.5085 -10943.4151 89.0516 -11464.9237 -10942.3325 89.0516 -446.0522 -383.8509 28664.0313 -446.0522 -383.8509
ENERGY: 400000 1.3731 3.6901 1.1382 0.0000 -13668.7135 2340.3050 0.0000 0.0000 692.6031 -10629.6040 118.2673 -11322.2070 -10627.6670 119.9893 418.5213 502.5558 28569.5694 4.7108 4.8136
TCL: Running 100000 steps at 150 kelvin.
TCL: Setting parameter langevinTemp to 150
TCL: Running for 100000 steps
ETITLE: TS BOND ANGLE DIHED IMPRP ELECT VDW BOUNDARY MISC KINETIC TOTAL TEMP POTENTIAL TOTAL3 TEMPAVG PRESSURE GPRESSURE VOLUME PRESSAVG GPRESSAVG
ENERGY: 400000 1.3731 3.6901 1.1382 0.0000 -13668.7135 2340.3050 0.0000 0.0000 692.2346 -10629.9725 118.2044 -11322.2070 -10628.6166 118.2044 443.9428 502.8456 28569.5694 443.9428 502.8456
ENERGY: 500000 3.6825 3.9337 0.7424 0.0000 -13408.8047 2213.3824 0.0000 0.0000 853.4570 -10333.6068 145.7343 -11187.0637 -10331.8263 149.9079 -393.0293 -311.3515 28914.5754 4.0594 3.9194
TCL: Running 100000 steps at 180 kelvin.
TCL: Setting parameter langevinTemp to 180
TCL: Running for 100000 steps
ETITLE: TS BOND ANGLE DIHED IMPRP ELECT VDW BOUNDARY MISC KINETIC TOTAL TEMP POTENTIAL TOTAL3 TEMPAVG PRESSURE GPRESSURE VOLUME PRESSAVG GPRESSAVG
ENERGY: 500000 3.6825 3.9337 0.7424 0.0000 -13408.8048 2213.3824 0.0000 0.0000 853.0335 -10334.0302 145.6620 -11187.0637 -10332.3007 145.6620 -365.5046 -310.7458 28914.5754 -365.5046 -310.7458
ENERGY: 600000 1.8207 3.9731 2.4725 0.0000 -12895.0092 2013.8834 0.0000 0.0000 1078.7078 -9794.1517 184.1976 -10872.8595 -9793.5378 180.1789 -569.8762 -556.4613 28629.4621 3.1120 3.1071
TCL: Running 100000 steps at 210 kelvin.
TCL: Setting parameter langevinTemp to 210
TCL: Running for 100000 steps
ETITLE: TS BOND ANGLE DIHED IMPRP ELECT VDW BOUNDARY MISC KINETIC TOTAL TEMP POTENTIAL TOTAL3 TEMPAVG PRESSURE GPRESSURE VOLUME PRESSAVG GPRESSAVG
ENERGY: 600000 1.8207 3.9731 2.4725 0.0000 -12895.0092 2013.8834 0.0000 0.0000 1078.1879 -9794.6716 184.1089 -10872.8595 -9792.4709 184.1089 -628.4482 -559.3075 28629.4621 -628.4482 -559.3075
ENERGY: 700000 4.8819 6.7831 0.7664 0.0000 -12173.1853 1819.9366 0.0000 0.0000 1257.7864 -9083.0310 214.7767 -10340.8174 -9079.3437 209.5704 -270.2515 -238.7255 28889.3919 4.4505 4.3435
TCL: Running 100000 steps at 240 kelvin.
TCL: Setting parameter langevinTemp to 240
TCL: Running for 100000 steps
ETITLE: TS BOND ANGLE DIHED IMPRP ELECT VDW BOUNDARY MISC KINETIC TOTAL TEMP POTENTIAL TOTAL3 TEMPAVG PRESSURE GPRESSURE VOLUME PRESSAVG GPRESSAVG
ENERGY: 700000 4.8819 6.7831 0.7664 0.0000 -12173.1853 1819.9366 0.0000 0.0000 1257.1905 -9083.6269 214.6749 -10340.8174 -9081.8806 214.6749 -322.3718 -236.2563 28889.3919 -322.3718 -236.2563
ENERGY: 800000 8.4051 7.8969 1.3844 0.0000 -11612.7411 1612.6260 0.0000 0.0000 1392.5624 -8589.8662 237.7907 -9982.4286 -8587.0861 239.8485 -943.0837 -808.8022 29193.9563 4.8183 4.8767
TCL: Running 100000 steps at 270 kelvin.
TCL: Setting parameter langevinTemp to 270
TCL: Running for 100000 steps
ETITLE: TS BOND ANGLE DIHED IMPRP ELECT VDW BOUNDARY MISC KINETIC TOTAL TEMP POTENTIAL TOTAL3 TEMPAVG PRESSURE GPRESSURE VOLUME PRESSAVG GPRESSAVG
ENERGY: 800000 8.4051 7.8969 1.3844 0.0000 -11612.7411 1612.6260 0.0000 0.0000 1391.8385 -8590.5901 237.6671 -9982.4286 -8588.3786 237.6671 -881.4144 -808.1499 29193.9563 -881.4144 -808.1499
ENERGY: 900000 8.1339 7.8968 1.8993 0.0000 -11126.0706 1506.5470 0.0000 0.0000 1569.6112 -8031.9824 268.0232 -9601.5936 -8027.8750 269.8403 -673.2660 -641.9849 29622.2905 2.4987 2.5957
TCL: Running 1000000 steps at 300 kelvin.
TCL: Setting parameter langevinTemp to 300
TCL: Running for 1000000 steps
ETITLE: TS BOND ANGLE DIHED IMPRP ELECT VDW BOUNDARY MISC KINETIC TOTAL TEMP POTENTIAL TOTAL3 TEMPAVG PRESSURE GPRESSURE VOLUME PRESSAVG GPRESSAVG
ENERGY: 900000 8.1339 7.8968 1.8993 0.0000 -11126.0706 1506.5470 0.0000 0.0000 1568.8401 -8032.7535 267.8915 -9601.5936 -8030.0409 267.8915 -717.6232 -641.5145 29622.2905 -717.6232 -641.5145
ENERGY: 1100000 5.6084 3.9344 3.4706 0.0000 -10577.7377 1456.2392 0.0000 0.0000 1791.0017 -7317.4833 305.8273 -9108.4851 -7312.2578 300.5630 350.7251 409.9019 30636.7794 2.1209 2.3441
ENERGY: 1300000 2.7116 8.7186 1.2742 0.0000 -10574.0469 1406.5253 0.0000 0.0000 1734.8869 -7419.9303 296.2453 -9154.8172 -7417.0603 299.5333 -357.9206 -266.4902 30772.3432 4.2945 4.3509
ENERGY: 1500000 6.3458 9.1194 2.7115 0.0000 -10629.9287 1468.1231 0.0000 0.0000 1754.1333 -7389.4957 299.5317 -9143.6290 -7385.9242 300.2855 391.8514 463.4465 30292.8988 4.1466 4.1337
ENERGY: 1700000 4.5821 6.2305 1.2757 0.0000 -10758.5764 1570.4700 0.0000 0.0000 1756.2942 -7419.7239 299.9007 -9176.0181 -7420.6104 300.5535 1170.6551 1270.7446 30261.9103 4.1269 4.1359
ENERGY: 1900000 9.2771 8.6763 1.7220 0.0000 -10662.8121 1459.5073 0.0000 0.0000 1779.1335 -7404.4957 303.8007 -9183.6292 -7399.9953 299.9477 -18.9232 54.9302 30402.1337 4.5271 4.4287
TCL: Exiting due to exit command.
