Info: SIMULATION PARAMETERS:
Info: TIMESTEP               2
Info: NUMBER OF STEPS        0
Info: STEPS PER CYCLE        10
Info: PERIODIC CELL BASIS 1  34.207 0 0
Info: PERIODIC CELL BASIS 2  0 37.796 0
Info: PERIODIC CELL BASIS 3  0 0 34.933
Info: PERIODIC CELL CENTER   0 0 0
Info: WRAPPING WATERS AROUND PERIODIC BOUNDARIES ON OUTPUT.
Info: WRAPPING ALL CLUSTERS AROUND PERIODIC BOUNDARIES ON OUTPUT.
Info: FIRST LDB TIMESTEP     50
Info: LAST LDB TIMESTEP     -1
Info: HOM BACKGROUND SCALING 1
Info: PME BACKGROUND SCALING 1
Info: MIN ATOMS PER PATCH    40
Info: EMPTY PATCH LOAD       40 ATOMS
Info: INITIAL TEMPERATURE    300
Info: CENTER OF MASS MOVING INITIALLY? NO
Info: DIELECTRIC             1
Info: EXCLUDE                SCALED ONE-FOUR
Info: 1-4 ELECTROSTATICS SCALED BY 0.833333
Info: MODIFIED 1-4 VDW PARAMETERS WILL BE USED
Info: DCD FILENAME           mobley_8713762_equil.dcd
Info: DCD FREQUENCY          100000
Info: DCD FIRST STEP         100000
Info: DCD FILE WILL CONTAIN UNIT CELL DATA
Info: XST FILENAME           mobley_8713762_equil.xst
Info: XST FREQUENCY          100000
Info: NO VELOCITY DCD OUTPUT
Info: NO FORCE DCD OUTPUT
Info: OUTPUT FILENAME        mobley_8713762_equil
Info: BINARY OUTPUT FILES WILL BE USED
Info: RESTART FILENAME       mobley_8713762_equil.restart
Info: RESTART FREQUENCY      100000
Info: BINARY RESTART FILES WILL BE USED
Info: CUTOFF                 9
Info: PAIRLIST DISTANCE      11
Info: PAIRLIST SHRINK RATE   0.01
Info: PAIRLIST GROW RATE     0.01
Info: PAIRLIST TRIGGER       0.3
Info: PAIRLISTS PER CYCLE    2
Info: PAIRLISTS ENABLED
Info: MARGIN                 8
Info: HYDROGEN GROUP CUTOFF  2.5
Info: PATCH DIMENSION        21.5
Info: ENERGY OUTPUT STEPS    100000
Info: ENERGY EVALUATION STEPS    100000
Info: OUTPUT ENERGY PRECISION 4
Info: CROSSTERM ENERGY INCLUDED IN DIHEDRAL
Info: TIMING OUTPUT STEPS    1000000
Info: PRESSURE OUTPUT STEPS  100000
Info: LANGEVIN DYNAMICS ACTIVE
Info: LANGEVIN TEMPERATURE   30
Info: LANGEVIN USING BBK INTEGRATOR
Info: LANGEVIN DAMPING COEFFICIENT IS 1 INVERSE PS
Info: LANGEVIN DYNAMICS APPLIED TO HYDROGENS
Info: LANGEVIN PISTON PRESSURE CONTROL ACTIVE
Info:        TARGET PRESSURE IS 1.01325 BAR
Info:     OSCILLATION PERIOD IS 50 FS
Info:             DECAY TIME IS 25 FS
Info:     PISTON TEMPERATURE IS 300 K
Info:       PRESSURE CONTROL IS GROUP-BASED
Info:    INITIAL STRAIN RATE IS 0 0 0
Info:       CELL FLUCTUATION IS ISOTROPIC
Info: PARTICLE MESH EWALD (PME) ACTIVE
Info: PME TOLERANCE               1e-06
Info: PME EWALD COEFFICIENT       0.348832
Info: PME INTERPOLATION ORDER     4
Info: PME GRID DIMENSIONS         36 40 36
Info: PME MAXIMUM GRID SPACING    1
Info: FULL ELECTROSTATIC EVALUATION FREQUENCY      2
Info: USING VERLET I (r-RESPA) MTS SCHEME.
Info: C1 SPLITTING OF LONG RANGE ELECTROSTATICS
Info: PLACING ATOMS IN PATCHES BY HYDROGEN GROUPS
Info: RIGID BONDS TO HYDROGEN : ALL
Info:         ERROR TOLERANCE : 1e-08
Info:          MAX ITERATIONS : 100
Info: RIGID WATER USING SETTLE ALGORITHM
Info: RANDOM NUMBER SEED     1743262968
Info: USE HYDROGEN BONDS?    NO
Info: Using AMBER format force field!
Info: AMBER PARM FILE        mobley_8713762.prmtop
Info: COORDINATE PDB         mobley_8713762.pdb
Info: Exclusions will be read from PARM file!
Info: SCNB (VDW SCALING)     2
Info: USING ARITHMETIC MEAN TO COMBINE L-J SIGMA PARAMETERS
Info: BINARY COORDINATES     mobley_8713762_min.coor
Info: SUMMARY OF PARAMETERS:
Info: 10 BONDS
Info: 15 ANGLES
Info:   15 HARMONIC
Info:   0 COSINE-BASED
Info: 11 DIHEDRAL
Info: 0 IMPROPER
Info: 0 CROSSTERM
Info: 0 VDW
Info: 45 VDW_PAIRS
Info: 0 NBTHOLE_PAIRS
Info: STRUCTURE SUMMARY:
Info: 2914 ATOMS
Info: 2913 BONDS
Info: 61 ANGLES
Info: 83 DIHEDRALS
Info: 0 IMPROPERS
Info: 0 CROSSTERMS
Info: 3049 EXCLUSIONS
Info: 2901 RIGID BONDS
Info: 5841 DEGREES OF FREEDOM
Info: 973 HYDROGEN GROUPS
Info: 4 ATOMS IN LARGEST HYDROGEN GROUP
Info: 973 MIGRATION GROUPS
Info: 4 ATOMS IN LARGEST MIGRATION GROUP
Info: TOTAL MASS = 17498.7 amu
Info: TOTAL CHARGE = 0.000599965 e
Info: MASS DENSITY = 0.643381 g/cm^3
Info: ATOM DENSITY = 0.0645198 atoms/A^3
Info: ADDED 0 IMPLICIT EXCLUSIONS
Info: NONBONDED TABLE R-SQUARED SPACING: 0.0625
Info: NONBONDED TABLE SIZE: 705 POINTS
Info: REMOVING COM VELOCITY 0.0265392 0.0404657 0.125054
TCL: Running for 100000 steps
ETITLE: TS BOND ANGLE DIHED IMPRP ELECT VDW BOUNDARY MISC KINETIC TOTAL TEMP POTENTIAL TOTAL3 TEMPAVG PRESSURE GPRESSURE VOLUME PRESSAVG GPRESSAVG
ENERGY: 0 0.2707 1.2981 1.8720 0.0000 -13414.2642 2367.7143 0.0000 0.0000 1731.9358 -9311.1732 298.4248 -11043.1090 -9310.8504 298.4248 664.6103 696.3600 45164.4485 664.6103 696.3600
ENERGY: 100000 0.2439 2.4873 2.1036 0.0000 -14057.4926 2479.4724 0.0000 0.0000 178.1006 -11395.0848 30.6880 -11573.1855 -11394.5047 30.9835 564.0251 611.4160 28288.0923 4.6759 4.6787
TCL: Running 100000 steps at 60 kelvin.
TCL: Setting parameter langevinTemp to 60
TCL: Running for 100000 steps
ETITLE: TS BOND ANGLE DIHED IMPRP ELECT VDW BOUNDARY MISC KINETIC TOTAL TEMP POTENTIAL TOTAL3 TEMPAVG PRESSURE GPRESSURE VOLUME PRESSAVG GPRESSAVG
ENERGY: 100000 0.2439 2.4873 2.1036 0.0000 -14057.4926 2479.4724 0.0000 0.0000 178.0168 -11395.1687 30.6736 -11573.1855 -11394.7110 30.6736 557.6731 611.6159 28288.0923 557.6731 611.6159
ENERGY: 200000 1.8446 3.9551 1.7918 0.0000 -13722.6422 2269.3416 0.0000 0.0000 354.6893 -11091.0198 61.1155 -11445.7090 -11090.1909 60.0237 -779.1891 -706.5878 28421.5873 2.9314 2.9122
TCL: Running 100000 steps at 90 kelvin.
TCL: Setting parameter langevinTemp to 90
TCL: Running for 100000 steps
ETITLE: TS BOND ANGLE DIHED IMPRP ELECT VDW BOUNDARY MISC KINETIC TOTAL TEMP POTENTIAL TOTAL3 TEMPAVG PRESSURE GPRESSURE VOLUME PRESSAVG GPRESSAVG
ENERGY: 200000 1.8446 3.9551 1.7918 0.0000 -13722.6422 2269.3416 0.0000 0.0000 354.5201 -11091.1889 61.0863 -11445.7090 -11090.1785 61.0863 -773.9598 -706.8791 28421.5873 -773.9598 -706.8791
ENERGY: 300000 0.8722 5.6145 1.8229 0.0000 -13636.4073 2258.2044 0.0000 0.0000 514.3326 -10855.5607 88.6232 -11369.8933 -10853.6339 89.8214 -415.3409 -377.3414 28364.0515 3.4742 3.5529
TCL: Running 100000 steps at 120 kelvin.
TCL: Setting parameter langevinTemp to 120
TCL: Running for 100000 steps
ETITLE: TS BOND ANGLE DIHED IMPRP ELECT VDW BOUNDARY MISC KINETIC TOTAL TEMP POTENTIAL TOTAL3 TEMPAVG PRESSURE GPRESSURE VOLUME PRESSAVG GPRESSAVG
ENERGY: 300000 0.8722 5.6145 1.8229 0.0000 -13636.4073 2258.2044 0.0000 0.0000 514.0827 -10855.8106 88.5801 -11369.8933 -10854.8231 88.5801 -432.4482 -376.6209 28364.0515 -432.4482 -376.6209
ENERGY: 400000 0.9506 7.2808 2.7535 0.0000 -13599.4441 2326.6602 0.0000 0.0000 707.7023 -10554.0967 121.9421 -11261.7989 -10552.2762 120.0655 595.3213 698.5667 28089.1330 4.8770 4.8722
TCL: Running 100000 steps at 150 kelvin.
TCL: Setting parameter langevinTemp to 150
TCL: Running for 100000 steps
ETITLE: TS BOND ANGLE DIHED IMPRP ELECT VDW BOUNDARY MISC KINETIC TOTAL TEMP POTENTIAL TOTAL3 TEMPAVG PRESSURE GPRESSURE VOLUME PRESSAVG GPRESSAVG
ENERGY: 400000 0.9506 7.2808 2.7535 0.0000 -13599.4441 2326.6602 0.0000 0.0000 707.3427 -10554.4562 121.8802 -11261.7989 -10553.1565 121.8802 631.0781 698.8547 28089.1330 631.0781 698.8547
ENERGY: 500000 5.2214 8.1117 3.6085 0.0000 -13087.0252 2024.4668 0.0000 0.0000 881.3340 -10164.2828 151.8601 -11045.6168 -10163.3516 149.7681 -1553.1235 -1491.7949 28649.7418 4.6354 4.5903
TCL: Running 100000 steps at 180 kelvin.
TCL: Setting parameter langevinTemp to 180
TCL: Running for 100000 steps
ETITLE: TS BOND ANGLE DIHED IMPRP ELECT VDW BOUNDARY MISC KINETIC TOTAL TEMP POTENTIAL TOTAL3 TEMPAVG PRESSURE GPRESSURE VOLUME PRESSAVG GPRESSAVG
ENERGY: 500000 5.2214 8.1117 3.6085 0.0000 -13087.0252 2024.4668 0.0000 0.0000 880.9026 -10164.7142 151.7858 -11045.6168 -10162.5674 151.7858 -1549.3177 -1494.3054 28649.7418 -1549.3177 -1494.3054
ENERGY: 600000 1.9304 11.3455 4.7845 0.0000 -12769.9606 2003.6616 0.0000 0.0000 1025.6385 -9722.6000 176.7248 -10748.2385 -9720.5892 179.8725 -445.2222 -388.7549 28560.9466 3.6932 3.7831
TCL: Running 100000 steps at 210 kelvin.
TCL: Setting parameter langevinTemp to 210
TCL: Running for 100000 steps
ETITLE: TS BOND ANGLE DIHED IMPRP ELECT VDW BOUNDARY MISC KINETIC TOTAL TEMP POTENTIAL TOTAL3 TEMPAVG PRESSURE GPRESSURE VOLUME PRESSAVG GPRESSAVG
ENERGY: 600000 1.9304 11.3455 4.7845 0.0000 -12769.9606 2003.6616 0.0000 0.0000 1025.1108 -9723.1277 176.6339 -10748.2385 -9720.4506 176.6339 -448.2338 -389.3274 28560.9466 -448.2338 -389.3274
ENERGY: 700000 2.0948 7.6700 2.8117 0.0000 -12287.3515 1900.7688 0.0000 0.0000 1238.2351 -9135.7711 213.3567 -10374.0062 -9131.5441 210.0821 372.4885 454.8184 28224.2767 4.8618 4.9153
TCL: Running 100000 steps at 240 kelvin.
TCL: Setting parameter langevinTemp to 240
TCL: Running for 100000 steps
ETITLE: TS BOND ANGLE DIHED IMPRP ELECT VDW BOUNDARY MISC KINETIC TOTAL TEMP POTENTIAL TOTAL3 TEMPAVG PRESSURE GPRESSURE VOLUME PRESSAVG GPRESSAVG
ENERGY: 700000 2.0948 7.6700 2.8117 0.0000 -12287.3515 1900.7688 0.0000 0.0000 1237.6190 -9136.3872 213.2505 -10374.0062 -9134.0333 213.2505 376.6328 455.9352 28224.2767 376.6328 455.9352
ENERGY: 800000 6.4564 12.0888 6.0669 0.0000 -11802.5257 1852.4170 0.0000 0.0000 1383.8963 -8541.6003 238.4552 -9925.4966 -8539.6910 239.9990 1435.9970 1512.6301 28166.8230 3.2789 3.2693
TCL: Running 100000 steps at 270 kelvin.
TCL: Setting parameter langevinTemp to 270
TCL: Running for 100000 steps
ETITLE: TS BOND ANGLE DIHED IMPRP ELECT VDW BOUNDARY MISC KINETIC TOTAL TEMP POTENTIAL TOTAL3 TEMPAVG PRESSURE GPRESSURE VOLUME PRESSAVG GPRESSAVG
ENERGY: 800000 6.4564 12.0888 6.0669 0.0000 -11802.5257 1852.4170 0.0000 0.0000 1383.2425 -8542.2541 238.3425 -9925.4966 -8540.7792 238.3425 1437.7091 1512.6657 28166.8230 1437.7091 1512.6657
ENERGY: 900000 2.3616 9.8369 4.5509 0.0000 -11035.9914 1552.3101 0.0000 0.0000 1532.8933 -7934.0385 264.1284 -9466.9318 -7932.0185 269.7406 -13.2121 125.3682 29633.6403 3.0003 2.9144
TCL: Running 1000000 steps at 300 kelvin.
TCL: Setting parameter langevinTemp to 300
TCL: Running for 1000000 steps
ETITLE: TS BOND ANGLE DIHED IMPRP ELECT VDW BOUNDARY MISC KINETIC TOTAL TEMP POTENTIAL TOTAL3 TEMPAVG PRESSURE GPRESSURE VOLUME PRESSAVG GPRESSAVG
ENERGY: 900000 2.3616 9.8369 4.5509 0.0000 -11035.9914 1552.3101 0.0000 0.0000 1532.1018 -7934.8300 263.9920 -9466.9318 -7932.7832 263.9920 39.3217 125.3583 29633.6403 39.3217 125.3583
ENERGY: 1100000 2.5715 16.3413 4.0147 0.0000 -10469.9963 1357.8055 0.0000 0.0000 1794.1792 -7295.0841 309.1498 -9089.2633 -7291.9098 300.8654 -102.7963 -71.2019 29971.1166 3.8250 4.0829
ENERGY: 1300000 4.8564 15.8355 4.3743 0.0000 -10641.3474 1467.8875 0.0000 0.0000 1797.8280 -7350.5658 309.7785 -9148.3938 -7344.7367 300.3199 247.5553 315.9829 30054.9144 2.3484 2.2567
ENERGY: 1500000 3.2925 23.6316 5.6547 0.0000 -10522.9841 1410.5201 0.0000 0.0000 1749.8535 -7330.0317 301.5122 -9079.8852 -7325.7832 300.5048 -374.1471 -297.2475 30658.6768 4.0352 3.9358
ENERGY: 1700000 6.7707 16.3246 3.2081 0.0000 -10514.8043 1418.1795 0.0000 0.0000 1727.8094 -7342.5120 297.7138 -9070.3214 -7340.3246 300.0615 119.6157 225.3680 29991.5257 4.1750 4.0062
ENERGY: 1900000 3.1702 21.4632 3.6906 0.0000 -10604.0472 1428.2147 0.0000 0.0000 1730.6575 -7416.8509 298.2046 -9147.5085 -7410.8500 299.9059 258.6477 273.6715 29660.8535 3.6423 3.5690
TCL: Exiting due to exit command.
