Info: SIMULATION PARAMETERS:
Info: TIMESTEP               2
Info: NUMBER OF STEPS        0
Info: STEPS PER CYCLE        10
Info: PERIODIC CELL BASIS 1  34.986 0 0
Info: PERIODIC CELL BASIS 2  0 34.26 0
Info: PERIODIC CELL BASIS 3  0 0 36.199
Info: PERIODIC CELL CENTER   0 0 0
Info: WRAPPING WATERS AROUND PERIODIC BOUNDARIES ON OUTPUT.
Info: WRAPPING ALL CLUSTERS AROUND PERIODIC BOUNDARIES ON OUTPUT.
Info: FIRST LDB TIMESTEP     50
Info: LAST LDB TIMESTEP     -1
Info: HOM BACKGROUND SCALING 1
Info: PME BACKGROUND SCALING 1
Info: MIN ATOMS PER PATCH    40
Info: EMPTY PATCH LOAD       40 ATOMS
Info: INITIAL TEMPERATURE    300
Info: CENTER OF MASS MOVING INITIALLY? NO
Info: DIELECTRIC             1
Info: EXCLUDE                SCALED ONE-FOUR
Info: 1-4 ELECTROSTATICS SCALED BY 0.833333
Info: MODIFIED 1-4 VDW PARAMETERS WILL BE USED
Info: DCD FILENAME           mobley_664966_equil.dcd
Info: DCD FREQUENCY          100000
Info: DCD FIRST STEP         100000
Info: DCD FILE WILL CONTAIN UNIT CELL DATA
Info: XST FILENAME           mobley_664966_equil.xst
Info: XST FREQUENCY          100000
Info: NO VELOCITY DCD OUTPUT
Info: NO FORCE DCD OUTPUT
Info: OUTPUT FILENAME        mobley_664966_equil
Info: BINARY OUTPUT FILES WILL BE USED
Info: RESTART FILENAME       mobley_664966_equil.restart
Info: RESTART FREQUENCY      100000
Info: BINARY RESTART FILES WILL BE USED
Info: CUTOFF                 9
Info: PAIRLIST DISTANCE      11
Info: PAIRLIST SHRINK RATE   0.01
Info: PAIRLIST GROW RATE     0.01
Info: PAIRLIST TRIGGER       0.3
Info: PAIRLISTS PER CYCLE    2
Info: PAIRLISTS ENABLED
Info: MARGIN                 8
Info: HYDROGEN GROUP CUTOFF  2.5
Info: PATCH DIMENSION        21.5
Info: ENERGY OUTPUT STEPS    100000
Info: ENERGY EVALUATION STEPS    100000
Info: OUTPUT ENERGY PRECISION 4
Info: CROSSTERM ENERGY INCLUDED IN DIHEDRAL
Info: TIMING OUTPUT STEPS    1000000
Info: PRESSURE OUTPUT STEPS  100000
Info: LANGEVIN DYNAMICS ACTIVE
Info: LANGEVIN TEMPERATURE   30
Info: LANGEVIN USING BBK INTEGRATOR
Info: LANGEVIN DAMPING COEFFICIENT IS 1 INVERSE PS
Info: LANGEVIN DYNAMICS APPLIED TO HYDROGENS
Info: LANGEVIN PISTON PRESSURE CONTROL ACTIVE
Info:        TARGET PRESSURE IS 1.01325 BAR
Info:     OSCILLATION PERIOD IS 50 FS
Info:             DECAY TIME IS 25 FS
Info:     PISTON TEMPERATURE IS 300 K
Info:       PRESSURE CONTROL IS GROUP-BASED
Info:    INITIAL STRAIN RATE IS 0 0 0
Info:       CELL FLUCTUATION IS ISOTROPIC
Info: PARTICLE MESH EWALD (PME) ACTIVE
Info: PME TOLERANCE               1e-06
Info: PME EWALD COEFFICIENT       0.348832
Info: PME INTERPOLATION ORDER     4
Info: PME GRID DIMENSIONS         36 36 40
Info: PME MAXIMUM GRID SPACING    1
Info: FULL ELECTROSTATIC EVALUATION FREQUENCY      2
Info: USING VERLET I (r-RESPA) MTS SCHEME.
Info: C1 SPLITTING OF LONG RANGE ELECTROSTATICS
Info: PLACING ATOMS IN PATCHES BY HYDROGEN GROUPS
Info: RIGID BONDS TO HYDROGEN : ALL
Info:         ERROR TOLERANCE : 1e-08
Info:          MAX ITERATIONS : 100
Info: RIGID WATER USING SETTLE ALGORITHM
Info: RANDOM NUMBER SEED     1743152972
Info: USE HYDROGEN BONDS?    NO
Info: Using AMBER format force field!
Info: AMBER PARM FILE        mobley_664966.prmtop
Info: COORDINATE PDB         mobley_664966.pdb
Info: Exclusions will be read from PARM file!
Info: SCNB (VDW SCALING)     2
Info: USING ARITHMETIC MEAN TO COMBINE L-J SIGMA PARAMETERS
Info: BINARY COORDINATES     mobley_664966_min.coor
Info: SUMMARY OF PARAMETERS:
Info: 4 BONDS
Info: 3 ANGLES
Info:   3 HARMONIC
Info:   0 COSINE-BASED
Info: 0 DIHEDRAL
Info: 0 IMPROPER
Info: 0 CROSSTERM
Info: 0 VDW
Info: 15 VDW_PAIRS
Info: 0 NBTHOLE_PAIRS
Info: STRUCTURE SUMMARY:
Info: 2933 ATOMS
Info: 2932 BONDS
Info: 6 ANGLES
Info: 0 DIHEDRALS
Info: 0 IMPROPERS
Info: 0 CROSSTERMS
Info: 2938 EXCLUSIONS
Info: 2930 RIGID BONDS
Info: 5869 DEGREES OF FREEDOM
Info: 979 HYDROGEN GROUPS
Info: 3 ATOMS IN LARGEST HYDROGEN GROUP
Info: 979 MIGRATION GROUPS
Info: 3 ATOMS IN LARGEST MIGRATION GROUP
Info: TOTAL MASS = 17851.4 amu
Info: TOTAL CHARGE = -0.000200003 e
Info: MASS DENSITY = 0.68321 g/cm^3
Info: ATOM DENSITY = 0.067598 atoms/A^3
Info: ADDED 0 IMPLICIT EXCLUSIONS
Info: NONBONDED TABLE R-SQUARED SPACING: 0.0625
Info: NONBONDED TABLE SIZE: 705 POINTS
Info: REMOVING COM VELOCITY 0.0063996 0.0172426 0.126496
TCL: Running for 100000 steps
ETITLE: TS BOND ANGLE DIHED IMPRP ELECT VDW BOUNDARY MISC KINETIC TOTAL TEMP POTENTIAL TOTAL3 TEMPAVG PRESSURE GPRESSURE VOLUME PRESSAVG GPRESSAVG
ENERGY: 0 0.0028 0.3976 0.0000 0.0000 -13562.2746 2359.3304 0.0000 0.0000 1813.3678 -9389.1760 310.9655 -11202.5438 -9388.7973 310.9655 290.8921 322.7063 43388.8584 290.8921 322.7063
ENERGY: 100000 0.0037 0.5208 0.0000 0.0000 -14278.9810 2634.3484 0.0000 0.0000 170.9860 -11473.1221 29.3215 -11644.1081 -11472.5786 30.9299 1448.3885 1504.6201 29225.4876 3.7124 3.7499
TCL: Running 100000 steps at 60 kelvin.
TCL: Setting parameter langevinTemp to 60
TCL: Running for 100000 steps
ETITLE: TS BOND ANGLE DIHED IMPRP ELECT VDW BOUNDARY MISC KINETIC TOTAL TEMP POTENTIAL TOTAL3 TEMPAVG PRESSURE GPRESSURE VOLUME PRESSAVG GPRESSAVG
ENERGY: 100000 0.0037 0.5208 0.0000 0.0000 -14278.9810 2634.3484 0.0000 0.0000 170.8963 -11473.2118 29.3062 -11644.1081 -11472.9259 29.3062 1441.5981 1504.6501 29225.4876 1441.5981 1504.6501
ENERGY: 200000 0.0163 0.8127 0.0000 0.0000 -14141.2447 2522.1165 0.0000 0.0000 345.1348 -11273.1644 59.1855 -11618.2992 -11272.1369 59.8318 894.3199 956.8130 28806.7418 5.2182 5.1992
TCL: Running 100000 steps at 90 kelvin.
TCL: Setting parameter langevinTemp to 90
TCL: Running for 100000 steps
ETITLE: TS BOND ANGLE DIHED IMPRP ELECT VDW BOUNDARY MISC KINETIC TOTAL TEMP POTENTIAL TOTAL3 TEMPAVG PRESSURE GPRESSURE VOLUME PRESSAVG GPRESSAVG
ENERGY: 200000 0.0163 0.8127 0.0000 0.0000 -14141.2447 2522.1165 0.0000 0.0000 344.9634 -11273.3358 59.1561 -11618.2992 -11272.5530 59.1561 898.5959 956.9681 28806.7418 898.5959 956.9681
ENERGY: 300000 0.0534 0.5229 0.0000 0.0000 -13947.9972 2424.0025 0.0000 0.0000 525.3055 -10998.1128 90.0820 -11523.4184 -10997.1275 89.9300 413.3438 470.8190 28649.6710 4.6294 4.6246
TCL: Running 100000 steps at 120 kelvin.
TCL: Setting parameter langevinTemp to 120
TCL: Running for 100000 steps
ETITLE: TS BOND ANGLE DIHED IMPRP ELECT VDW BOUNDARY MISC KINETIC TOTAL TEMP POTENTIAL TOTAL3 TEMPAVG PRESSURE GPRESSURE VOLUME PRESSAVG GPRESSAVG
ENERGY: 300000 0.0534 0.5229 0.0000 0.0000 -13947.9972 2424.0025 0.0000 0.0000 525.0458 -10998.3726 90.0375 -11523.4184 -10997.0370 90.0375 420.9281 470.7904 28649.6710 420.9281 470.7904
ENERGY: 400000 0.2131 1.4016 0.0000 0.0000 -13658.8986 2239.3903 0.0000 0.0000 691.4661 -10726.4276 118.5761 -11417.8937 -10723.8518 119.8583 -813.4906 -780.1212 29054.7543 4.6929 4.6336
TCL: Running 100000 steps at 150 kelvin.
TCL: Setting parameter langevinTemp to 150
TCL: Running for 100000 steps
ETITLE: TS BOND ANGLE DIHED IMPRP ELECT VDW BOUNDARY MISC KINETIC TOTAL TEMP POTENTIAL TOTAL3 TEMPAVG PRESSURE GPRESSURE VOLUME PRESSAVG GPRESSAVG
ENERGY: 400000 0.2131 1.4016 0.0000 0.0000 -13658.8986 2239.3903 0.0000 0.0000 691.1194 -10726.7743 118.5166 -11417.8937 -10725.5084 118.5166 -831.0925 -779.8631 29054.7543 -831.0925 -779.8631
ENERGY: 500000 0.5277 1.3229 0.0000 0.0000 -13407.3028 2167.9609 0.0000 0.0000 876.3764 -10361.1149 150.2855 -11237.4913 -10358.9427 149.9600 -891.7850 -841.5608 29388.0746 3.2528 3.1933
TCL: Running 100000 steps at 180 kelvin.
TCL: Setting parameter langevinTemp to 180
TCL: Running for 100000 steps
ETITLE: TS BOND ANGLE DIHED IMPRP ELECT VDW BOUNDARY MISC KINETIC TOTAL TEMP POTENTIAL TOTAL3 TEMPAVG PRESSURE GPRESSURE VOLUME PRESSAVG GPRESSAVG
ENERGY: 500000 0.5277 1.3229 0.0000 0.0000 -13407.3028 2167.9609 0.0000 0.0000 875.9356 -10361.5556 150.2099 -11237.4913 -10359.8885 150.2099 -886.6720 -841.7215 29388.0746 -886.6720 -841.7215
ENERGY: 600000 0.1954 1.3170 0.0000 0.0000 -13188.4976 2195.4882 0.0000 0.0000 1046.3585 -9945.1385 179.4348 -10991.4970 -9942.0223 179.4406 541.9589 561.1531 28753.2794 2.4190 2.3736
TCL: Running 100000 steps at 210 kelvin.
TCL: Setting parameter langevinTemp to 210
TCL: Running for 100000 steps
ETITLE: TS BOND ANGLE DIHED IMPRP ELECT VDW BOUNDARY MISC KINETIC TOTAL TEMP POTENTIAL TOTAL3 TEMPAVG PRESSURE GPRESSURE VOLUME PRESSAVG GPRESSAVG
ENERGY: 600000 0.1954 1.3170 0.0000 0.0000 -13188.4976 2195.4882 0.0000 0.0000 1045.8562 -9945.6408 179.3487 -10991.4970 -9943.8678 179.3487 505.8903 561.2071 28753.2794 505.8903 561.2071
ENERGY: 700000 0.1734 1.4148 0.0000 0.0000 -12363.8882 1879.5695 0.0000 0.0000 1245.5163 -9237.2142 213.5874 -10482.7305 -9234.0872 209.9995 16.5180 117.4932 28629.8597 4.0711 4.0049
TCL: Running 100000 steps at 240 kelvin.
TCL: Setting parameter langevinTemp to 240
TCL: Running for 100000 steps
ETITLE: TS BOND ANGLE DIHED IMPRP ELECT VDW BOUNDARY MISC KINETIC TOTAL TEMP POTENTIAL TOTAL3 TEMPAVG PRESSURE GPRESSURE VOLUME PRESSAVG GPRESSAVG
ENERGY: 700000 0.1734 1.4148 0.0000 0.0000 -12363.8882 1879.5695 0.0000 0.0000 1244.8996 -9237.8309 213.4817 -10482.7305 -9235.6865 213.4817 34.8354 118.4156 28629.8597 34.8354 118.4156
ENERGY: 800000 0.1902 1.3841 0.0000 0.0000 -11777.5619 1758.7543 0.0000 0.0000 1379.9675 -8637.2658 236.6438 -10017.2333 -8634.6961 240.5470 548.3743 645.6785 28762.7268 2.4020 2.3372
TCL: Running 100000 steps at 270 kelvin.
TCL: Setting parameter langevinTemp to 270
TCL: Running for 100000 steps
ETITLE: TS BOND ANGLE DIHED IMPRP ELECT VDW BOUNDARY MISC KINETIC TOTAL TEMP POTENTIAL TOTAL3 TEMPAVG PRESSURE GPRESSURE VOLUME PRESSAVG GPRESSAVG
ENERGY: 800000 0.1902 1.3841 0.0000 0.0000 -11777.5619 1758.7543 0.0000 0.0000 1379.2451 -8637.9882 236.5199 -10017.2333 -8635.7709 236.5199 564.4260 645.1634 28762.7268 564.4260 645.1634
ENERGY: 900000 0.7548 1.6806 0.0000 0.0000 -11063.7954 1440.9015 0.0000 0.0000 1574.2760 -8046.1825 269.9648 -9620.4585 -8042.3484 269.5403 -849.7279 -714.1025 29429.2922 4.2630 4.3242
TCL: Running 1000000 steps at 300 kelvin.
TCL: Setting parameter langevinTemp to 300
TCL: Running for 1000000 steps
ETITLE: TS BOND ANGLE DIHED IMPRP ELECT VDW BOUNDARY MISC KINETIC TOTAL TEMP POTENTIAL TOTAL3 TEMPAVG PRESSURE GPRESSURE VOLUME PRESSAVG GPRESSAVG
ENERGY: 900000 0.7548 1.6806 0.0000 0.0000 -11063.7954 1440.9015 0.0000 0.0000 1573.4824 -8046.9761 269.8287 -9620.4585 -8044.9976 269.8287 -786.3670 -712.4342 29429.2922 -786.3670 -712.4342
ENERGY: 1100000 1.1885 0.7730 0.0000 0.0000 -10681.3764 1446.2750 0.0000 0.0000 1712.6979 -7520.4421 293.7021 -9233.1400 -7518.6431 299.8117 42.1603 96.1145 30254.1940 4.1368 4.3140
ENERGY: 1300000 0.0709 2.6990 0.0000 0.0000 -10693.4885 1431.3515 0.0000 0.0000 1789.7062 -7469.6609 306.9079 -9259.3671 -7466.5429 299.4213 -182.8350 -10.7676 30221.1857 3.6453 3.5413
ENERGY: 1500000 0.5035 3.5451 0.0000 0.0000 -10818.3795 1443.4568 0.0000 0.0000 1807.4580 -7563.4161 309.9520 -9370.8742 -7559.9681 299.7493 -511.0437 -422.0932 30522.9585 2.3217 2.4755
ENERGY: 1700000 0.3096 2.4065 0.0000 0.0000 -10653.4066 1448.3609 0.0000 0.0000 1786.4630 -7415.8666 306.3517 -9202.3295 -7412.7117 300.2432 120.6275 187.2040 30658.3608 3.0440 3.0246
ENERGY: 1900000 0.5480 1.2424 0.0000 0.0000 -10652.0874 1396.4083 0.0000 0.0000 1721.4051 -7532.4835 295.1953 -9253.8887 -7528.3107 300.2955 -247.0374 -213.2745 30266.1659 2.9284 3.0211
TCL: Exiting due to exit command.
