Info: SIMULATION PARAMETERS:
Info: TIMESTEP               2
Info: NUMBER OF STEPS        0
Info: STEPS PER CYCLE        10
Info: PERIODIC CELL BASIS 1  36.592 0 0
Info: PERIODIC CELL BASIS 2  0 34.696 0
Info: PERIODIC CELL BASIS 3  0 0 34.954
Info: PERIODIC CELL CENTER   0 0 0
Info: WRAPPING WATERS AROUND PERIODIC BOUNDARIES ON OUTPUT.
Info: WRAPPING ALL CLUSTERS AROUND PERIODIC BOUNDARIES ON OUTPUT.
Info: FIRST LDB TIMESTEP     50
Info: LAST LDB TIMESTEP     -1
Info: HOM BACKGROUND SCALING 1
Info: PME BACKGROUND SCALING 1
Info: MIN ATOMS PER PATCH    40
Info: EMPTY PATCH LOAD       40 ATOMS
Info: INITIAL TEMPERATURE    300
Info: CENTER OF MASS MOVING INITIALLY? NO
Info: DIELECTRIC             1
Info: EXCLUDE                SCALED ONE-FOUR
Info: 1-4 ELECTROSTATICS SCALED BY 0.833333
Info: MODIFIED 1-4 VDW PARAMETERS WILL BE USED
Info: DCD FILENAME           mobley_8311303_equil.dcd
Info: DCD FREQUENCY          100000
Info: DCD FIRST STEP         100000
Info: DCD FILE WILL CONTAIN UNIT CELL DATA
Info: XST FILENAME           mobley_8311303_equil.xst
Info: XST FREQUENCY          100000
Info: NO VELOCITY DCD OUTPUT
Info: NO FORCE DCD OUTPUT
Info: OUTPUT FILENAME        mobley_8311303_equil
Info: BINARY OUTPUT FILES WILL BE USED
Info: RESTART FILENAME       mobley_8311303_equil.restart
Info: RESTART FREQUENCY      100000
Info: BINARY RESTART FILES WILL BE USED
Info: CUTOFF                 9
Info: PAIRLIST DISTANCE      11
Info: PAIRLIST SHRINK RATE   0.01
Info: PAIRLIST GROW RATE     0.01
Info: PAIRLIST TRIGGER       0.3
Info: PAIRLISTS PER CYCLE    2
Info: PAIRLISTS ENABLED
Info: MARGIN                 8
Info: HYDROGEN GROUP CUTOFF  2.5
Info: PATCH DIMENSION        21.5
Info: ENERGY OUTPUT STEPS    100000
Info: ENERGY EVALUATION STEPS    100000
Info: OUTPUT ENERGY PRECISION 4
Info: CROSSTERM ENERGY INCLUDED IN DIHEDRAL
Info: TIMING OUTPUT STEPS    1000000
Info: PRESSURE OUTPUT STEPS  100000
Info: LANGEVIN DYNAMICS ACTIVE
Info: LANGEVIN TEMPERATURE   30
Info: LANGEVIN USING BBK INTEGRATOR
Info: LANGEVIN DAMPING COEFFICIENT IS 1 INVERSE PS
Info: LANGEVIN DYNAMICS APPLIED TO HYDROGENS
Info: LANGEVIN PISTON PRESSURE CONTROL ACTIVE
Info:        TARGET PRESSURE IS 1.01325 BAR
Info:     OSCILLATION PERIOD IS 50 FS
Info:             DECAY TIME IS 25 FS
Info:     PISTON TEMPERATURE IS 300 K
Info:       PRESSURE CONTROL IS GROUP-BASED
Info:    INITIAL STRAIN RATE IS 0 0 0
Info:       CELL FLUCTUATION IS ISOTROPIC
Info: PARTICLE MESH EWALD (PME) ACTIVE
Info: PME TOLERANCE               1e-06
Info: PME EWALD COEFFICIENT       0.348832
Info: PME INTERPOLATION ORDER     4
Info: PME GRID DIMENSIONS         40 36 36
Info: PME MAXIMUM GRID SPACING    1
Info: FULL ELECTROSTATIC EVALUATION FREQUENCY      2
Info: USING VERLET I (r-RESPA) MTS SCHEME.
Info: C1 SPLITTING OF LONG RANGE ELECTROSTATICS
Info: PLACING ATOMS IN PATCHES BY HYDROGEN GROUPS
Info: RIGID BONDS TO HYDROGEN : ALL
Info:         ERROR TOLERANCE : 1e-08
Info:          MAX ITERATIONS : 100
Info: RIGID WATER USING SETTLE ALGORITHM
Info: RANDOM NUMBER SEED     1743235548
Info: USE HYDROGEN BONDS?    NO
Info: Using AMBER format force field!
Info: AMBER PARM FILE        mobley_8311303.prmtop
Info: COORDINATE PDB         mobley_8311303.pdb
Info: Exclusions will be read from PARM file!
Info: SCNB (VDW SCALING)     2
Info: USING ARITHMETIC MEAN TO COMBINE L-J SIGMA PARAMETERS
Info: BINARY COORDINATES     mobley_8311303_min.coor
Info: SUMMARY OF PARAMETERS:
Info: 7 BONDS
Info: 8 ANGLES
Info:   8 HARMONIC
Info:   0 COSINE-BASED
Info: 3 DIHEDRAL
Info: 0 IMPROPER
Info: 0 CROSSTERM
Info: 0 VDW
Info: 15 VDW_PAIRS
Info: 0 NBTHOLE_PAIRS
Info: STRUCTURE SUMMARY:
Info: 2938 ATOMS
Info: 2939 BONDS
Info: 36 ANGLES
Info: 64 DIHEDRALS
Info: 0 IMPROPERS
Info: 0 CROSSTERMS
Info: 3021 EXCLUSIONS
Info: 2920 RIGID BONDS
Info: 5894 DEGREES OF FREEDOM
Info: 990 HYDROGEN GROUPS
Info: 3 ATOMS IN LARGEST HYDROGEN GROUP
Info: 990 MIGRATION GROUPS
Info: 3 ATOMS IN LARGEST MIGRATION GROUP
Info: TOTAL MASS = 17872.4 amu
Info: TOTAL CHARGE = 0.000100008 e
Info: MASS DENSITY = 0.668775 g/cm^3
Info: ATOM DENSITY = 0.0662048 atoms/A^3
Info: ADDED 0 IMPLICIT EXCLUSIONS
Info: NONBONDED TABLE R-SQUARED SPACING: 0.0625
Info: NONBONDED TABLE SIZE: 705 POINTS
Info: REMOVING COM VELOCITY -0.0359513 -0.106862 -0.142359
TCL: Running for 100000 steps
ETITLE: TS BOND ANGLE DIHED IMPRP ELECT VDW BOUNDARY MISC KINETIC TOTAL TEMP POTENTIAL TOTAL3 TEMPAVG PRESSURE GPRESSURE VOLUME PRESSAVG GPRESSAVG
ENERGY: 0 0.5328 0.3304 7.0057 0.0000 -13460.7148 2386.8990 0.0000 0.0000 1763.1037 -9302.8432 301.0635 -11065.9469 -9302.4954 301.0635 515.4661 546.1116 44377.4597 515.4661 546.1116
ENERGY: 100000 1.0346 0.8717 6.8146 0.0000 -14234.4136 2568.1847 0.0000 0.0000 176.9864 -11480.5216 30.2218 -11657.5080 -11479.9906 30.9652 932.7759 1003.1908 28587.7402 3.9215 3.9576
TCL: Running 100000 steps at 60 kelvin.
TCL: Setting parameter langevinTemp to 60
TCL: Running for 100000 steps
ETITLE: TS BOND ANGLE DIHED IMPRP ELECT VDW BOUNDARY MISC KINETIC TOTAL TEMP POTENTIAL TOTAL3 TEMPAVG PRESSURE GPRESSURE VOLUME PRESSAVG GPRESSAVG
ENERGY: 100000 1.0346 0.8717 6.8146 0.0000 -14234.4136 2568.1847 0.0000 0.0000 176.9012 -11480.6068 30.2072 -11657.5080 -11480.2098 30.2072 936.6682 1003.4168 28587.7402 936.6682 1003.4168
ENERGY: 200000 1.4223 1.4773 7.9740 0.0000 -13940.8422 2371.5478 0.0000 0.0000 355.6250 -11202.7959 60.7257 -11558.4209 -11201.5333 60.0421 -438.9242 -395.5269 28755.3959 4.5643 4.6311
TCL: Running 100000 steps at 90 kelvin.
TCL: Setting parameter langevinTemp to 90
TCL: Running for 100000 steps
ETITLE: TS BOND ANGLE DIHED IMPRP ELECT VDW BOUNDARY MISC KINETIC TOTAL TEMP POTENTIAL TOTAL3 TEMPAVG PRESSURE GPRESSURE VOLUME PRESSAVG GPRESSAVG
ENERGY: 200000 1.4223 1.4773 7.9740 0.0000 -13940.8422 2371.5478 0.0000 0.0000 355.4518 -11202.9690 60.6961 -11558.4209 -11202.0457 60.6961 -447.1036 -395.7029 28755.3959 -447.1036 -395.7029
ENERGY: 300000 4.1111 1.6182 7.8423 0.0000 -13712.8820 2238.5729 0.0000 0.0000 532.4329 -10928.3047 90.9170 -11460.7376 -10927.0040 90.0786 -1114.1193 -1054.9753 28825.3427 4.2200 4.3087
TCL: Running 100000 steps at 120 kelvin.
TCL: Setting parameter langevinTemp to 120
TCL: Running for 100000 steps
ETITLE: TS BOND ANGLE DIHED IMPRP ELECT VDW BOUNDARY MISC KINETIC TOTAL TEMP POTENTIAL TOTAL3 TEMPAVG PRESSURE GPRESSURE VOLUME PRESSAVG GPRESSAVG
ENERGY: 300000 4.1111 1.6182 7.8423 0.0000 -13712.8820 2238.5729 0.0000 0.0000 532.1626 -10928.5750 90.8709 -11460.7376 -10927.4515 90.8709 -1120.0890 -1055.1650 28825.3427 -1120.0890 -1055.1650
ENERGY: 400000 3.6903 3.1676 8.1399 0.0000 -13686.3171 2299.2347 0.0000 0.0000 699.2309 -10672.8537 119.3990 -11372.0846 -10671.1894 119.7522 -163.0215 -71.9622 28747.2323 4.0498 4.0305
TCL: Running 100000 steps at 150 kelvin.
TCL: Setting parameter langevinTemp to 150
TCL: Running for 100000 steps
ETITLE: TS BOND ANGLE DIHED IMPRP ELECT VDW BOUNDARY MISC KINETIC TOTAL TEMP POTENTIAL TOTAL3 TEMPAVG PRESSURE GPRESSURE VOLUME PRESSAVG GPRESSAVG
ENERGY: 400000 3.6903 3.1676 8.1399 0.0000 -13686.3171 2299.2347 0.0000 0.0000 698.8850 -10673.1996 119.3400 -11372.0846 -10671.6086 119.3400 -127.1957 -72.1480 28747.2323 -127.1957 -72.1480
ENERGY: 500000 4.4279 2.0757 7.6984 0.0000 -13427.7077 2191.4964 0.0000 0.0000 852.1758 -10369.8336 145.5156 -11222.0093 -10367.5534 150.2232 -560.4194 -491.5199 28822.5270 2.2938 2.3401
TCL: Running 100000 steps at 180 kelvin.
TCL: Setting parameter langevinTemp to 180
TCL: Running for 100000 steps
ETITLE: TS BOND ANGLE DIHED IMPRP ELECT VDW BOUNDARY MISC KINETIC TOTAL TEMP POTENTIAL TOTAL3 TEMPAVG PRESSURE GPRESSURE VOLUME PRESSAVG GPRESSAVG
ENERGY: 500000 4.4279 2.0757 7.6984 0.0000 -13427.7077 2191.4964 0.0000 0.0000 851.7177 -10370.2917 145.4373 -11222.0093 -10368.3772 145.4373 -553.0389 -492.1453 28822.5270 -553.0389 -492.1453
ENERGY: 600000 1.7856 5.3707 11.9780 0.0000 -13052.8297 2132.6169 0.0000 0.0000 1025.1815 -9875.8969 175.0576 -10901.0784 -9874.8424 180.3144 559.0823 595.2897 28478.7321 3.4841 3.6928
TCL: Running 100000 steps at 210 kelvin.
TCL: Setting parameter langevinTemp to 210
TCL: Running for 100000 steps
ETITLE: TS BOND ANGLE DIHED IMPRP ELECT VDW BOUNDARY MISC KINETIC TOTAL TEMP POTENTIAL TOTAL3 TEMPAVG PRESSURE GPRESSURE VOLUME PRESSAVG GPRESSAVG
ENERGY: 600000 1.7856 5.3707 11.9780 0.0000 -13052.8297 2132.6169 0.0000 0.0000 1024.6608 -9876.4176 174.9687 -10901.0784 -9874.5611 174.9687 563.5972 593.6850 28478.7321 563.5972 593.6850
ENERGY: 700000 5.1435 7.1668 12.8425 0.0000 -12432.7000 1959.3657 0.0000 0.0000 1209.3998 -9238.7817 206.5143 -10448.1815 -9236.0708 210.1719 593.9975 711.1669 29009.5062 3.3300 3.5831
TCL: Running 100000 steps at 240 kelvin.
TCL: Setting parameter langevinTemp to 240
TCL: Running for 100000 steps
ETITLE: TS BOND ANGLE DIHED IMPRP ELECT VDW BOUNDARY MISC KINETIC TOTAL TEMP POTENTIAL TOTAL3 TEMPAVG PRESSURE GPRESSURE VOLUME PRESSAVG GPRESSAVG
ENERGY: 700000 5.1435 7.1668 12.8425 0.0000 -12432.7000 1959.3657 0.0000 0.0000 1208.8091 -9239.3725 206.4134 -10448.1815 -9237.3252 206.4134 632.0775 711.3739 29009.5062 632.0775 711.3739
ENERGY: 800000 6.6370 6.2221 10.8659 0.0000 -11863.1925 1797.2562 0.0000 0.0000 1405.0607 -8637.1505 239.9249 -10042.2112 -8634.4030 239.5687 491.8563 549.2396 28993.9974 2.9686 2.8152
TCL: Running 100000 steps at 270 kelvin.
TCL: Setting parameter langevinTemp to 270
TCL: Running for 100000 steps
ETITLE: TS BOND ANGLE DIHED IMPRP ELECT VDW BOUNDARY MISC KINETIC TOTAL TEMP POTENTIAL TOTAL3 TEMPAVG PRESSURE GPRESSURE VOLUME PRESSAVG GPRESSAVG
ENERGY: 800000 6.6370 6.2221 10.8659 0.0000 -11863.1925 1797.2562 0.0000 0.0000 1404.3640 -8637.8472 239.8059 -10042.2112 -8636.1340 239.8059 482.4128 550.7600 28993.9974 482.4128 550.7600
ENERGY: 900000 7.8097 3.1954 8.8986 0.0000 -11230.2538 1628.7718 0.0000 0.0000 1595.8310 -7985.7474 272.5004 -9581.5783 -7980.9834 269.4562 696.8428 738.8653 29268.3054 4.2962 4.4281
TCL: Running 1000000 steps at 300 kelvin.
TCL: Setting parameter langevinTemp to 300
TCL: Running for 1000000 steps
ETITLE: TS BOND ANGLE DIHED IMPRP ELECT VDW BOUNDARY MISC KINETIC TOTAL TEMP POTENTIAL TOTAL3 TEMPAVG PRESSURE GPRESSURE VOLUME PRESSAVG GPRESSAVG
ENERGY: 900000 7.8097 3.1954 8.8986 0.0000 -11230.2538 1628.7718 0.0000 0.0000 1595.0311 -7986.5472 272.3638 -9581.5783 -7984.6006 272.3638 645.6970 739.9592 29268.3054 645.6970 739.9592
ENERGY: 1100000 6.1236 6.5833 12.2160 0.0000 -10586.9347 1423.4319 0.0000 0.0000 1772.7318 -7365.8481 302.7076 -9138.5800 -7359.8564 299.9297 -267.5383 -122.4684 31088.8459 3.3843 3.3856
ENERGY: 1300000 6.3577 6.3295 11.5799 0.0000 -10649.3710 1410.2336 0.0000 0.0000 1754.4829 -7460.3874 299.5914 -9214.8703 -7456.4083 300.7424 -169.7508 -146.1523 30450.2369 2.8463 2.7557
ENERGY: 1500000 4.2269 5.4887 14.1026 0.0000 -10525.9737 1427.6516 0.0000 0.0000 1782.9010 -7291.6029 304.4440 -9074.5039 -7286.9173 299.5618 287.3035 294.1624 30665.7000 3.6490 3.7666
ENERGY: 1700000 9.3617 4.6726 15.8218 0.0000 -10519.9615 1384.9768 0.0000 0.0000 1798.6639 -7306.4647 307.1357 -9105.1286 -7304.8010 300.4210 -245.4269 -125.8390 30668.6598 3.9981 4.0672
ENERGY: 1900000 9.1646 6.7451 13.5840 0.0000 -10437.4016 1335.0358 0.0000 0.0000 1726.1411 -7346.7310 294.7519 -9072.8721 -7344.3860 299.7133 -753.5943 -637.6029 30708.1694 4.4551 4.3776
TCL: Exiting due to exit command.
