Info: SIMULATION PARAMETERS:
Info: TIMESTEP               2
Info: NUMBER OF STEPS        0
Info: STEPS PER CYCLE        10
Info: PERIODIC CELL BASIS 1  35.89 0 0
Info: PERIODIC CELL BASIS 2  0 35.267 0
Info: PERIODIC CELL BASIS 3  0 0 35.723
Info: PERIODIC CELL CENTER   0 0 0
Info: WRAPPING WATERS AROUND PERIODIC BOUNDARIES ON OUTPUT.
Info: WRAPPING ALL CLUSTERS AROUND PERIODIC BOUNDARIES ON OUTPUT.
Info: FIRST LDB TIMESTEP     50
Info: LAST LDB TIMESTEP     -1
Info: HOM BACKGROUND SCALING 1
Info: PME BACKGROUND SCALING 1
Info: MIN ATOMS PER PATCH    40
Info: EMPTY PATCH LOAD       40 ATOMS
Info: INITIAL TEMPERATURE    300
Info: CENTER OF MASS MOVING INITIALLY? NO
Info: DIELECTRIC             1
Info: EXCLUDE                SCALED ONE-FOUR
Info: 1-4 ELECTROSTATICS SCALED BY 0.833333
Info: MODIFIED 1-4 VDW PARAMETERS WILL BE USED
Info: DCD FILENAME           mobley_3034976_equil.dcd
Info: DCD FREQUENCY          100000
Info: DCD FIRST STEP         100000
Info: DCD FILE WILL CONTAIN UNIT CELL DATA
Info: XST FILENAME           mobley_3034976_equil.xst
Info: XST FREQUENCY          100000
Info: NO VELOCITY DCD OUTPUT
Info: NO FORCE DCD OUTPUT
Info: OUTPUT FILENAME        mobley_3034976_equil
Info: BINARY OUTPUT FILES WILL BE USED
Info: RESTART FILENAME       mobley_3034976_equil.restart
Info: RESTART FREQUENCY      100000
Info: BINARY RESTART FILES WILL BE USED
Info: CUTOFF                 9
Info: PAIRLIST DISTANCE      11
Info: PAIRLIST SHRINK RATE   0.01
Info: PAIRLIST GROW RATE     0.01
Info: PAIRLIST TRIGGER       0.3
Info: PAIRLISTS PER CYCLE    2
Info: PAIRLISTS ENABLED
Info: MARGIN                 8
Info: HYDROGEN GROUP CUTOFF  2.5
Info: PATCH DIMENSION        21.5
Info: ENERGY OUTPUT STEPS    100000
Info: ENERGY EVALUATION STEPS    100000
Info: OUTPUT ENERGY PRECISION 4
Info: CROSSTERM ENERGY INCLUDED IN DIHEDRAL
Info: TIMING OUTPUT STEPS    1000000
Info: PRESSURE OUTPUT STEPS  100000
Info: LANGEVIN DYNAMICS ACTIVE
Info: LANGEVIN TEMPERATURE   30
Info: LANGEVIN USING BBK INTEGRATOR
Info: LANGEVIN DAMPING COEFFICIENT IS 1 INVERSE PS
Info: LANGEVIN DYNAMICS APPLIED TO HYDROGENS
Info: LANGEVIN PISTON PRESSURE CONTROL ACTIVE
Info:        TARGET PRESSURE IS 1.01325 BAR
Info:     OSCILLATION PERIOD IS 50 FS
Info:             DECAY TIME IS 25 FS
Info:     PISTON TEMPERATURE IS 300 K
Info:       PRESSURE CONTROL IS GROUP-BASED
Info:    INITIAL STRAIN RATE IS 0 0 0
Info:       CELL FLUCTUATION IS ISOTROPIC
Info: PARTICLE MESH EWALD (PME) ACTIVE
Info: PME TOLERANCE               1e-06
Info: PME EWALD COEFFICIENT       0.348832
Info: PME INTERPOLATION ORDER     4
Info: PME GRID DIMENSIONS         36 36 36
Info: PME MAXIMUM GRID SPACING    1
Info: FULL ELECTROSTATIC EVALUATION FREQUENCY      2
Info: USING VERLET I (r-RESPA) MTS SCHEME.
Info: C1 SPLITTING OF LONG RANGE ELECTROSTATICS
Info: PLACING ATOMS IN PATCHES BY HYDROGEN GROUPS
Info: RIGID BONDS TO HYDROGEN : ALL
Info:         ERROR TOLERANCE : 1e-08
Info:          MAX ITERATIONS : 100
Info: RIGID WATER USING SETTLE ALGORITHM
Info: RANDOM NUMBER SEED     1743158126
Info: USE HYDROGEN BONDS?    NO
Info: Using AMBER format force field!
Info: AMBER PARM FILE        mobley_3034976.prmtop
Info: COORDINATE PDB         mobley_3034976.pdb
Info: Exclusions will be read from PARM file!
Info: SCNB (VDW SCALING)     2
Info: USING ARITHMETIC MEAN TO COMBINE L-J SIGMA PARAMETERS
Info: BINARY COORDINATES     mobley_3034976_min.coor
Info: SUMMARY OF PARAMETERS:
Info: 7 BONDS
Info: 6 ANGLES
Info: 7 DIHEDRAL
Info: 0 IMPROPER
Info: 0 CROSSTERM
Info: 0 VDW
Info: 28 VDW_PAIRS
Info: 0 NBTHOLE_PAIRS
Info: STRUCTURE SUMMARY:
Info: 2984 ATOMS
Info: 2983 BONDS
Info: 10 ANGLES
Info: 16 DIHEDRALS
Info: 0 IMPROPERS
Info: 0 CROSSTERMS
Info: 3001 EXCLUSIONS
Info: 2980 RIGID BONDS
Info: 5972 DEGREES OF FREEDOM
Info: 996 HYDROGEN GROUPS
Info: 4 ATOMS IN LARGEST HYDROGEN GROUP
Info: 996 MIGRATION GROUPS
Info: 4 ATOMS IN LARGEST MIGRATION GROUP
Info: TOTAL MASS = 17931.9 amu
Info: TOTAL CHARGE = -9.98899e-05 e
Info: MASS DENSITY = 0.658561 g/cm^3
Info: ATOM DENSITY = 0.0659947 atoms/A^3
Info: ADDED 0 IMPLICIT EXCLUSIONS
Info: NONBONDED TABLE R-SQUARED SPACING: 0.0625
Info: NONBONDED TABLE SIZE: 705 POINTS
Info: REMOVING COM VELOCITY -0.157281 0.186561 -0.053998
TCL: Running for 100000 steps
ETITLE: TS BOND ANGLE DIHED IMPRP ELECT VDW BOUNDARY MISC KINETIC TOTAL TEMP POTENTIAL TOTAL3 TEMPAVG PRESSURE GPRESSURE VOLUME PRESSAVG GPRESSAVG
ENERGY: 0 0.0521 0.3165 2.4367 0.0000 -13928.6876 2470.3907 0.0000 0.0000 1754.1282 -9701.3635 295.6187 -11455.4917 -9701.0305 295.6187 657.6758 691.6593 45215.7667 657.6758 691.6593
ENERGY: 100000 0.0438 1.1136 2.4926 0.0000 -14446.9018 2506.4329 0.0000 0.0000 180.7575 -11756.0615 30.4626 -11936.8190 -11755.6082 30.8153 -41.9231 29.1313 29476.8184 3.6882 3.6342
TCL: Running 100000 steps at 60 kelvin.
TCL: Setting parameter langevinTemp to 60
TCL: Running for 100000 steps
ETITLE: TS BOND ANGLE DIHED IMPRP ELECT VDW BOUNDARY MISC KINETIC TOTAL TEMP POTENTIAL TOTAL3 TEMPAVG PRESSURE GPRESSURE VOLUME PRESSAVG GPRESSAVG
ENERGY: 100000 0.0438 1.1136 2.4926 0.0000 -14446.9018 2506.4329 0.0000 0.0000 180.6647 -11756.1543 30.4470 -11936.8190 -11755.6951 30.4470 -28.6765 29.0669 29476.8184 -28.6765 29.0669
ENERGY: 200000 0.4391 0.6460 2.5068 0.0000 -14431.4466 2579.5326 0.0000 0.0000 364.2043 -11484.1179 61.3784 -11848.3222 -11483.2469 59.9792 978.1422 1050.3189 29334.9777 4.6404 4.6703
TCL: Running 100000 steps at 90 kelvin.
TCL: Setting parameter langevinTemp to 90
TCL: Running for 100000 steps
ETITLE: TS BOND ANGLE DIHED IMPRP ELECT VDW BOUNDARY MISC KINETIC TOTAL TEMP POTENTIAL TOTAL3 TEMPAVG PRESSURE GPRESSURE VOLUME PRESSAVG GPRESSAVG
ENERGY: 200000 0.4391 0.6460 2.5068 0.0000 -14431.4466 2579.5326 0.0000 0.0000 364.0306 -11484.2916 61.3491 -11848.3222 -11483.5070 61.3491 984.5185 1050.2069 29334.9777 984.5185 1050.2069
ENERGY: 300000 0.3241 1.4416 3.0568 0.0000 -14244.5299 2464.6184 0.0000 0.0000 536.1130 -11238.9759 90.3497 -11775.0889 -11237.6353 89.9644 225.8753 285.8723 29292.4781 3.3199 3.2515
TCL: Running 100000 steps at 120 kelvin.
TCL: Setting parameter langevinTemp to 120
TCL: Running for 100000 steps
ETITLE: TS BOND ANGLE DIHED IMPRP ELECT VDW BOUNDARY MISC KINETIC TOTAL TEMP POTENTIAL TOTAL3 TEMPAVG PRESSURE GPRESSURE VOLUME PRESSAVG GPRESSAVG
ENERGY: 300000 0.3241 1.4416 3.0568 0.0000 -14244.5299 2464.6184 0.0000 0.0000 535.8507 -11239.2381 90.3055 -11775.0889 -11238.2959 90.3055 231.6073 285.8869 29292.4781 231.6073 285.8869
ENERGY: 400000 0.7648 2.6459 2.9533 0.0000 -13914.5328 2266.4562 0.0000 0.0000 726.3824 -10915.3303 122.4153 -11641.7126 -10913.1604 120.0932 -653.4213 -654.6001 29194.0377 3.8092 3.7528
TCL: Running 100000 steps at 150 kelvin.
TCL: Setting parameter langevinTemp to 150
TCL: Running for 100000 steps
ETITLE: TS BOND ANGLE DIHED IMPRP ELECT VDW BOUNDARY MISC KINETIC TOTAL TEMP POTENTIAL TOTAL3 TEMPAVG PRESSURE GPRESSURE VOLUME PRESSAVG GPRESSAVG
ENERGY: 400000 0.7648 2.6459 2.9533 0.0000 -13914.5328 2266.4562 0.0000 0.0000 726.0295 -10915.6832 122.3559 -11641.7126 -10914.1777 122.3559 -698.7419 -654.5311 29194.0377 -698.7419 -654.5311
ENERGY: 500000 0.1959 2.0165 2.5579 0.0000 -13674.5903 2217.5740 0.0000 0.0000 898.7889 -10553.4571 151.4706 -11452.2460 -10551.9945 150.0929 -569.3115 -519.5614 29248.9604 3.3794 3.5198
TCL: Running 100000 steps at 180 kelvin.
TCL: Setting parameter langevinTemp to 180
TCL: Running for 100000 steps
ETITLE: TS BOND ANGLE DIHED IMPRP ELECT VDW BOUNDARY MISC KINETIC TOTAL TEMP POTENTIAL TOTAL3 TEMPAVG PRESSURE GPRESSURE VOLUME PRESSAVG GPRESSAVG
ENERGY: 500000 0.1959 2.0165 2.5579 0.0000 -13674.5903 2217.5740 0.0000 0.0000 898.3325 -10553.9136 151.3937 -11452.2460 -10551.8921 151.3937 -579.3573 -520.4666 29248.9604 -579.3573 -520.4666
ENERGY: 600000 0.1774 1.2743 2.9586 0.0000 -13273.1403 2115.1778 0.0000 0.0000 1054.4584 -10099.0938 177.7052 -11153.5522 -10096.2876 179.9937 -320.5903 -252.6214 29218.4926 1.9569 1.6756
TCL: Running 100000 steps at 210 kelvin.
TCL: Setting parameter langevinTemp to 210
TCL: Running for 100000 steps
ETITLE: TS BOND ANGLE DIHED IMPRP ELECT VDW BOUNDARY MISC KINETIC TOTAL TEMP POTENTIAL TOTAL3 TEMPAVG PRESSURE GPRESSURE VOLUME PRESSAVG GPRESSAVG
ENERGY: 600000 0.1774 1.2743 2.9586 0.0000 -13273.1403 2115.1778 0.0000 0.0000 1053.9174 -10099.6348 177.6140 -11153.5522 -10097.6712 177.6140 -304.3013 -251.6882 29218.4926 -304.3013 -251.6882
ENERGY: 700000 0.9558 3.0757 3.0034 0.0000 -12548.9253 1889.3287 0.0000 0.0000 1271.4352 -9381.1265 214.2717 -10652.5617 -9377.4995 209.9324 245.3469 326.8319 28614.4472 3.9876 3.7505
TCL: Running 100000 steps at 240 kelvin.
TCL: Setting parameter langevinTemp to 240
TCL: Running for 100000 steps
ETITLE: TS BOND ANGLE DIHED IMPRP ELECT VDW BOUNDARY MISC KINETIC TOTAL TEMP POTENTIAL TOTAL3 TEMPAVG PRESSURE GPRESSURE VOLUME PRESSAVG GPRESSAVG
ENERGY: 700000 0.9558 3.0757 3.0034 0.0000 -12548.9253 1889.3287 0.0000 0.0000 1270.8121 -9381.7496 214.1667 -10652.5617 -9379.6872 214.1667 238.2829 327.9844 28614.4472 238.2829 327.9844
ENERGY: 800000 1.5436 1.1145 2.5154 0.0000 -12028.6380 1729.3436 0.0000 0.0000 1427.8867 -8866.2341 240.6381 -10294.1209 -8863.9092 239.8194 -161.0177 -66.9768 29131.0618 4.1525 4.0870
TCL: Running 100000 steps at 270 kelvin.
TCL: Setting parameter langevinTemp to 270
TCL: Running for 100000 steps
ETITLE: TS BOND ANGLE DIHED IMPRP ELECT VDW BOUNDARY MISC KINETIC TOTAL TEMP POTENTIAL TOTAL3 TEMPAVG PRESSURE GPRESSURE VOLUME PRESSAVG GPRESSAVG
ENERGY: 800000 1.5436 1.1145 2.5154 0.0000 -12028.6380 1729.3436 0.0000 0.0000 1427.1645 -8866.9564 240.5164 -10294.1209 -8864.2012 240.5164 -168.7099 -68.0249 29131.0618 -168.7099 -68.0249
ENERGY: 900000 0.1288 1.0376 2.7524 0.0000 -11344.4707 1537.5751 0.0000 0.0000 1643.6391 -8159.3377 276.9983 -9802.9768 -8155.9392 270.4814 -594.3136 -520.0824 30270.9577 4.2630 4.1833
TCL: Running 1000000 steps at 300 kelvin.
TCL: Setting parameter langevinTemp to 300
TCL: Running for 1000000 steps
ETITLE: TS BOND ANGLE DIHED IMPRP ELECT VDW BOUNDARY MISC KINETIC TOTAL TEMP POTENTIAL TOTAL3 TEMPAVG PRESSURE GPRESSURE VOLUME PRESSAVG GPRESSAVG
ENERGY: 900000 0.1288 1.0376 2.7524 0.0000 -11344.4707 1537.5751 0.0000 0.0000 1642.8337 -8160.1431 276.8625 -9802.9768 -8157.9164 276.8625 -605.2128 -523.2597 30270.9577 -605.2128 -523.2597
ENERGY: 1100000 0.5926 1.7050 3.1832 0.0000 -10756.9144 1390.3286 0.0000 0.0000 1817.5626 -7543.5423 306.3091 -9361.1049 -7538.9145 300.5095 -367.3632 -318.5710 31081.4054 3.0970 3.1841
ENERGY: 1300000 0.9771 2.8609 2.9493 0.0000 -10853.2001 1480.3066 0.0000 0.0000 1746.5095 -7619.5966 294.3348 -9366.1062 -7617.2151 299.8350 471.5275 574.6915 30528.3091 4.4469 4.4613
ENERGY: 1500000 0.0987 0.8752 2.3937 0.0000 -10836.1022 1426.2659 0.0000 0.0000 1767.8723 -7638.5964 297.9350 -9406.4687 -7632.6405 299.7614 -291.4961 -145.2098 30838.9105 3.5878 3.6458
ENERGY: 1700000 0.6274 4.3519 4.2235 0.0000 -10845.6993 1435.3161 0.0000 0.0000 1789.7903 -7611.3901 301.6288 -9401.1805 -7610.2809 299.5381 -154.4732 -37.8647 30657.5634 3.1293 3.1567
ENERGY: 1900000 0.2419 4.4125 2.9046 0.0000 -10876.7447 1455.6304 0.0000 0.0000 1741.9793 -7671.5761 293.5713 -9413.5554 -7666.9165 299.6686 14.5257 88.8408 30877.2771 4.6139 4.5655
TCL: Exiting due to exit command.
