Info: SIMULATION PARAMETERS:
Info: TIMESTEP               2
Info: NUMBER OF STEPS        0
Info: STEPS PER CYCLE        10
Info: PERIODIC CELL BASIS 1  34.207 0 0
Info: PERIODIC CELL BASIS 2  0 34.26 0
Info: PERIODIC CELL BASIS 3  0 0 36.697
Info: PERIODIC CELL CENTER   0 0 0
Info: WRAPPING WATERS AROUND PERIODIC BOUNDARIES ON OUTPUT.
Info: WRAPPING ALL CLUSTERS AROUND PERIODIC BOUNDARIES ON OUTPUT.
Info: FIRST LDB TIMESTEP     50
Info: LAST LDB TIMESTEP     -1
Info: HOM BACKGROUND SCALING 1
Info: PME BACKGROUND SCALING 1
Info: MIN ATOMS PER PATCH    40
Info: EMPTY PATCH LOAD       40 ATOMS
Info: INITIAL TEMPERATURE    300
Info: CENTER OF MASS MOVING INITIALLY? NO
Info: DIELECTRIC             1
Info: EXCLUDE                SCALED ONE-FOUR
Info: 1-4 ELECTROSTATICS SCALED BY 0.833333
Info: MODIFIED 1-4 VDW PARAMETERS WILL BE USED
Info: DCD FILENAME           mobley_3325209_equil.dcd
Info: DCD FREQUENCY          100000
Info: DCD FIRST STEP         100000
Info: DCD FILE WILL CONTAIN UNIT CELL DATA
Info: XST FILENAME           mobley_3325209_equil.xst
Info: XST FREQUENCY          100000
Info: NO VELOCITY DCD OUTPUT
Info: NO FORCE DCD OUTPUT
Info: OUTPUT FILENAME        mobley_3325209_equil
Info: BINARY OUTPUT FILES WILL BE USED
Info: RESTART FILENAME       mobley_3325209_equil.restart
Info: RESTART FREQUENCY      100000
Info: BINARY RESTART FILES WILL BE USED
Info: CUTOFF                 9
Info: PAIRLIST DISTANCE      11
Info: PAIRLIST SHRINK RATE   0.01
Info: PAIRLIST GROW RATE     0.01
Info: PAIRLIST TRIGGER       0.3
Info: PAIRLISTS PER CYCLE    2
Info: PAIRLISTS ENABLED
Info: MARGIN                 8
Info: HYDROGEN GROUP CUTOFF  2.5
Info: PATCH DIMENSION        21.5
Info: ENERGY OUTPUT STEPS    100000
Info: ENERGY EVALUATION STEPS    100000
Info: OUTPUT ENERGY PRECISION 4
Info: CROSSTERM ENERGY INCLUDED IN DIHEDRAL
Info: TIMING OUTPUT STEPS    1000000
Info: PRESSURE OUTPUT STEPS  100000
Info: LANGEVIN DYNAMICS ACTIVE
Info: LANGEVIN TEMPERATURE   30
Info: LANGEVIN USING BBK INTEGRATOR
Info: LANGEVIN DAMPING COEFFICIENT IS 1 INVERSE PS
Info: LANGEVIN DYNAMICS APPLIED TO HYDROGENS
Info: LANGEVIN PISTON PRESSURE CONTROL ACTIVE
Info:        TARGET PRESSURE IS 1.01325 BAR
Info:     OSCILLATION PERIOD IS 50 FS
Info:             DECAY TIME IS 25 FS
Info:     PISTON TEMPERATURE IS 300 K
Info:       PRESSURE CONTROL IS GROUP-BASED
Info:    INITIAL STRAIN RATE IS 0 0 0
Info:       CELL FLUCTUATION IS ISOTROPIC
Info: PARTICLE MESH EWALD (PME) ACTIVE
Info: PME TOLERANCE               1e-06
Info: PME EWALD COEFFICIENT       0.348832
Info: PME INTERPOLATION ORDER     4
Info: PME GRID DIMENSIONS         36 36 40
Info: PME MAXIMUM GRID SPACING    1
Info: FULL ELECTROSTATIC EVALUATION FREQUENCY      2
Info: USING VERLET I (r-RESPA) MTS SCHEME.
Info: C1 SPLITTING OF LONG RANGE ELECTROSTATICS
Info: PLACING ATOMS IN PATCHES BY HYDROGEN GROUPS
Info: RIGID BONDS TO HYDROGEN : ALL
Info:         ERROR TOLERANCE : 1e-08
Info:          MAX ITERATIONS : 100
Info: RIGID WATER USING SETTLE ALGORITHM
Info: RANDOM NUMBER SEED     1743256920
Info: USE HYDROGEN BONDS?    NO
Info: Using AMBER format force field!
Info: AMBER PARM FILE        mobley_3325209.prmtop
Info: COORDINATE PDB         mobley_3325209.pdb
Info: Exclusions will be read from PARM file!
Info: SCNB (VDW SCALING)     2
Info: USING ARITHMETIC MEAN TO COMBINE L-J SIGMA PARAMETERS
Info: BINARY COORDINATES     mobley_3325209_min.coor
Info: SUMMARY OF PARAMETERS:
Info: 7 BONDS
Info: 8 ANGLES
Info: 7 DIHEDRAL
Info: 0 IMPROPER
Info: 0 CROSSTERM
Info: 0 VDW
Info: 28 VDW_PAIRS
Info: 0 NBTHOLE_PAIRS
Info: STRUCTURE SUMMARY:
Info: 2925 ATOMS
Info: 2925 BONDS
Info: 45 ANGLES
Info: 66 DIHEDRALS
Info: 0 IMPROPERS
Info: 0 CROSSTERMS
Info: 3015 EXCLUSIONS
Info: 2912 RIGID BONDS
Info: 5863 DEGREES OF FREEDOM
Info: 979 HYDROGEN GROUPS
Info: 4 ATOMS IN LARGEST HYDROGEN GROUP
Info: 979 MIGRATION GROUPS
Info: 4 ATOMS IN LARGEST MIGRATION GROUP
Info: TOTAL MASS = 17585.7 amu
Info: TOTAL CHARGE = -0.000800032 e
Info: MASS DENSITY = 0.679024 g/cm^3
Info: ATOM DENSITY = 0.0680132 atoms/A^3
Info: ADDED 0 IMPLICIT EXCLUSIONS
Info: NONBONDED TABLE R-SQUARED SPACING: 0.0625
Info: NONBONDED TABLE SIZE: 705 POINTS
Info: REMOVING COM VELOCITY -0.0762914 0.0511571 -0.0457785
TCL: Running for 100000 steps
ETITLE: TS BOND ANGLE DIHED IMPRP ELECT VDW BOUNDARY MISC KINETIC TOTAL TEMP POTENTIAL TOTAL3 TEMPAVG PRESSURE GPRESSURE VOLUME PRESSAVG GPRESSAVG
ENERGY: 0 0.7150 1.9503 12.5798 0.0000 -13445.1670 2390.8698 0.0000 0.0000 1746.9443 -9292.1078 299.8814 -11039.0521 -9291.7748 299.8814 658.1984 691.6987 43006.3820 658.1984 691.6987
ENERGY: 100000 1.0562 3.4997 12.6347 0.0000 -14171.9526 2574.4004 0.0000 0.0000 167.1421 -11413.2195 28.6917 -11580.3616 -11412.8407 30.9728 1231.5492 1321.2393 28634.3350 3.4827 3.5329
TCL: Running 100000 steps at 60 kelvin.
TCL: Setting parameter langevinTemp to 60
TCL: Running for 100000 steps
ETITLE: TS BOND ANGLE DIHED IMPRP ELECT VDW BOUNDARY MISC KINETIC TOTAL TEMP POTENTIAL TOTAL3 TEMPAVG PRESSURE GPRESSURE VOLUME PRESSAVG GPRESSAVG
ENERGY: 100000 1.0562 3.4997 12.6347 0.0000 -14171.9526 2574.4004 0.0000 0.0000 167.0538 -11413.3079 28.6765 -11580.3616 -11412.9841 28.6765 1255.6725 1321.3895 28634.3350 1255.6725 1321.3895
ENERGY: 200000 3.0604 3.4852 13.5234 0.0000 -13874.8560 2347.4857 0.0000 0.0000 345.4619 -11161.8394 59.3022 -11507.3013 -11160.6289 59.9282 -439.9995 -379.9981 28891.6436 4.8680 4.9721
TCL: Running 100000 steps at 90 kelvin.
TCL: Setting parameter langevinTemp to 90
TCL: Running for 100000 steps
ETITLE: TS BOND ANGLE DIHED IMPRP ELECT VDW BOUNDARY MISC KINETIC TOTAL TEMP POTENTIAL TOTAL3 TEMPAVG PRESSURE GPRESSURE VOLUME PRESSAVG GPRESSAVG
ENERGY: 200000 3.0604 3.4852 13.5234 0.0000 -13874.8560 2347.4857 0.0000 0.0000 345.2900 -11162.0113 59.2727 -11507.3013 -11161.1027 59.2727 -443.5937 -380.0352 28891.6436 -443.5937 -380.0352
ENERGY: 300000 1.5457 3.8344 13.7429 0.0000 -13872.9962 2416.7979 0.0000 0.0000 523.1865 -10913.8890 89.8105 -11437.0754 -10912.1338 90.1124 540.5079 562.5924 28610.3722 4.1613 4.0948
TCL: Running 100000 steps at 120 kelvin.
TCL: Setting parameter langevinTemp to 120
TCL: Running for 100000 steps
ETITLE: TS BOND ANGLE DIHED IMPRP ELECT VDW BOUNDARY MISC KINETIC TOTAL TEMP POTENTIAL TOTAL3 TEMPAVG PRESSURE GPRESSURE VOLUME PRESSAVG GPRESSAVG
ENERGY: 300000 1.5457 3.8344 13.7429 0.0000 -13872.9962 2416.7979 0.0000 0.0000 522.9347 -10914.1407 89.7673 -11437.0754 -10913.0844 89.7673 501.6887 563.4926 28610.3722 501.6887 563.4926
ENERGY: 400000 2.4746 4.0931 15.6301 0.0000 -13781.3876 2455.0458 0.0000 0.0000 686.5463 -10617.5977 117.8529 -11304.1440 -10616.0782 119.9591 1363.0193 1414.8544 28361.3108 4.4746 4.5530
TCL: Running 100000 steps at 150 kelvin.
TCL: Setting parameter langevinTemp to 150
TCL: Running for 100000 steps
ETITLE: TS BOND ANGLE DIHED IMPRP ELECT VDW BOUNDARY MISC KINETIC TOTAL TEMP POTENTIAL TOTAL3 TEMPAVG PRESSURE GPRESSURE VOLUME PRESSAVG GPRESSAVG
ENERGY: 400000 2.4746 4.0931 15.6301 0.0000 -13781.3876 2455.0458 0.0000 0.0000 686.2064 -10617.9376 117.7946 -11304.1440 -10616.3854 117.7946 1359.4706 1414.1507 28361.3108 1359.4706 1414.1507
ENERGY: 500000 3.0424 4.1286 14.1496 0.0000 -13438.3331 2269.1933 0.0000 0.0000 870.6798 -10277.1394 149.4614 -11147.8192 -10273.9893 150.2149 454.9582 576.3616 28510.2401 2.9745 3.0434
TCL: Running 100000 steps at 180 kelvin.
TCL: Setting parameter langevinTemp to 180
TCL: Running for 100000 steps
ETITLE: TS BOND ANGLE DIHED IMPRP ELECT VDW BOUNDARY MISC KINETIC TOTAL TEMP POTENTIAL TOTAL3 TEMPAVG PRESSURE GPRESSURE VOLUME PRESSAVG GPRESSAVG
ENERGY: 500000 3.0424 4.1286 14.1496 0.0000 -13438.3331 2269.1933 0.0000 0.0000 870.2357 -10277.5835 149.3851 -11147.8192 -10275.8448 149.3851 520.8943 576.7302 28510.2401 520.8943 576.7302
ENERGY: 600000 3.7115 7.7659 13.9308 0.0000 -12935.1738 2088.5193 0.0000 0.0000 1020.2054 -9801.0409 175.1290 -10821.2462 -9798.3515 179.8732 -94.2671 -49.0799 28767.3515 3.4935 3.5764
TCL: Running 100000 steps at 210 kelvin.
TCL: Setting parameter langevinTemp to 210
TCL: Running for 100000 steps
ETITLE: TS BOND ANGLE DIHED IMPRP ELECT VDW BOUNDARY MISC KINETIC TOTAL TEMP POTENTIAL TOTAL3 TEMPAVG PRESSURE GPRESSURE VOLUME PRESSAVG GPRESSAVG
ENERGY: 600000 3.7115 7.7659 13.9308 0.0000 -12935.1738 2088.5193 0.0000 0.0000 1019.7099 -9801.5363 175.0440 -10821.2462 -9799.6420 175.0440 -114.1993 -48.7500 28767.3515 -114.1993 -48.7500
ENERGY: 700000 5.0017 7.9184 13.9729 0.0000 -12346.9829 1913.0704 0.0000 0.0000 1205.7127 -9201.3068 206.9733 -10407.0195 -9198.8303 209.9959 134.7235 278.4228 28724.3838 4.2063 4.2324
TCL: Running 100000 steps at 240 kelvin.
TCL: Setting parameter langevinTemp to 240
TCL: Running for 100000 steps
ETITLE: TS BOND ANGLE DIHED IMPRP ELECT VDW BOUNDARY MISC KINETIC TOTAL TEMP POTENTIAL TOTAL3 TEMPAVG PRESSURE GPRESSURE VOLUME PRESSAVG GPRESSAVG
ENERGY: 700000 5.0017 7.9184 13.9729 0.0000 -12346.9829 1913.0704 0.0000 0.0000 1205.1181 -9201.9013 206.8712 -10407.0195 -9199.5914 206.8712 207.7539 278.7031 28724.3838 207.7539 278.7031
ENERGY: 800000 5.6098 10.2676 16.3875 0.0000 -11578.3922 1607.6908 0.0000 0.0000 1385.6689 -8552.7675 237.8647 -9938.4364 -8549.1995 239.8877 -938.5980 -852.1133 29073.1624 3.5929 3.4365
TCL: Running 100000 steps at 270 kelvin.
TCL: Setting parameter langevinTemp to 270
TCL: Running for 100000 steps
ETITLE: TS BOND ANGLE DIHED IMPRP ELECT VDW BOUNDARY MISC KINETIC TOTAL TEMP POTENTIAL TOTAL3 TEMPAVG PRESSURE GPRESSURE VOLUME PRESSAVG GPRESSAVG
ENERGY: 800000 5.6098 10.2676 16.3875 0.0000 -11578.3922 1607.6908 0.0000 0.0000 1384.9528 -8553.4836 237.7418 -9938.4364 -8550.7376 237.7418 -934.4160 -851.5156 29073.1624 -934.4160 -851.5156
ENERGY: 900000 6.3454 10.8485 15.6552 0.0000 -11018.9974 1499.9244 0.0000 0.0000 1578.6295 -7907.5943 270.9884 -9486.2238 -7904.1440 269.9248 -435.2890 -439.2013 29594.2915 2.4148 2.5085
TCL: Running 1000000 steps at 300 kelvin.
TCL: Setting parameter langevinTemp to 300
TCL: Running for 1000000 steps
ETITLE: TS BOND ANGLE DIHED IMPRP ELECT VDW BOUNDARY MISC KINETIC TOTAL TEMP POTENTIAL TOTAL3 TEMPAVG PRESSURE GPRESSURE VOLUME PRESSAVG GPRESSAVG
ENERGY: 900000 6.3454 10.8485 15.6552 0.0000 -11018.9974 1499.9244 0.0000 0.0000 1577.8696 -7908.3542 270.8580 -9486.2238 -7905.7139 270.8580 -529.6550 -439.4406 29594.2915 -529.6550 -439.4406
ENERGY: 1100000 4.1113 8.1310 18.8082 0.0000 -10572.1946 1358.6983 0.0000 0.0000 1735.2177 -7447.2281 297.8684 -9182.4458 -7441.6650 300.6459 -566.1285 -517.1947 29935.9636 3.7223 3.6804
ENERGY: 1300000 5.6938 8.8617 15.5039 0.0000 -10608.8025 1402.0271 0.0000 0.0000 1732.5997 -7444.1162 297.4190 -9176.7160 -7440.5375 301.0875 -284.9998 -189.7964 30198.6362 2.6128 2.4948
ENERGY: 1500000 2.6900 13.3355 14.8791 0.0000 -10715.2406 1533.3089 0.0000 0.0000 1726.3426 -7424.6846 296.3449 -9151.0272 -7421.3190 300.0093 1016.8362 1099.0403 29752.2430 3.2954 3.2472
ENERGY: 1700000 2.9766 16.3563 15.9724 0.0000 -10531.8216 1392.0241 0.0000 0.0000 1693.2311 -7411.2612 290.6610 -9104.4922 -7408.5910 300.1049 -174.6998 -83.3993 30216.1077 3.2407 3.4194
ENERGY: 1900000 1.9635 11.0529 15.9896 0.0000 -10598.5625 1429.6142 0.0000 0.0000 1694.5624 -7445.3798 290.8895 -9139.9422 -7441.5858 299.9575 367.8508 386.1083 29697.5266 2.7131 2.5916
TCL: Exiting due to exit command.
