Info: SIMULATION PARAMETERS:
Info: TIMESTEP               2
Info: NUMBER OF STEPS        0
Info: STEPS PER CYCLE        10
Info: PERIODIC CELL BASIS 1  36.281 0 0
Info: PERIODIC CELL BASIS 2  0 33.404 0
Info: PERIODIC CELL BASIS 3  0 0 36.488
Info: PERIODIC CELL CENTER   0 0 0
Info: WRAPPING WATERS AROUND PERIODIC BOUNDARIES ON OUTPUT.
Info: WRAPPING ALL CLUSTERS AROUND PERIODIC BOUNDARIES ON OUTPUT.
Info: FIRST LDB TIMESTEP     50
Info: LAST LDB TIMESTEP     -1
Info: HOM BACKGROUND SCALING 1
Info: PME BACKGROUND SCALING 1
Info: MIN ATOMS PER PATCH    40
Info: EMPTY PATCH LOAD       40 ATOMS
Info: INITIAL TEMPERATURE    300
Info: CENTER OF MASS MOVING INITIALLY? NO
Info: DIELECTRIC             1
Info: EXCLUDE                SCALED ONE-FOUR
Info: 1-4 ELECTROSTATICS SCALED BY 0.833333
Info: MODIFIED 1-4 VDW PARAMETERS WILL BE USED
Info: DCD FILENAME           mobley_8883511_equil.dcd
Info: DCD FREQUENCY          100000
Info: DCD FIRST STEP         100000
Info: DCD FILE WILL CONTAIN UNIT CELL DATA
Info: XST FILENAME           mobley_8883511_equil.xst
Info: XST FREQUENCY          100000
Info: NO VELOCITY DCD OUTPUT
Info: NO FORCE DCD OUTPUT
Info: OUTPUT FILENAME        mobley_8883511_equil
Info: BINARY OUTPUT FILES WILL BE USED
Info: RESTART FILENAME       mobley_8883511_equil.restart
Info: RESTART FREQUENCY      100000
Info: BINARY RESTART FILES WILL BE USED
Info: CUTOFF                 9
Info: PAIRLIST DISTANCE      11
Info: PAIRLIST SHRINK RATE   0.01
Info: PAIRLIST GROW RATE     0.01
Info: PAIRLIST TRIGGER       0.3
Info: PAIRLISTS PER CYCLE    2
Info: PAIRLISTS ENABLED
Info: MARGIN                 8
Info: HYDROGEN GROUP CUTOFF  2.5
Info: PATCH DIMENSION        21.5
Info: ENERGY OUTPUT STEPS    100000
Info: ENERGY EVALUATION STEPS    100000
Info: OUTPUT ENERGY PRECISION 4
Info: CROSSTERM ENERGY INCLUDED IN DIHEDRAL
Info: TIMING OUTPUT STEPS    1000000
Info: PRESSURE OUTPUT STEPS  100000
Info: LANGEVIN DYNAMICS ACTIVE
Info: LANGEVIN TEMPERATURE   30
Info: LANGEVIN USING BBK INTEGRATOR
Info: LANGEVIN DAMPING COEFFICIENT IS 1 INVERSE PS
Info: LANGEVIN DYNAMICS APPLIED TO HYDROGENS
Info: LANGEVIN PISTON PRESSURE CONTROL ACTIVE
Info:        TARGET PRESSURE IS 1.01325 BAR
Info:     OSCILLATION PERIOD IS 50 FS
Info:             DECAY TIME IS 25 FS
Info:     PISTON TEMPERATURE IS 300 K
Info:       PRESSURE CONTROL IS GROUP-BASED
Info:    INITIAL STRAIN RATE IS 0 0 0
Info:       CELL FLUCTUATION IS ISOTROPIC
Info: PARTICLE MESH EWALD (PME) ACTIVE
Info: PME TOLERANCE               1e-06
Info: PME EWALD COEFFICIENT       0.348832
Info: PME INTERPOLATION ORDER     4
Info: PME GRID DIMENSIONS         40 36 40
Info: PME MAXIMUM GRID SPACING    1
Info: FULL ELECTROSTATIC EVALUATION FREQUENCY      2
Info: USING VERLET I (r-RESPA) MTS SCHEME.
Info: C1 SPLITTING OF LONG RANGE ELECTROSTATICS
Info: PLACING ATOMS IN PATCHES BY HYDROGEN GROUPS
Info: RIGID BONDS TO HYDROGEN : ALL
Info:         ERROR TOLERANCE : 1e-08
Info:          MAX ITERATIONS : 100
Info: RIGID WATER USING SETTLE ALGORITHM
Info: RANDOM NUMBER SEED     1743232010
Info: USE HYDROGEN BONDS?    NO
Info: Using AMBER format force field!
Info: AMBER PARM FILE        mobley_8883511.prmtop
Info: COORDINATE PDB         mobley_8883511.pdb
Info: Exclusions will be read from PARM file!
Info: SCNB (VDW SCALING)     2
Info: USING ARITHMETIC MEAN TO COMBINE L-J SIGMA PARAMETERS
Info: BINARY COORDINATES     mobley_8883511_min.coor
Info: SUMMARY OF PARAMETERS:
Info: 9 BONDS
Info: 9 ANGLES
Info:   9 HARMONIC
Info:   0 COSINE-BASED
Info: 5 DIHEDRAL
Info: 0 IMPROPER
Info: 0 CROSSTERM
Info: 0 VDW
Info: 36 VDW_PAIRS
Info: 0 NBTHOLE_PAIRS
Info: STRUCTURE SUMMARY:
Info: 2966 ATOMS
Info: 2966 BONDS
Info: 27 ANGLES
Info: 41 DIHEDRALS
Info: 0 IMPROPERS
Info: 0 CROSSTERMS
Info: 3024 EXCLUSIONS
Info: 2957 RIGID BONDS
Info: 5941 DEGREES OF FREEDOM
Info: 992 HYDROGEN GROUPS
Info: 4 ATOMS IN LARGEST HYDROGEN GROUP
Info: 992 MIGRATION GROUPS
Info: 4 ATOMS IN LARGEST MIGRATION GROUP
Info: TOTAL MASS = 17829.9 amu
Info: TOTAL CHARGE = 2.74449e-08 e
Info: MASS DENSITY = 0.669545 g/cm^3
Info: ATOM DENSITY = 0.0670723 atoms/A^3
Info: ADDED 0 IMPLICIT EXCLUSIONS
Info: NONBONDED TABLE R-SQUARED SPACING: 0.0625
Info: NONBONDED TABLE SIZE: 705 POINTS
Info: REMOVING COM VELOCITY -0.15287 0.132788 0.0180846
TCL: Running for 100000 steps
ETITLE: TS BOND ANGLE DIHED IMPRP ELECT VDW BOUNDARY MISC KINETIC TOTAL TEMP POTENTIAL TOTAL3 TEMPAVG PRESSURE GPRESSURE VOLUME PRESSAVG GPRESSAVG
ENERGY: 0 0.3965 0.3226 0.1943 0.0000 -13729.4249 2401.1813 0.0000 0.0000 1756.5931 -9570.7370 297.5788 -11327.3301 -9570.4156 297.5788 387.6232 420.6905 44220.9210 387.6232 420.6905
ENERGY: 100000 1.1442 0.6383 0.2499 0.0000 -14230.5585 2530.1146 0.0000 0.0000 177.3141 -11521.0975 30.0382 -11698.4116 -11520.5750 30.8716 497.4635 538.7322 30030.5023 3.4827 3.5543
TCL: Running 100000 steps at 60 kelvin.
TCL: Setting parameter langevinTemp to 60
TCL: Running for 100000 steps
ETITLE: TS BOND ANGLE DIHED IMPRP ELECT VDW BOUNDARY MISC KINETIC TOTAL TEMP POTENTIAL TOTAL3 TEMPAVG PRESSURE GPRESSURE VOLUME PRESSAVG GPRESSAVG
ENERGY: 100000 1.1442 0.6383 0.2499 0.0000 -14230.5585 2530.1146 0.0000 0.0000 177.2236 -11521.1880 30.0229 -11698.4116 -11520.8483 30.0229 478.8004 538.8002 30030.5023 478.8004 538.8002
ENERGY: 200000 1.3137 1.4318 0.6455 0.0000 -14046.8499 2395.0721 0.0000 0.0000 346.8198 -11301.5670 58.7536 -11648.3868 -11300.5640 60.0159 -167.2568 -106.6059 29656.3873 3.8523 3.8163
TCL: Running 100000 steps at 90 kelvin.
TCL: Setting parameter langevinTemp to 90
TCL: Running for 100000 steps
ETITLE: TS BOND ANGLE DIHED IMPRP ELECT VDW BOUNDARY MISC KINETIC TOTAL TEMP POTENTIAL TOTAL3 TEMPAVG PRESSURE GPRESSURE VOLUME PRESSAVG GPRESSAVG
ENERGY: 200000 1.3137 1.4318 0.6455 0.0000 -14046.8499 2395.0721 0.0000 0.0000 346.6515 -11301.7353 58.7251 -11648.3868 -11300.9971 58.7251 -164.6922 -106.3733 29656.3873 -164.6922 -106.3733
ENERGY: 300000 1.1312 1.4391 1.1942 0.0000 -14121.2572 2506.4974 0.0000 0.0000 532.9540 -11078.0413 90.2860 -11610.9953 -11077.3769 89.9230 804.7326 882.5053 29225.8368 3.9284 3.9005
TCL: Running 100000 steps at 120 kelvin.
TCL: Setting parameter langevinTemp to 120
TCL: Running for 100000 steps
ETITLE: TS BOND ANGLE DIHED IMPRP ELECT VDW BOUNDARY MISC KINETIC TOTAL TEMP POTENTIAL TOTAL3 TEMPAVG PRESSURE GPRESSURE VOLUME PRESSAVG GPRESSAVG
ENERGY: 300000 1.1312 1.4391 1.1942 0.0000 -14121.2572 2506.4974 0.0000 0.0000 532.6970 -11078.2983 90.2425 -11610.9953 -11077.3533 90.2425 812.0091 881.8703 29225.8368 812.0091 881.8703
ENERGY: 400000 1.7789 1.2050 1.5778 0.0000 -13735.1825 2260.8402 0.0000 0.0000 691.0255 -10778.7551 117.0644 -11469.7805 -10775.5984 120.1048 -612.5903 -560.5805 29406.9604 4.2916 4.2700
TCL: Running 100000 steps at 150 kelvin.
TCL: Setting parameter langevinTemp to 150
TCL: Running for 100000 steps
ETITLE: TS BOND ANGLE DIHED IMPRP ELECT VDW BOUNDARY MISC KINETIC TOTAL TEMP POTENTIAL TOTAL3 TEMPAVG PRESSURE GPRESSURE VOLUME PRESSAVG GPRESSAVG
ENERGY: 400000 1.7789 1.2050 1.5778 0.0000 -13735.1825 2260.8402 0.0000 0.0000 690.6704 -10779.1101 117.0043 -11469.7805 -10778.0816 117.0043 -627.2153 -558.9161 29406.9604 -627.2153 -558.9161
ENERGY: 500000 1.1839 4.2711 3.8974 0.0000 -13598.4335 2323.9383 0.0000 0.0000 879.4311 -10385.7118 148.9816 -11265.1429 -10383.1035 149.9179 506.8987 582.4069 29330.5306 3.3257 3.3475
TCL: Running 100000 steps at 180 kelvin.
TCL: Setting parameter langevinTemp to 180
TCL: Running for 100000 steps
ETITLE: TS BOND ANGLE DIHED IMPRP ELECT VDW BOUNDARY MISC KINETIC TOTAL TEMP POTENTIAL TOTAL3 TEMPAVG PRESSURE GPRESSURE VOLUME PRESSAVG GPRESSAVG
ENERGY: 500000 1.1839 4.2711 3.8974 0.0000 -13598.4335 2323.9383 0.0000 0.0000 878.9894 -10386.1535 148.9068 -11265.1429 -10384.9987 148.9068 530.2327 582.3878 29330.5306 530.2327 582.3878
ENERGY: 600000 1.5926 2.4174 0.8535 0.0000 -13030.0815 2039.4640 0.0000 0.0000 1059.5281 -9926.2259 179.4913 -10985.7540 -9922.6498 179.9720 -400.8274 -327.2393 28895.0876 4.1688 4.0561
TCL: Running 100000 steps at 210 kelvin.
TCL: Setting parameter langevinTemp to 210
TCL: Running for 100000 steps
ETITLE: TS BOND ANGLE DIHED IMPRP ELECT VDW BOUNDARY MISC KINETIC TOTAL TEMP POTENTIAL TOTAL3 TEMPAVG PRESSURE GPRESSURE VOLUME PRESSAVG GPRESSAVG
ENERGY: 600000 1.5926 2.4174 0.8535 0.0000 -13030.0815 2039.4640 0.0000 0.0000 1059.0005 -9926.7534 179.4019 -10985.7540 -9924.7942 179.4019 -387.1474 -325.7686 28895.0876 -387.1474 -325.7686
ENERGY: 700000 2.8425 3.9252 4.7751 0.0000 -12534.3243 1920.4620 0.0000 0.0000 1223.5246 -9378.7950 207.2734 -10602.3195 -9375.6566 209.7610 -92.9390 -26.7137 28848.1664 3.3410 3.3415
TCL: Running 100000 steps at 240 kelvin.
TCL: Setting parameter langevinTemp to 240
TCL: Running for 100000 steps
ETITLE: TS BOND ANGLE DIHED IMPRP ELECT VDW BOUNDARY MISC KINETIC TOTAL TEMP POTENTIAL TOTAL3 TEMPAVG PRESSURE GPRESSURE VOLUME PRESSAVG GPRESSAVG
ENERGY: 700000 2.8425 3.9252 4.7751 0.0000 -12534.3243 1920.4620 0.0000 0.0000 1222.9048 -9379.4147 207.1684 -10602.3195 -9377.4026 207.1684 -112.8178 -26.2079 28848.1664 -112.8178 -26.2079
ENERGY: 800000 3.1157 3.9799 3.6563 0.0000 -11764.6312 1691.8550 0.0000 0.0000 1434.3159 -8627.7083 242.9829 -10062.0242 -8626.2181 240.1158 -339.0358 -239.5398 29568.5447 3.5365 3.3371
TCL: Running 100000 steps at 270 kelvin.
TCL: Setting parameter langevinTemp to 270
TCL: Running for 100000 steps
ETITLE: TS BOND ANGLE DIHED IMPRP ELECT VDW BOUNDARY MISC KINETIC TOTAL TEMP POTENTIAL TOTAL3 TEMPAVG PRESSURE GPRESSURE VOLUME PRESSAVG GPRESSAVG
ENERGY: 800000 3.1157 3.9799 3.6563 0.0000 -11764.6312 1691.8550 0.0000 0.0000 1433.6317 -8628.3924 242.8670 -10062.0242 -8625.6883 242.8670 -325.2470 -239.4604 29568.5447 -325.2470 -239.4604
ENERGY: 900000 1.6505 7.1037 3.4251 0.0000 -11298.1950 1618.9230 0.0000 0.0000 1545.9400 -8121.1528 261.8927 -9667.0928 -8117.3285 270.5862 204.3329 289.0029 30258.5136 3.1317 3.1222
TCL: Running 1000000 steps at 300 kelvin.
TCL: Setting parameter langevinTemp to 300
TCL: Running for 1000000 steps
ETITLE: TS BOND ANGLE DIHED IMPRP ELECT VDW BOUNDARY MISC KINETIC TOTAL TEMP POTENTIAL TOTAL3 TEMPAVG PRESSURE GPRESSURE VOLUME PRESSAVG GPRESSAVG
ENERGY: 900000 1.6505 7.1037 3.4251 0.0000 -11298.1950 1618.9230 0.0000 0.0000 1545.1511 -8121.9417 261.7591 -9667.0928 -8119.6399 261.7591 220.3743 289.7815 30258.5136 220.3743 289.7815
ENERGY: 1100000 8.5840 3.9206 2.8689 0.0000 -10747.5658 1412.9681 0.0000 0.0000 1717.6682 -7601.5560 290.9847 -9319.2242 -7597.8788 300.4719 -683.2552 -628.5664 30890.5206 4.6214 4.4715
ENERGY: 1300000 4.5476 5.3091 1.5540 0.0000 -10583.9244 1327.2160 0.0000 0.0000 1771.6286 -7473.6690 300.1259 -9245.2976 -7468.7379 300.1711 -1081.1768 -964.5867 30780.9578 3.7795 3.8485
ENERGY: 1500000 1.6309 4.1205 3.0674 0.0000 -10886.2805 1520.9754 0.0000 0.0000 1774.7306 -7581.7556 300.6514 -9356.4862 -7578.6714 300.2505 264.6320 400.5008 30511.8313 2.7475 2.8695
ENERGY: 1700000 1.8386 6.8065 7.1923 0.0000 -10804.2449 1526.8927 0.0000 0.0000 1828.0343 -7433.4806 309.6814 -9261.5149 -7430.5050 300.6616 364.7655 415.7486 30986.3780 2.8701 2.8660
ENERGY: 1900000 1.9910 6.8511 2.5126 0.0000 -10781.5540 1460.5404 0.0000 0.0000 1762.6438 -7547.0151 298.6038 -9309.6589 -7543.6313 300.5301 355.9262 394.1085 30149.5353 3.2068 3.3067
TCL: Exiting due to exit command.
