Info: SIMULATION PARAMETERS:
Info: TIMESTEP               2
Info: NUMBER OF STEPS        0
Info: STEPS PER CYCLE        10
Info: PERIODIC CELL BASIS 1  34.986 0 0
Info: PERIODIC CELL BASIS 2  0 33.314 0
Info: PERIODIC CELL BASIS 3  0 0 37.451
Info: PERIODIC CELL CENTER   0 0 0
Info: WRAPPING WATERS AROUND PERIODIC BOUNDARIES ON OUTPUT.
Info: WRAPPING ALL CLUSTERS AROUND PERIODIC BOUNDARIES ON OUTPUT.
Info: FIRST LDB TIMESTEP     50
Info: LAST LDB TIMESTEP     -1
Info: HOM BACKGROUND SCALING 1
Info: PME BACKGROUND SCALING 1
Info: MIN ATOMS PER PATCH    40
Info: EMPTY PATCH LOAD       40 ATOMS
Info: INITIAL TEMPERATURE    300
Info: CENTER OF MASS MOVING INITIALLY? NO
Info: DIELECTRIC             1
Info: EXCLUDE                SCALED ONE-FOUR
Info: 1-4 ELECTROSTATICS SCALED BY 0.833333
Info: MODIFIED 1-4 VDW PARAMETERS WILL BE USED
Info: DCD FILENAME           mobley_5518547_equil.dcd
Info: DCD FREQUENCY          100000
Info: DCD FIRST STEP         100000
Info: DCD FILE WILL CONTAIN UNIT CELL DATA
Info: XST FILENAME           mobley_5518547_equil.xst
Info: XST FREQUENCY          100000
Info: NO VELOCITY DCD OUTPUT
Info: NO FORCE DCD OUTPUT
Info: OUTPUT FILENAME        mobley_5518547_equil
Info: BINARY OUTPUT FILES WILL BE USED
Info: RESTART FILENAME       mobley_5518547_equil.restart
Info: RESTART FREQUENCY      100000
Info: BINARY RESTART FILES WILL BE USED
Info: CUTOFF                 9
Info: PAIRLIST DISTANCE      11
Info: PAIRLIST SHRINK RATE   0.01
Info: PAIRLIST GROW RATE     0.01
Info: PAIRLIST TRIGGER       0.3
Info: PAIRLISTS PER CYCLE    2
Info: PAIRLISTS ENABLED
Info: MARGIN                 8
Info: HYDROGEN GROUP CUTOFF  2.5
Info: PATCH DIMENSION        21.5
Info: ENERGY OUTPUT STEPS    100000
Info: ENERGY EVALUATION STEPS    100000
Info: OUTPUT ENERGY PRECISION 4
Info: CROSSTERM ENERGY INCLUDED IN DIHEDRAL
Info: TIMING OUTPUT STEPS    1000000
Info: PRESSURE OUTPUT STEPS  100000
Info: LANGEVIN DYNAMICS ACTIVE
Info: LANGEVIN TEMPERATURE   30
Info: LANGEVIN USING BBK INTEGRATOR
Info: LANGEVIN DAMPING COEFFICIENT IS 1 INVERSE PS
Info: LANGEVIN DYNAMICS APPLIED TO HYDROGENS
Info: LANGEVIN PISTON PRESSURE CONTROL ACTIVE
Info:        TARGET PRESSURE IS 1.01325 BAR
Info:     OSCILLATION PERIOD IS 50 FS
Info:             DECAY TIME IS 25 FS
Info:     PISTON TEMPERATURE IS 300 K
Info:       PRESSURE CONTROL IS GROUP-BASED
Info:    INITIAL STRAIN RATE IS 0 0 0
Info:       CELL FLUCTUATION IS ISOTROPIC
Info: PARTICLE MESH EWALD (PME) ACTIVE
Info: PME TOLERANCE               1e-06
Info: PME EWALD COEFFICIENT       0.348832
Info: PME INTERPOLATION ORDER     4
Info: PME GRID DIMENSIONS         36 36 40
Info: PME MAXIMUM GRID SPACING    1
Info: FULL ELECTROSTATIC EVALUATION FREQUENCY      2
Info: USING VERLET I (r-RESPA) MTS SCHEME.
Info: C1 SPLITTING OF LONG RANGE ELECTROSTATICS
Info: PLACING ATOMS IN PATCHES BY HYDROGEN GROUPS
Info: RIGID BONDS TO HYDROGEN : ALL
Info:         ERROR TOLERANCE : 1e-08
Info:          MAX ITERATIONS : 100
Info: RIGID WATER USING SETTLE ALGORITHM
Info: RANDOM NUMBER SEED     1743213801
Info: USE HYDROGEN BONDS?    NO
Info: Using AMBER format force field!
Info: AMBER PARM FILE        mobley_5518547.prmtop
Info: COORDINATE PDB         mobley_5518547.pdb
Info: Exclusions will be read from PARM file!
Info: SCNB (VDW SCALING)     2
Info: USING ARITHMETIC MEAN TO COMBINE L-J SIGMA PARAMETERS
Info: BINARY COORDINATES     mobley_5518547_min.coor
Info: SUMMARY OF PARAMETERS:
Info: 8 BONDS
Info: 8 ANGLES
Info:   8 HARMONIC
Info:   0 COSINE-BASED
Info: 4 DIHEDRAL
Info: 0 IMPROPER
Info: 0 CROSSTERM
Info: 0 VDW
Info: 36 VDW_PAIRS
Info: 0 NBTHOLE_PAIRS
Info: STRUCTURE SUMMARY:
Info: 2924 ATOMS
Info: 2924 BONDS
Info: 27 ANGLES
Info: 41 DIHEDRALS
Info: 0 IMPROPERS
Info: 0 CROSSTERMS
Info: 2982 EXCLUSIONS
Info: 2916 RIGID BONDS
Info: 5856 DEGREES OF FREEDOM
Info: 977 HYDROGEN GROUPS
Info: 4 ATOMS IN LARGEST HYDROGEN GROUP
Info: 977 MIGRATION GROUPS
Info: 4 ATOMS IN LARGEST MIGRATION GROUP
Info: TOTAL MASS = 17564.7 amu
Info: TOTAL CHARGE = -0.00029999 e
Info: MASS DENSITY = 0.668212 g/cm^3
Info: ATOM DENSITY = 0.0669874 atoms/A^3
Info: ADDED 0 IMPLICIT EXCLUSIONS
Info: NONBONDED TABLE R-SQUARED SPACING: 0.0625
Info: NONBONDED TABLE SIZE: 705 POINTS
Info: REMOVING COM VELOCITY 0.194793 0.0134166 0.169546
TCL: Running for 100000 steps
ETITLE: TS BOND ANGLE DIHED IMPRP ELECT VDW BOUNDARY MISC KINETIC TOTAL TEMP POTENTIAL TOTAL3 TEMPAVG PRESSURE GPRESSURE VOLUME PRESSAVG GPRESSAVG
ENERGY: 0 0.1466 0.2735 1.1097 0.0000 -13483.6729 2363.3790 0.0000 0.0000 1696.2736 -9422.4905 291.5313 -11118.7640 -9422.1488 291.5313 417.5129 457.4188 43650.0245 417.5129 457.4188
ENERGY: 100000 0.7768 0.4544 1.4416 0.0000 -14112.2466 2434.3287 0.0000 0.0000 174.5411 -11500.7039 29.9976 -11675.2450 -11500.0293 30.9636 -400.1453 -340.9780 28335.8832 4.5626 4.5760
TCL: Running 100000 steps at 60 kelvin.
TCL: Setting parameter langevinTemp to 60
TCL: Running for 100000 steps
ETITLE: TS BOND ANGLE DIHED IMPRP ELECT VDW BOUNDARY MISC KINETIC TOTAL TEMP POTENTIAL TOTAL3 TEMPAVG PRESSURE GPRESSURE VOLUME PRESSAVG GPRESSAVG
ENERGY: 100000 0.7768 0.4544 1.4416 0.0000 -14112.2466 2434.3287 0.0000 0.0000 174.4538 -11500.7911 29.9826 -11675.2450 -11500.4001 29.9826 -395.6528 -341.0651 28335.8832 -395.6528 -341.0651
ENERGY: 200000 1.2256 1.0003 2.2167 0.0000 -13981.0979 2364.8046 0.0000 0.0000 338.4592 -11273.3914 58.1695 -11611.8506 -11272.9538 59.9659 -463.0208 -398.1812 28033.2231 4.7123 4.6977
TCL: Running 100000 steps at 90 kelvin.
TCL: Setting parameter langevinTemp to 90
TCL: Running for 100000 steps
ETITLE: TS BOND ANGLE DIHED IMPRP ELECT VDW BOUNDARY MISC KINETIC TOTAL TEMP POTENTIAL TOTAL3 TEMPAVG PRESSURE GPRESSURE VOLUME PRESSAVG GPRESSAVG
ENERGY: 200000 1.2256 1.0003 2.2167 0.0000 -13981.0979 2364.8046 0.0000 0.0000 338.2845 -11273.5661 58.1395 -11611.8506 -11272.8916 58.1395 -448.7997 -398.5442 28033.2231 -448.7997 -398.5442
ENERGY: 300000 0.4032 1.6569 1.1370 0.0000 -14038.3569 2505.7725 0.0000 0.0000 513.5106 -11015.8767 88.2549 -11529.3873 -11014.4373 90.0046 1300.8744 1381.0803 27653.7670 3.2681 3.3081
TCL: Running 100000 steps at 120 kelvin.
TCL: Setting parameter langevinTemp to 120
TCL: Running for 100000 steps
ETITLE: TS BOND ANGLE DIHED IMPRP ELECT VDW BOUNDARY MISC KINETIC TOTAL TEMP POTENTIAL TOTAL3 TEMPAVG PRESSURE GPRESSURE VOLUME PRESSAVG GPRESSAVG
ENERGY: 300000 0.4032 1.6569 1.1370 0.0000 -14038.3569 2505.7725 0.0000 0.0000 513.2450 -11016.1423 88.2092 -11529.3873 -11015.1122 88.2092 1326.2353 1381.4707 27653.7670 1326.2353 1381.4707
ENERGY: 400000 0.9972 1.9381 1.3683 0.0000 -13678.8630 2320.8476 0.0000 0.0000 714.3723 -10639.3394 122.7761 -11353.7117 -10637.2678 119.9984 49.9766 131.4091 28564.0436 3.9903 3.9496
TCL: Running 100000 steps at 150 kelvin.
TCL: Setting parameter langevinTemp to 150
TCL: Running for 100000 steps
ETITLE: TS BOND ANGLE DIHED IMPRP ELECT VDW BOUNDARY MISC KINETIC TOTAL TEMP POTENTIAL TOTAL3 TEMPAVG PRESSURE GPRESSURE VOLUME PRESSAVG GPRESSAVG
ENERGY: 400000 0.9972 1.9381 1.3683 0.0000 -13678.8630 2320.8476 0.0000 0.0000 714.0280 -10639.6837 122.7170 -11353.7117 -10638.3093 122.7170 70.3537 131.4968 28564.0436 70.3537 131.4968
ENERGY: 500000 1.2177 1.6380 2.7878 0.0000 -13556.4155 2366.3860 0.0000 0.0000 867.0131 -10317.3728 149.0099 -11184.3860 -10316.1696 149.9591 1288.6415 1324.2635 28273.4458 3.2531 3.2004
TCL: Running 100000 steps at 180 kelvin.
TCL: Setting parameter langevinTemp to 180
TCL: Running for 100000 steps
ETITLE: TS BOND ANGLE DIHED IMPRP ELECT VDW BOUNDARY MISC KINETIC TOTAL TEMP POTENTIAL TOTAL3 TEMPAVG PRESSURE GPRESSURE VOLUME PRESSAVG GPRESSAVG
ENERGY: 500000 1.2177 1.6380 2.7878 0.0000 -13556.4155 2366.3860 0.0000 0.0000 866.5801 -10317.8058 148.9354 -11184.3860 -10316.0981 148.9354 1286.3560 1323.4423 28273.4458 1286.3560 1323.4423
ENERGY: 600000 0.4413 2.4547 2.7182 0.0000 -12891.6326 1989.5738 0.0000 0.0000 1031.0571 -9865.3876 177.2034 -10896.4447 -9862.5917 179.7029 -945.3001 -874.7605 28965.6706 4.2716 4.3737
TCL: Running 100000 steps at 210 kelvin.
TCL: Setting parameter langevinTemp to 210
TCL: Running for 100000 steps
ETITLE: TS BOND ANGLE DIHED IMPRP ELECT VDW BOUNDARY MISC KINETIC TOTAL TEMP POTENTIAL TOTAL3 TEMPAVG PRESSURE GPRESSURE VOLUME PRESSAVG GPRESSAVG
ENERGY: 600000 0.4413 2.4547 2.7182 0.0000 -12891.6326 1989.5738 0.0000 0.0000 1030.5385 -9865.9061 177.1143 -10896.4447 -9863.7643 177.1143 -931.8565 -874.8249 28965.6706 -931.8565 -874.8249
ENERGY: 700000 3.1302 5.2040 3.2443 0.0000 -12251.7499 1820.9536 0.0000 0.0000 1252.5104 -9166.7075 215.2636 -10419.2179 -9162.5763 210.2959 -504.4666 -418.7124 29019.4370 3.0269 2.8300
TCL: Running 100000 steps at 240 kelvin.
TCL: Setting parameter langevinTemp to 240
TCL: Running for 100000 steps
ETITLE: TS BOND ANGLE DIHED IMPRP ELECT VDW BOUNDARY MISC KINETIC TOTAL TEMP POTENTIAL TOTAL3 TEMPAVG PRESSURE GPRESSURE VOLUME PRESSAVG GPRESSAVG
ENERGY: 700000 3.1302 5.2040 3.2443 0.0000 -12251.7499 1820.9536 0.0000 0.0000 1251.9052 -9167.3127 215.1596 -10419.2179 -9165.0899 215.1596 -481.6792 -418.6824 29019.4370 -481.6792 -418.6824
ENERGY: 800000 3.3476 6.6214 3.2026 0.0000 -11747.1236 1766.4861 0.0000 0.0000 1430.7072 -8536.7587 245.8895 -9967.4658 -8534.3419 240.1131 714.4003 698.1085 28696.6084 3.0581 2.9730
TCL: Running 100000 steps at 270 kelvin.
TCL: Setting parameter langevinTemp to 270
TCL: Running for 100000 steps
ETITLE: TS BOND ANGLE DIHED IMPRP ELECT VDW BOUNDARY MISC KINETIC TOTAL TEMP POTENTIAL TOTAL3 TEMPAVG PRESSURE GPRESSURE VOLUME PRESSAVG GPRESSAVG
ENERGY: 800000 3.3476 6.6214 3.2026 0.0000 -11747.1236 1766.4861 0.0000 0.0000 1430.0209 -8537.4450 245.7716 -9967.4658 -8535.1139 245.7716 629.4305 697.0315 28696.6084 629.4305 697.0315
ENERGY: 900000 1.7779 3.5879 1.6666 0.0000 -11121.3573 1544.9255 0.0000 0.0000 1604.1781 -7965.2213 275.7033 -9569.3993 -7961.9758 269.6031 344.4728 374.9790 28535.5748 3.5034 3.3977
TCL: Running 1000000 steps at 300 kelvin.
TCL: Setting parameter langevinTemp to 300
TCL: Running for 1000000 steps
ETITLE: TS BOND ANGLE DIHED IMPRP ELECT VDW BOUNDARY MISC KINETIC TOTAL TEMP POTENTIAL TOTAL3 TEMPAVG PRESSURE GPRESSURE VOLUME PRESSAVG GPRESSAVG
ENERGY: 900000 1.7779 3.5879 1.6666 0.0000 -11121.3573 1544.9255 0.0000 0.0000 1603.3778 -7966.0216 275.5657 -9569.3993 -7963.0412 275.5657 279.3093 374.5124 28535.5748 279.3093 374.5124
ENERGY: 1100000 1.8236 6.7931 2.7810 0.0000 -10805.5223 1543.4549 0.0000 0.0000 1770.8622 -7479.8075 304.3505 -9250.6697 -7476.8074 300.9267 744.1817 824.6204 29821.3293 3.0488 3.0664
ENERGY: 1300000 2.6893 6.5216 4.3736 0.0000 -10487.2022 1358.1224 0.0000 0.0000 1765.2047 -7350.2906 303.3782 -9115.4953 -7348.0311 300.7501 -517.9791 -359.0769 30374.3908 3.9244 3.9951
ENERGY: 1500000 5.3594 7.2173 2.1797 0.0000 -10546.7061 1391.4198 0.0000 0.0000 1760.7473 -7379.7826 302.6121 -9140.5299 -7377.5030 300.2622 -766.5061 -703.3454 31191.0963 3.1019 3.0586
ENERGY: 1700000 2.0572 6.9907 2.9134 0.0000 -10608.5891 1384.2690 0.0000 0.0000 1767.3090 -7445.0499 303.7399 -9212.3589 -7442.9989 300.2325 -562.2117 -470.1988 30300.3239 2.3032 2.1955
ENERGY: 1900000 0.6821 9.1890 3.8736 0.0000 -10636.3035 1419.6949 0.0000 0.0000 1825.0439 -7377.8200 313.6625 -9202.8639 -7373.2593 300.5344 211.0702 270.7087 29679.0623 3.9869 4.1587
TCL: Exiting due to exit command.
