Info: SIMULATION PARAMETERS:
Info: TIMESTEP               2
Info: NUMBER OF STEPS        0
Info: STEPS PER CYCLE        10
Info: PERIODIC CELL BASIS 1  36.592 0 0
Info: PERIODIC CELL BASIS 2  0 34.26 0
Info: PERIODIC CELL BASIS 3  0 0 35.723
Info: PERIODIC CELL CENTER   0 0 0
Info: WRAPPING WATERS AROUND PERIODIC BOUNDARIES ON OUTPUT.
Info: WRAPPING ALL CLUSTERS AROUND PERIODIC BOUNDARIES ON OUTPUT.
Info: FIRST LDB TIMESTEP     50
Info: LAST LDB TIMESTEP     -1
Info: HOM BACKGROUND SCALING 1
Info: PME BACKGROUND SCALING 1
Info: MIN ATOMS PER PATCH    40
Info: EMPTY PATCH LOAD       40 ATOMS
Info: INITIAL TEMPERATURE    300
Info: CENTER OF MASS MOVING INITIALLY? NO
Info: DIELECTRIC             1
Info: EXCLUDE                SCALED ONE-FOUR
Info: 1-4 ELECTROSTATICS SCALED BY 0.833333
Info: MODIFIED 1-4 VDW PARAMETERS WILL BE USED
Info: DCD FILENAME           mobley_7988076_equil.dcd
Info: DCD FREQUENCY          100000
Info: DCD FIRST STEP         100000
Info: DCD FILE WILL CONTAIN UNIT CELL DATA
Info: XST FILENAME           mobley_7988076_equil.xst
Info: XST FREQUENCY          100000
Info: NO VELOCITY DCD OUTPUT
Info: NO FORCE DCD OUTPUT
Info: OUTPUT FILENAME        mobley_7988076_equil
Info: BINARY OUTPUT FILES WILL BE USED
Info: RESTART FILENAME       mobley_7988076_equil.restart
Info: RESTART FREQUENCY      100000
Info: BINARY RESTART FILES WILL BE USED
Info: CUTOFF                 9
Info: PAIRLIST DISTANCE      11
Info: PAIRLIST SHRINK RATE   0.01
Info: PAIRLIST GROW RATE     0.01
Info: PAIRLIST TRIGGER       0.3
Info: PAIRLISTS PER CYCLE    2
Info: PAIRLISTS ENABLED
Info: MARGIN                 8
Info: HYDROGEN GROUP CUTOFF  2.5
Info: PATCH DIMENSION        21.5
Info: ENERGY OUTPUT STEPS    100000
Info: ENERGY EVALUATION STEPS    100000
Info: OUTPUT ENERGY PRECISION 4
Info: CROSSTERM ENERGY INCLUDED IN DIHEDRAL
Info: TIMING OUTPUT STEPS    1000000
Info: PRESSURE OUTPUT STEPS  100000
Info: LANGEVIN DYNAMICS ACTIVE
Info: LANGEVIN TEMPERATURE   30
Info: LANGEVIN USING BBK INTEGRATOR
Info: LANGEVIN DAMPING COEFFICIENT IS 1 INVERSE PS
Info: LANGEVIN DYNAMICS APPLIED TO HYDROGENS
Info: LANGEVIN PISTON PRESSURE CONTROL ACTIVE
Info:        TARGET PRESSURE IS 1.01325 BAR
Info:     OSCILLATION PERIOD IS 50 FS
Info:             DECAY TIME IS 25 FS
Info:     PISTON TEMPERATURE IS 300 K
Info:       PRESSURE CONTROL IS GROUP-BASED
Info:    INITIAL STRAIN RATE IS 0 0 0
Info:       CELL FLUCTUATION IS ISOTROPIC
Info: PARTICLE MESH EWALD (PME) ACTIVE
Info: PME TOLERANCE               1e-06
Info: PME EWALD COEFFICIENT       0.348832
Info: PME INTERPOLATION ORDER     4
Info: PME GRID DIMENSIONS         40 36 36
Info: PME MAXIMUM GRID SPACING    1
Info: FULL ELECTROSTATIC EVALUATION FREQUENCY      2
Info: USING VERLET I (r-RESPA) MTS SCHEME.
Info: C1 SPLITTING OF LONG RANGE ELECTROSTATICS
Info: PLACING ATOMS IN PATCHES BY HYDROGEN GROUPS
Info: RIGID BONDS TO HYDROGEN : ALL
Info:         ERROR TOLERANCE : 1e-08
Info:          MAX ITERATIONS : 100
Info: RIGID WATER USING SETTLE ALGORITHM
Info: RANDOM NUMBER SEED     1743228978
Info: USE HYDROGEN BONDS?    NO
Info: Using AMBER format force field!
Info: AMBER PARM FILE        mobley_7988076.prmtop
Info: COORDINATE PDB         mobley_7988076.pdb
Info: Exclusions will be read from PARM file!
Info: SCNB (VDW SCALING)     2
Info: USING ARITHMETIC MEAN TO COMBINE L-J SIGMA PARAMETERS
Info: BINARY COORDINATES     mobley_7988076_min.coor
Info: SUMMARY OF PARAMETERS:
Info: 9 BONDS
Info: 8 ANGLES
Info:   8 HARMONIC
Info:   0 COSINE-BASED
Info: 5 DIHEDRAL
Info: 0 IMPROPER
Info: 0 CROSSTERM
Info: 0 VDW
Info: 28 VDW_PAIRS
Info: 0 NBTHOLE_PAIRS
Info: STRUCTURE SUMMARY:
Info: 2952 ATOMS
Info: 2952 BONDS
Info: 22 ANGLES
Info: 37 DIHEDRALS
Info: 0 IMPROPERS
Info: 0 CROSSTERMS
Info: 3001 EXCLUSIONS
Info: 2943 RIGID BONDS
Info: 5913 DEGREES OF FREEDOM
Info: 988 HYDROGEN GROUPS
Info: 3 ATOMS IN LARGEST HYDROGEN GROUP
Info: 988 MIGRATION GROUPS
Info: 3 ATOMS IN LARGEST MIGRATION GROUP
Info: TOTAL MASS = 17759.8 amu
Info: TOTAL CHARGE = -2.18861e-08 e
Info: MASS DENSITY = 0.65853 g/cm^3
Info: ATOM DENSITY = 0.0659166 atoms/A^3
Info: ADDED 0 IMPLICIT EXCLUSIONS
Info: NONBONDED TABLE R-SQUARED SPACING: 0.0625
Info: NONBONDED TABLE SIZE: 705 POINTS
Info: REMOVING COM VELOCITY 0.235663 0.0243319 -0.0327195
TCL: Running for 100000 steps
ETITLE: TS BOND ANGLE DIHED IMPRP ELECT VDW BOUNDARY MISC KINETIC TOTAL TEMP POTENTIAL TOTAL3 TEMPAVG PRESSURE GPRESSURE VOLUME PRESSAVG GPRESSAVG
ENERGY: 0 0.2188 0.0955 0.1388 0.0000 -13608.7757 2402.2877 0.0000 0.0000 1754.1286 -9451.9063 298.5685 -11206.0349 -9451.5702 298.5685 546.2480 586.0082 44783.8503 546.2480 586.0082
ENERGY: 100000 0.3109 0.9123 1.6948 0.0000 -14256.2489 2455.9338 0.0000 0.0000 171.3803 -11626.0168 29.1705 -11797.3971 -11625.5625 30.9346 12.8522 70.3353 28129.3605 4.0410 4.0839
TCL: Running 100000 steps at 60 kelvin.
TCL: Setting parameter langevinTemp to 60
TCL: Running for 100000 steps
ETITLE: TS BOND ANGLE DIHED IMPRP ELECT VDW BOUNDARY MISC KINETIC TOTAL TEMP POTENTIAL TOTAL3 TEMPAVG PRESSURE GPRESSURE VOLUME PRESSAVG GPRESSAVG
ENERGY: 100000 0.3109 0.9123 1.6948 0.0000 -14256.2489 2455.9338 0.0000 0.0000 171.2915 -11626.1056 29.1554 -11797.3971 -11625.6951 29.1554 -1.0414 70.4254 28129.3605 -1.0414 70.4254
ENERGY: 200000 0.6776 0.3090 1.0320 0.0000 -14136.9066 2405.0038 0.0000 0.0000 364.5219 -11365.3622 62.0449 -11729.8842 -11364.2032 59.9247 -181.5511 -94.3242 28194.4060 3.0416 3.0817
TCL: Running 100000 steps at 90 kelvin.
TCL: Setting parameter langevinTemp to 90
TCL: Running for 100000 steps
ETITLE: TS BOND ANGLE DIHED IMPRP ELECT VDW BOUNDARY MISC KINETIC TOTAL TEMP POTENTIAL TOTAL3 TEMPAVG PRESSURE GPRESSURE VOLUME PRESSAVG GPRESSAVG
ENERGY: 200000 0.6776 0.3090 1.0320 0.0000 -14136.9066 2405.0038 0.0000 0.0000 364.3491 -11365.5351 62.0155 -11729.8842 -11364.7109 62.0155 -164.1336 -94.1484 28194.4060 -164.1336 -94.1484
ENERGY: 300000 0.6049 0.6350 1.4744 0.0000 -13967.0703 2376.8776 0.0000 0.0000 521.7425 -11065.7360 88.8053 -11587.4785 -11063.6839 90.0694 175.3412 244.1040 28011.2081 2.7704 2.7858
TCL: Running 100000 steps at 120 kelvin.
TCL: Setting parameter langevinTemp to 120
TCL: Running for 100000 steps
ETITLE: TS BOND ANGLE DIHED IMPRP ELECT VDW BOUNDARY MISC KINETIC TOTAL TEMP POTENTIAL TOTAL3 TEMPAVG PRESSURE GPRESSURE VOLUME PRESSAVG GPRESSAVG
ENERGY: 300000 0.6049 0.6350 1.4744 0.0000 -13967.0703 2376.8776 0.0000 0.0000 521.4837 -11065.9947 88.7612 -11587.4785 -11064.8750 88.7612 186.3072 244.7038 28011.2081 186.3072 244.7038
ENERGY: 400000 0.3527 1.6451 1.7943 0.0000 -13834.8017 2349.9209 0.0000 0.0000 721.0317 -10760.0569 122.7261 -11481.0886 -10757.5986 119.9197 290.4817 346.7108 28357.8445 3.7326 3.7807
TCL: Running 100000 steps at 150 kelvin.
TCL: Setting parameter langevinTemp to 150
TCL: Running for 100000 steps
ETITLE: TS BOND ANGLE DIHED IMPRP ELECT VDW BOUNDARY MISC KINETIC TOTAL TEMP POTENTIAL TOTAL3 TEMPAVG PRESSURE GPRESSURE VOLUME PRESSAVG GPRESSAVG
ENERGY: 400000 0.3527 1.6451 1.7943 0.0000 -13834.8017 2349.9209 0.0000 0.0000 720.6620 -10760.4267 122.6631 -11481.0886 -10759.1381 122.6631 287.4857 346.9554 28357.8445 287.4857 346.9554
ENERGY: 500000 0.8925 0.9145 1.9632 0.0000 -13588.2174 2258.9486 0.0000 0.0000 891.8826 -10433.6159 151.8064 -11325.4985 -10431.5213 149.9334 48.5031 65.8029 28680.0653 5.3649 5.4724
TCL: Running 100000 steps at 180 kelvin.
TCL: Setting parameter langevinTemp to 180
TCL: Running for 100000 steps
ETITLE: TS BOND ANGLE DIHED IMPRP ELECT VDW BOUNDARY MISC KINETIC TOTAL TEMP POTENTIAL TOTAL3 TEMPAVG PRESSURE GPRESSURE VOLUME PRESSAVG GPRESSAVG
ENERGY: 500000 0.8925 0.9145 1.9632 0.0000 -13588.2174 2258.9486 0.0000 0.0000 891.4338 -10434.0647 151.7301 -11325.4985 -10432.3492 151.7301 18.4936 66.3874 28680.0653 18.4936 66.3874
ENERGY: 600000 2.1667 1.7156 1.9839 0.0000 -13195.2210 2152.5451 0.0000 0.0000 1024.5390 -10012.2707 174.3858 -11036.8097 -10010.4619 179.8786 73.3867 135.6548 28911.4425 3.1174 3.2611
TCL: Running 100000 steps at 210 kelvin.
TCL: Setting parameter langevinTemp to 210
TCL: Running for 100000 steps
ETITLE: TS BOND ANGLE DIHED IMPRP ELECT VDW BOUNDARY MISC KINETIC TOTAL TEMP POTENTIAL TOTAL3 TEMPAVG PRESSURE GPRESSURE VOLUME PRESSAVG GPRESSAVG
ENERGY: 600000 2.1667 1.7156 1.9839 0.0000 -13195.2210 2152.5451 0.0000 0.0000 1024.0069 -10012.8029 174.2952 -11036.8097 -10010.9334 174.2952 88.3324 134.6812 28911.4425 88.3324 134.6812
ENERGY: 700000 2.5050 2.8779 3.0166 0.0000 -12396.9665 1923.2815 0.0000 0.0000 1204.7624 -9260.5232 205.0614 -10465.2856 -9258.9856 210.1230 262.3248 276.2064 28989.1567 2.9926 2.9167
TCL: Running 100000 steps at 240 kelvin.
TCL: Setting parameter langevinTemp to 240
TCL: Running for 100000 steps
ETITLE: TS BOND ANGLE DIHED IMPRP ELECT VDW BOUNDARY MISC KINETIC TOTAL TEMP POTENTIAL TOTAL3 TEMPAVG PRESSURE GPRESSURE VOLUME PRESSAVG GPRESSAVG
ENERGY: 700000 2.5050 2.8779 3.0166 0.0000 -12396.9665 1923.2815 0.0000 0.0000 1204.1657 -9261.1199 204.9598 -10465.2856 -9259.0811 204.9598 191.6820 275.4577 28989.1567 191.6820 275.4577
ENERGY: 800000 1.7025 3.3249 1.8516 0.0000 -11765.3891 1655.6082 0.0000 0.0000 1397.1534 -8705.7484 237.8081 -10102.9018 -8703.8356 239.3386 -386.0280 -316.9998 29094.3579 3.1155 3.1443
TCL: Running 100000 steps at 270 kelvin.
TCL: Setting parameter langevinTemp to 270
TCL: Running for 100000 steps
ETITLE: TS BOND ANGLE DIHED IMPRP ELECT VDW BOUNDARY MISC KINETIC TOTAL TEMP POTENTIAL TOTAL3 TEMPAVG PRESSURE GPRESSURE VOLUME PRESSAVG GPRESSAVG
ENERGY: 800000 1.7025 3.3249 1.8516 0.0000 -11765.3891 1655.6082 0.0000 0.0000 1396.4774 -8706.4244 237.6930 -10102.9018 -8703.8653 237.6930 -395.9355 -316.5399 29094.3579 -395.9355 -316.5399
ENERGY: 900000 2.8070 3.2320 4.1849 0.0000 -11231.9152 1521.5227 0.0000 0.0000 1606.5290 -8093.6397 273.4457 -9700.1687 -8089.6306 269.8492 -327.9571 -221.3194 29282.1550 3.6327 3.7295
TCL: Running 1000000 steps at 300 kelvin.
TCL: Setting parameter langevinTemp to 300
TCL: Running for 1000000 steps
ETITLE: TS BOND ANGLE DIHED IMPRP ELECT VDW BOUNDARY MISC KINETIC TOTAL TEMP POTENTIAL TOTAL3 TEMPAVG PRESSURE GPRESSURE VOLUME PRESSAVG GPRESSAVG
ENERGY: 900000 2.8070 3.2320 4.1849 0.0000 -11231.9152 1521.5227 0.0000 0.0000 1605.6920 -8094.4767 273.3032 -9700.1687 -8091.6837 273.3032 -291.9508 -220.5131 29282.1550 -291.9508 -220.5131
ENERGY: 1100000 3.1182 3.1286 2.0049 0.0000 -10806.0681 1458.3338 0.0000 0.0000 1758.4719 -7581.0107 299.3077 -9339.4826 -7578.1786 300.4327 -270.8579 -169.2029 30734.3669 3.2828 3.1422
ENERGY: 1300000 3.1501 6.3794 1.0139 0.0000 -10661.5224 1342.7946 0.0000 0.0000 1741.3465 -7566.8379 296.3928 -9308.1844 -7563.1489 300.4469 -956.1774 -852.3506 30545.6692 3.1141 3.1599
ENERGY: 1500000 1.7992 3.5855 2.8546 0.0000 -10630.7273 1443.6180 0.0000 0.0000 1747.5839 -7431.2861 297.4545 -9178.8700 -7428.9257 300.7345 259.2231 380.3272 30610.5326 2.8744 2.7241
ENERGY: 1700000 2.0088 2.7231 5.2922 0.0000 -10750.5095 1438.5644 0.0000 0.0000 1710.9582 -7590.9628 291.2205 -9301.9210 -7588.4802 300.1708 -12.5897 122.1420 30301.6266 4.9169 4.8740
ENERGY: 1900000 3.7310 6.4328 3.5732 0.0000 -10777.4140 1455.2892 0.0000 0.0000 1757.4065 -7550.9813 299.1264 -9308.3878 -7546.8253 299.7982 282.8785 326.9049 29968.4274 2.6927 2.6541
TCL: Exiting due to exit command.
