Info: SIMULATION PARAMETERS:
Info: TIMESTEP               2
Info: NUMBER OF STEPS        0
Info: STEPS PER CYCLE        10
Info: PERIODIC CELL BASIS 1  37.435 0 0
Info: PERIODIC CELL BASIS 2  0 35.267 0
Info: PERIODIC CELL BASIS 3  0 0 33.152
Info: PERIODIC CELL CENTER   0 0 0
Info: WRAPPING WATERS AROUND PERIODIC BOUNDARIES ON OUTPUT.
Info: WRAPPING ALL CLUSTERS AROUND PERIODIC BOUNDARIES ON OUTPUT.
Info: FIRST LDB TIMESTEP     50
Info: LAST LDB TIMESTEP     -1
Info: HOM BACKGROUND SCALING 1
Info: PME BACKGROUND SCALING 1
Info: MIN ATOMS PER PATCH    40
Info: EMPTY PATCH LOAD       40 ATOMS
Info: INITIAL TEMPERATURE    300
Info: CENTER OF MASS MOVING INITIALLY? NO
Info: DIELECTRIC             1
Info: EXCLUDE                SCALED ONE-FOUR
Info: 1-4 ELECTROSTATICS SCALED BY 0.833333
Info: MODIFIED 1-4 VDW PARAMETERS WILL BE USED
Info: DCD FILENAME           mobley_902954_equil.dcd
Info: DCD FREQUENCY          100000
Info: DCD FIRST STEP         100000
Info: DCD FILE WILL CONTAIN UNIT CELL DATA
Info: XST FILENAME           mobley_902954_equil.xst
Info: XST FREQUENCY          100000
Info: NO VELOCITY DCD OUTPUT
Info: NO FORCE DCD OUTPUT
Info: OUTPUT FILENAME        mobley_902954_equil
Info: BINARY OUTPUT FILES WILL BE USED
Info: RESTART FILENAME       mobley_902954_equil.restart
Info: RESTART FREQUENCY      100000
Info: BINARY RESTART FILES WILL BE USED
Info: CUTOFF                 9
Info: PAIRLIST DISTANCE      11
Info: PAIRLIST SHRINK RATE   0.01
Info: PAIRLIST GROW RATE     0.01
Info: PAIRLIST TRIGGER       0.3
Info: PAIRLISTS PER CYCLE    2
Info: PAIRLISTS ENABLED
Info: MARGIN                 8
Info: HYDROGEN GROUP CUTOFF  2.5
Info: PATCH DIMENSION        21.5
Info: ENERGY OUTPUT STEPS    100000
Info: ENERGY EVALUATION STEPS    100000
Info: OUTPUT ENERGY PRECISION 4
Info: CROSSTERM ENERGY INCLUDED IN DIHEDRAL
Info: TIMING OUTPUT STEPS    1000000
Info: PRESSURE OUTPUT STEPS  100000
Info: LANGEVIN DYNAMICS ACTIVE
Info: LANGEVIN TEMPERATURE   30
Info: LANGEVIN USING BBK INTEGRATOR
Info: LANGEVIN DAMPING COEFFICIENT IS 1 INVERSE PS
Info: LANGEVIN DYNAMICS APPLIED TO HYDROGENS
Info: LANGEVIN PISTON PRESSURE CONTROL ACTIVE
Info:        TARGET PRESSURE IS 1.01325 BAR
Info:     OSCILLATION PERIOD IS 50 FS
Info:             DECAY TIME IS 25 FS
Info:     PISTON TEMPERATURE IS 300 K
Info:       PRESSURE CONTROL IS GROUP-BASED
Info:    INITIAL STRAIN RATE IS 0 0 0
Info:       CELL FLUCTUATION IS ISOTROPIC
Info: PARTICLE MESH EWALD (PME) ACTIVE
Info: PME TOLERANCE               1e-06
Info: PME EWALD COEFFICIENT       0.348832
Info: PME INTERPOLATION ORDER     4
Info: PME GRID DIMENSIONS         40 36 36
Info: PME MAXIMUM GRID SPACING    1
Info: FULL ELECTROSTATIC EVALUATION FREQUENCY      2
Info: USING VERLET I (r-RESPA) MTS SCHEME.
Info: C1 SPLITTING OF LONG RANGE ELECTROSTATICS
Info: PLACING ATOMS IN PATCHES BY HYDROGEN GROUPS
Info: RIGID BONDS TO HYDROGEN : ALL
Info:         ERROR TOLERANCE : 1e-08
Info:          MAX ITERATIONS : 100
Info: RIGID WATER USING SETTLE ALGORITHM
Info: RANDOM NUMBER SEED     1743253501
Info: USE HYDROGEN BONDS?    NO
Info: Using AMBER format force field!
Info: AMBER PARM FILE        mobley_902954.prmtop
Info: COORDINATE PDB         mobley_902954.pdb
Info: Exclusions will be read from PARM file!
Info: SCNB (VDW SCALING)     2
Info: USING ARITHMETIC MEAN TO COMBINE L-J SIGMA PARAMETERS
Info: BINARY COORDINATES     mobley_902954_min.coor
Info: SUMMARY OF PARAMETERS:
Info: 8 BONDS
Info: 10 ANGLES
Info:   10 HARMONIC
Info:   0 COSINE-BASED
Info: 10 DIHEDRAL
Info: 0 IMPROPER
Info: 0 CROSSTERM
Info: 0 VDW
Info: 36 VDW_PAIRS
Info: 0 NBTHOLE_PAIRS
Info: STRUCTURE SUMMARY:
Info: 2966 ATOMS
Info: 2965 BONDS
Info: 28 ANGLES
Info: 36 DIHEDRALS
Info: 0 IMPROPERS
Info: 0 CROSSTERMS
Info: 3025 EXCLUSIONS
Info: 2958 RIGID BONDS
Info: 5940 DEGREES OF FREEDOM
Info: 991 HYDROGEN GROUPS
Info: 4 ATOMS IN LARGEST HYDROGEN GROUP
Info: 991 MIGRATION GROUPS
Info: 4 ATOMS IN LARGEST MIGRATION GROUP
Info: TOTAL MASS = 17828.9 amu
Info: TOTAL CHARGE = -1.11759e-08 e
Info: MASS DENSITY = 0.676436 g/cm^3
Info: ATOM DENSITY = 0.0677665 atoms/A^3
Info: ADDED 0 IMPLICIT EXCLUSIONS
Info: NONBONDED TABLE R-SQUARED SPACING: 0.0625
Info: NONBONDED TABLE SIZE: 705 POINTS
Info: REMOVING COM VELOCITY -0.134703 0.191663 -0.194374
TCL: Running for 100000 steps
ETITLE: TS BOND ANGLE DIHED IMPRP ELECT VDW BOUNDARY MISC KINETIC TOTAL TEMP POTENTIAL TOTAL3 TEMPAVG PRESSURE GPRESSURE VOLUME PRESSAVG GPRESSAVG
ENERGY: 0 0.1166 0.7440 1.2526 0.0000 -13676.1052 2404.6245 0.0000 0.0000 1810.9287 -9458.4388 306.8353 -11269.3675 -9458.0764 306.8353 459.3868 491.7263 43767.9382 459.3868 491.7263
ENERGY: 100000 0.4118 1.2579 1.5207 0.0000 -14269.6935 2438.3095 0.0000 0.0000 183.3899 -11644.8038 31.0727 -11828.1937 -11644.4562 30.9965 -416.9967 -361.5283 28910.1457 4.2155 4.2543
TCL: Running 100000 steps at 60 kelvin.
TCL: Setting parameter langevinTemp to 60
TCL: Running for 100000 steps
ETITLE: TS BOND ANGLE DIHED IMPRP ELECT VDW BOUNDARY MISC KINETIC TOTAL TEMP POTENTIAL TOTAL3 TEMPAVG PRESSURE GPRESSURE VOLUME PRESSAVG GPRESSAVG
ENERGY: 100000 0.4118 1.2579 1.5207 0.0000 -14269.6935 2438.3095 0.0000 0.0000 183.2998 -11644.8939 31.0575 -11828.1937 -11644.4303 31.0575 -403.0896 -361.7132 28910.1457 -403.0896 -361.7132
ENERGY: 200000 0.5565 3.0917 1.4277 0.0000 -14140.3719 2409.8708 0.0000 0.0000 363.2060 -11362.2192 61.5399 -11725.4251 -11360.7001 59.8939 -203.3026 -159.6368 28846.5140 5.1785 5.1984
TCL: Running 100000 steps at 90 kelvin.
TCL: Setting parameter langevinTemp to 90
TCL: Running for 100000 steps
ETITLE: TS BOND ANGLE DIHED IMPRP ELECT VDW BOUNDARY MISC KINETIC TOTAL TEMP POTENTIAL TOTAL3 TEMPAVG PRESSURE GPRESSURE VOLUME PRESSAVG GPRESSAVG
ENERGY: 200000 0.5565 3.0917 1.4277 0.0000 -14140.3719 2409.8708 0.0000 0.0000 363.0291 -11362.3960 61.5100 -11725.4251 -11361.7434 61.5100 -216.6129 -159.0521 28846.5140 -216.6129 -159.0521
ENERGY: 300000 0.4720 3.2168 2.1093 0.0000 -13944.4996 2323.7195 0.0000 0.0000 529.4235 -11085.5586 89.7030 -11614.9821 -11084.0294 89.8486 -574.9060 -506.6474 29062.8224 3.5623 3.5480
TCL: Running 100000 steps at 120 kelvin.
TCL: Setting parameter langevinTemp to 120
TCL: Running for 100000 steps
ETITLE: TS BOND ANGLE DIHED IMPRP ELECT VDW BOUNDARY MISC KINETIC TOTAL TEMP POTENTIAL TOTAL3 TEMPAVG PRESSURE GPRESSURE VOLUME PRESSAVG GPRESSAVG
ENERGY: 300000 0.4720 3.2168 2.1093 0.0000 -13944.4996 2323.7195 0.0000 0.0000 529.1673 -11085.8147 89.6596 -11614.9821 -11084.6440 89.6596 -560.6642 -507.2274 29062.8224 -560.6642 -507.2274
ENERGY: 400000 1.0363 4.7838 1.7797 0.0000 -13828.7605 2295.3535 0.0000 0.0000 723.5852 -10802.2220 122.6009 -11525.8071 -10799.5621 120.0428 -397.8326 -324.2957 28965.3922 3.1352 3.0760
TCL: Running 100000 steps at 150 kelvin.
TCL: Setting parameter langevinTemp to 150
TCL: Running for 100000 steps
ETITLE: TS BOND ANGLE DIHED IMPRP ELECT VDW BOUNDARY MISC KINETIC TOTAL TEMP POTENTIAL TOTAL3 TEMPAVG PRESSURE GPRESSURE VOLUME PRESSAVG GPRESSAVG
ENERGY: 400000 1.0363 4.7838 1.7797 0.0000 -13828.7605 2295.3535 0.0000 0.0000 723.2311 -10802.5760 122.5409 -11525.8071 -10800.9556 122.5409 -373.4389 -324.1585 28965.3922 -373.4389 -324.1585
ENERGY: 500000 1.2209 4.4971 1.3529 0.0000 -13695.9780 2370.2597 0.0000 0.0000 853.9816 -10464.6659 144.6946 -11318.6475 -10462.7600 150.1020 812.1398 882.3439 29196.6558 4.0564 4.1692
TCL: Running 100000 steps at 180 kelvin.
TCL: Setting parameter langevinTemp to 180
TCL: Running for 100000 steps
ETITLE: TS BOND ANGLE DIHED IMPRP ELECT VDW BOUNDARY MISC KINETIC TOTAL TEMP POTENTIAL TOTAL3 TEMPAVG PRESSURE GPRESSURE VOLUME PRESSAVG GPRESSAVG
ENERGY: 500000 1.2209 4.4971 1.3529 0.0000 -13695.9780 2370.2597 0.0000 0.0000 853.5424 -10465.1051 144.6202 -11318.6475 -10463.4997 144.6202 831.3330 882.5005 29196.6558 831.3330 882.5005
ENERGY: 600000 2.5843 2.8927 3.1198 0.0000 -13012.4884 1992.5910 0.0000 0.0000 1047.2964 -9964.0041 177.4490 -11011.3005 -9962.9027 179.6496 -1246.8107 -1175.2490 29321.6985 3.3519 3.3166
TCL: Running 100000 steps at 210 kelvin.
TCL: Setting parameter langevinTemp to 210
TCL: Running for 100000 steps
ETITLE: TS BOND ANGLE DIHED IMPRP ELECT VDW BOUNDARY MISC KINETIC TOTAL TEMP POTENTIAL TOTAL3 TEMPAVG PRESSURE GPRESSURE VOLUME PRESSAVG GPRESSAVG
ENERGY: 600000 2.5843 2.8927 3.1198 0.0000 -13012.4884 1992.5910 0.0000 0.0000 1046.7745 -9964.5260 177.3606 -11011.3005 -9961.9553 177.3606 -1235.4237 -1177.4335 29321.6985 -1235.4237 -1177.4335
ENERGY: 700000 2.9265 3.7278 2.2607 0.0000 -12608.5555 2009.1698 0.0000 0.0000 1257.5094 -9332.9612 213.0665 -10590.4706 -9329.9758 209.8386 1304.4882 1304.5145 28371.2013 3.2742 3.2498
TCL: Running 100000 steps at 240 kelvin.
TCL: Setting parameter langevinTemp to 240
TCL: Running for 100000 steps
ETITLE: TS BOND ANGLE DIHED IMPRP ELECT VDW BOUNDARY MISC KINETIC TOTAL TEMP POTENTIAL TOTAL3 TEMPAVG PRESSURE GPRESSURE VOLUME PRESSAVG GPRESSAVG
ENERGY: 700000 2.9265 3.7278 2.2607 0.0000 -12608.5555 2009.1698 0.0000 0.0000 1256.9087 -9333.5618 212.9647 -10590.4706 -9331.7203 212.9647 1230.9504 1304.9269 28371.2013 1230.9504 1304.9269
ENERGY: 800000 2.3321 5.0962 4.0896 0.0000 -11713.6073 1600.5940 0.0000 0.0000 1395.4484 -8706.0470 236.4382 -10101.4954 -8702.9865 240.2323 -1050.5597 -939.2056 29116.4414 2.0924 2.0420
TCL: Running 100000 steps at 270 kelvin.
TCL: Setting parameter langevinTemp to 270
TCL: Running for 100000 steps
ETITLE: TS BOND ANGLE DIHED IMPRP ELECT VDW BOUNDARY MISC KINETIC TOTAL TEMP POTENTIAL TOTAL3 TEMPAVG PRESSURE GPRESSURE VOLUME PRESSAVG GPRESSAVG
ENERGY: 800000 2.3321 5.0962 4.0896 0.0000 -11713.6073 1600.5940 0.0000 0.0000 1394.7573 -8706.7380 236.3212 -10101.4954 -8703.8369 236.3212 -1030.3551 -940.0338 29116.4414 -1030.3551 -940.0338
ENERGY: 900000 0.7057 7.3748 1.8190 0.0000 -11211.8812 1522.7991 0.0000 0.0000 1666.0681 -8013.1145 282.2908 -9679.1826 -8009.3579 270.0511 -149.1067 -81.4086 29667.7502 3.1235 3.0189
TCL: Running 1000000 steps at 300 kelvin.
TCL: Setting parameter langevinTemp to 300
TCL: Running for 1000000 steps
ETITLE: TS BOND ANGLE DIHED IMPRP ELECT VDW BOUNDARY MISC KINETIC TOTAL TEMP POTENTIAL TOTAL3 TEMPAVG PRESSURE GPRESSURE VOLUME PRESSAVG GPRESSAVG
ENERGY: 900000 0.7057 7.3748 1.8190 0.0000 -11211.8812 1522.7991 0.0000 0.0000 1665.2601 -8013.9225 282.1539 -9679.1826 -8011.8902 282.1539 -169.6397 -79.8856 29667.7502 -169.6397 -79.8856
ENERGY: 1100000 0.9689 7.5852 1.8499 0.0000 -10730.5052 1403.2869 0.0000 0.0000 1786.8526 -7529.9616 302.7559 -9316.8143 -7529.0065 299.8470 -152.2312 -86.1816 30083.0980 3.6748 3.6808
ENERGY: 1300000 2.8958 7.1749 1.8456 0.0000 -10829.2111 1516.5407 0.0000 0.0000 1750.2205 -7550.5335 296.5492 -9300.7540 -7546.2958 300.3114 550.2765 625.6396 30405.9167 3.1206 3.0329
ENERGY: 1500000 1.3940 11.3359 4.9803 0.0000 -10726.1167 1403.9868 0.0000 0.0000 1734.2083 -7570.2114 293.8361 -9304.4197 -7566.7579 300.1360 -335.2763 -178.7258 30539.2835 2.7315 2.8012
ENERGY: 1700000 1.2176 4.8215 4.3021 0.0000 -10647.7559 1449.3036 0.0000 0.0000 1785.4164 -7402.6947 302.5126 -9188.1111 -7398.3616 300.7997 453.5302 414.2965 30929.3833 4.0040 4.1062
ENERGY: 1900000 5.1783 7.7754 2.7695 0.0000 -10824.6376 1509.4939 0.0000 0.0000 1810.6438 -7488.7767 306.7870 -9299.4205 -7485.3671 300.3042 725.4274 798.8062 30098.8040 2.3893 2.5353
TCL: Exiting due to exit command.
