Info: SIMULATION PARAMETERS:
Info: TIMESTEP               2
Info: NUMBER OF STEPS        0
Info: STEPS PER CYCLE        10
Info: PERIODIC CELL BASIS 1  36.005 0 0
Info: PERIODIC CELL BASIS 2  0 35.779 0
Info: PERIODIC CELL BASIS 3  0 0 34.471
Info: PERIODIC CELL CENTER   0 0 0
Info: WRAPPING WATERS AROUND PERIODIC BOUNDARIES ON OUTPUT.
Info: WRAPPING ALL CLUSTERS AROUND PERIODIC BOUNDARIES ON OUTPUT.
Info: FIRST LDB TIMESTEP     50
Info: LAST LDB TIMESTEP     -1
Info: HOM BACKGROUND SCALING 1
Info: PME BACKGROUND SCALING 1
Info: MIN ATOMS PER PATCH    40
Info: EMPTY PATCH LOAD       40 ATOMS
Info: INITIAL TEMPERATURE    300
Info: CENTER OF MASS MOVING INITIALLY? NO
Info: DIELECTRIC             1
Info: EXCLUDE                SCALED ONE-FOUR
Info: 1-4 ELECTROSTATICS SCALED BY 0.833333
Info: MODIFIED 1-4 VDW PARAMETERS WILL BE USED
Info: DCD FILENAME           mobley_1723043_equil.dcd
Info: DCD FREQUENCY          100000
Info: DCD FIRST STEP         100000
Info: DCD FILE WILL CONTAIN UNIT CELL DATA
Info: XST FILENAME           mobley_1723043_equil.xst
Info: XST FREQUENCY          100000
Info: NO VELOCITY DCD OUTPUT
Info: NO FORCE DCD OUTPUT
Info: OUTPUT FILENAME        mobley_1723043_equil
Info: BINARY OUTPUT FILES WILL BE USED
Info: RESTART FILENAME       mobley_1723043_equil.restart
Info: RESTART FREQUENCY      100000
Info: BINARY RESTART FILES WILL BE USED
Info: CUTOFF                 9
Info: PAIRLIST DISTANCE      11
Info: PAIRLIST SHRINK RATE   0.01
Info: PAIRLIST GROW RATE     0.01
Info: PAIRLIST TRIGGER       0.3
Info: PAIRLISTS PER CYCLE    2
Info: PAIRLISTS ENABLED
Info: MARGIN                 8
Info: HYDROGEN GROUP CUTOFF  2.5
Info: PATCH DIMENSION        21.5
Info: ENERGY OUTPUT STEPS    100000
Info: ENERGY EVALUATION STEPS    100000
Info: OUTPUT ENERGY PRECISION 4
Info: CROSSTERM ENERGY INCLUDED IN DIHEDRAL
Info: TIMING OUTPUT STEPS    1000000
Info: PRESSURE OUTPUT STEPS  100000
Info: FIXED ATOMS ACTIVE
Info: LANGEVIN DYNAMICS ACTIVE
Info: LANGEVIN TEMPERATURE   30
Info: LANGEVIN USING BBK INTEGRATOR
Info: LANGEVIN DAMPING COEFFICIENT IS 1 INVERSE PS
Info: LANGEVIN DYNAMICS APPLIED TO HYDROGENS
Info: LANGEVIN PISTON PRESSURE CONTROL ACTIVE
Info:        TARGET PRESSURE IS 1.01325 BAR
Info:     OSCILLATION PERIOD IS 50 FS
Info:             DECAY TIME IS 25 FS
Info:     PISTON TEMPERATURE IS 300 K
Info:       PRESSURE CONTROL IS GROUP-BASED
Info:    INITIAL STRAIN RATE IS 0 0 0
Info:       CELL FLUCTUATION IS ISOTROPIC
Info: PARTICLE MESH EWALD (PME) ACTIVE
Info: PME TOLERANCE               1e-06
Info: PME EWALD COEFFICIENT       0.348832
Info: PME INTERPOLATION ORDER     4
Info: PME GRID DIMENSIONS         40 36 36
Info: PME MAXIMUM GRID SPACING    1
Info: FULL ELECTROSTATIC EVALUATION FREQUENCY      2
Info: USING VERLET I (r-RESPA) MTS SCHEME.
Info: C1 SPLITTING OF LONG RANGE ELECTROSTATICS
Info: PLACING ATOMS IN PATCHES BY HYDROGEN GROUPS
Info: RIGID BONDS TO HYDROGEN : ALL
Info:         ERROR TOLERANCE : 1e-08
Info:          MAX ITERATIONS : 100
Info: RIGID WATER USING SETTLE ALGORITHM
Info: RANDOM NUMBER SEED     1743670220
Info: USE HYDROGEN BONDS?    NO
Info: Using AMBER format force field!
Info: AMBER PARM FILE        mobley_1723043.prmtop
Info: COORDINATE PDB         mobley_1723043.pdb
Info: Exclusions will be read from PARM file!
Info: SCNB (VDW SCALING)     2
Info: USING ARITHMETIC MEAN TO COMBINE L-J SIGMA PARAMETERS
Info: BINARY COORDINATES     mobley_1723043_min.coor
Info: SUMMARY OF PARAMETERS:
Info: 4 BONDS
Info: 3 ANGLES
Info:   3 HARMONIC
Info:   0 COSINE-BASED
Info: 1 DIHEDRAL
Info: 0 IMPROPER
Info: 0 CROSSTERM
Info: 0 VDW
Info: 10 VDW_PAIRS
Info: 0 NBTHOLE_PAIRS
Info: STRUCTURE SUMMARY:
Info: 2910 ATOMS
Info: 2910 BONDS
Info: 24 ANGLES
Info: 36 DIHEDRALS
Info: 0 IMPROPERS
Info: 0 CROSSTERMS
Info: 2956 EXCLUSIONS
Info: 12 FIXED ATOMS
Info: 2898 RIGID BONDS
Info: 0 RIGID BONDS BETWEEN FIXED ATOMS
Info: 5796 DEGREES OF FREEDOM
Info: 978 HYDROGEN GROUPS
Info: 3 ATOMS IN LARGEST HYDROGEN GROUP
Info: 978 MIGRATION GROUPS
Info: 3 ATOMS IN LARGEST MIGRATION GROUP
Info: 12 HYDROGEN GROUPS WITH ALL ATOMS FIXED
Info: TOTAL MASS = 17603.5 amu
Info: TOTAL CHARGE = 0 e
Info: MASS DENSITY = 0.658284 g/cm^3
Info: ATOM DENSITY = 0.0655312 atoms/A^3
Info: ADDED 0 IMPLICIT EXCLUSIONS
Info: NONBONDED TABLE R-SQUARED SPACING: 0.0625
Info: NONBONDED TABLE SIZE: 705 POINTS
Info: REMOVING COM VELOCITY -0.0336264 -0.315037 -0.0557639
TCL: Running for 100000 steps
ETITLE: TS BOND ANGLE DIHED IMPRP ELECT VDW BOUNDARY MISC KINETIC TOTAL TEMP POTENTIAL TOTAL3 TEMPAVG PRESSURE GPRESSURE VOLUME PRESSAVG GPRESSAVG
ENERGY: 0 0.0000 0.0000 0.0000 0.0000 -13523.2355 2418.1441 0.0000 0.0000 1705.5156 -9399.5758 296.1541 -11105.0914 -9399.2272 296.1541 696.4818 726.3027 44406.3314 696.4818 726.3027
ENERGY: 100000 0.0000 0.0000 0.0000 0.0000 -13985.3046 2376.5542 0.0000 0.0000 167.6287 -11441.1217 29.1079 -11608.7505 -11440.7313 30.8757 -561.4773 -519.4925 28729.7119 4.7275 4.7444
TCL: Running 100000 steps at 60 kelvin.
TCL: Setting parameter langevinTemp to 60
TCL: Running for 100000 steps
ETITLE: TS BOND ANGLE DIHED IMPRP ELECT VDW BOUNDARY MISC KINETIC TOTAL TEMP POTENTIAL TOTAL3 TEMPAVG PRESSURE GPRESSURE VOLUME PRESSAVG GPRESSAVG
ENERGY: 100000 0.0000 0.0000 0.0000 0.0000 -13985.3046 2376.5542 0.0000 0.0000 167.5421 -11441.2084 29.0928 -11608.7505 -11440.7773 29.0928 -572.1328 -519.7148 28729.7119 -572.1328 -519.7148
ENERGY: 200000 0.0000 0.0000 0.0000 0.0000 -14049.0297 2481.2490 0.0000 0.0000 342.9942 -11224.7865 59.5592 -11567.7807 -11223.9315 59.8185 531.0850 570.5520 28469.2905 3.9865 3.9749
TCL: Running 100000 steps at 90 kelvin.
TCL: Setting parameter langevinTemp to 90
TCL: Running for 100000 steps
ETITLE: TS BOND ANGLE DIHED IMPRP ELECT VDW BOUNDARY MISC KINETIC TOTAL TEMP POTENTIAL TOTAL3 TEMPAVG PRESSURE GPRESSURE VOLUME PRESSAVG GPRESSAVG
ENERGY: 200000 0.0000 0.0000 0.0000 0.0000 -14049.0297 2481.2490 0.0000 0.0000 342.8247 -11224.9560 59.5298 -11567.7807 -11224.1544 59.5298 525.5367 570.7717 28469.2905 525.5367 570.7717
ENERGY: 300000 0.0000 0.0000 0.0000 0.0000 -13839.1510 2380.0214 0.0000 0.0000 515.6869 -10943.4428 89.5464 -11459.1297 -10942.4200 89.9034 74.3443 136.1744 28620.5910 3.5163 3.6168
TCL: Running 100000 steps at 120 kelvin.
TCL: Setting parameter langevinTemp to 120
TCL: Running for 100000 steps
ETITLE: TS BOND ANGLE DIHED IMPRP ELECT VDW BOUNDARY MISC KINETIC TOTAL TEMP POTENTIAL TOTAL3 TEMPAVG PRESSURE GPRESSURE VOLUME PRESSAVG GPRESSAVG
ENERGY: 300000 0.0000 0.0000 0.0000 0.0000 -13839.1510 2380.0214 0.0000 0.0000 515.4286 -10943.7010 89.5016 -11459.1297 -10942.7851 89.5016 83.5311 136.2442 28620.5910 83.5311 136.2442
ENERGY: 400000 0.0000 0.0000 0.0000 0.0000 -13750.5473 2394.5410 0.0000 0.0000 698.0945 -10657.9117 121.2205 -11356.0063 -10655.9607 120.0664 927.7322 979.9149 28077.2279 4.3334 4.3212
TCL: Running 100000 steps at 150 kelvin.
TCL: Setting parameter langevinTemp to 150
TCL: Running for 100000 steps
ETITLE: TS BOND ANGLE DIHED IMPRP ELECT VDW BOUNDARY MISC KINETIC TOTAL TEMP POTENTIAL TOTAL3 TEMPAVG PRESSURE GPRESSURE VOLUME PRESSAVG GPRESSAVG
ENERGY: 400000 0.0000 0.0000 0.0000 0.0000 -13750.5473 2394.5410 0.0000 0.0000 697.7441 -10658.2622 121.1597 -11356.0063 -10656.5977 121.1597 925.1023 980.6837 28077.2279 925.1023 980.6837
ENERGY: 500000 0.0000 0.0000 0.0000 0.0000 -13427.9874 2249.2302 0.0000 0.0000 860.2333 -10318.5239 149.3751 -11178.7572 -10315.9181 150.2067 358.1260 433.4205 28215.1466 4.4467 4.4751
TCL: Running 100000 steps at 180 kelvin.
TCL: Setting parameter langevinTemp to 180
TCL: Running for 100000 steps
ETITLE: TS BOND ANGLE DIHED IMPRP ELECT VDW BOUNDARY MISC KINETIC TOTAL TEMP POTENTIAL TOTAL3 TEMPAVG PRESSURE GPRESSURE VOLUME PRESSAVG GPRESSAVG
ENERGY: 500000 0.0000 0.0000 0.0000 0.0000 -13427.9874 2249.2302 0.0000 0.0000 859.8127 -10318.9445 149.3021 -11178.7572 -10317.1886 149.3021 384.4102 434.3019 28215.1466 384.4102 434.3019
ENERGY: 600000 0.0000 0.0000 0.0000 0.0000 -12963.7537 2112.3152 0.0000 0.0000 1041.8787 -9809.5597 180.9169 -10851.4384 -9806.1729 179.6917 112.1909 155.3071 28686.5011 4.4950 4.4481
TCL: Running 100000 steps at 210 kelvin.
TCL: Setting parameter langevinTemp to 210
TCL: Running for 100000 steps
ETITLE: TS BOND ANGLE DIHED IMPRP ELECT VDW BOUNDARY MISC KINETIC TOTAL TEMP POTENTIAL TOTAL3 TEMPAVG PRESSURE GPRESSURE VOLUME PRESSAVG GPRESSAVG
ENERGY: 600000 0.0000 0.0000 0.0000 0.0000 -12963.7537 2112.3152 0.0000 0.0000 1041.3542 -9810.0843 180.8258 -10851.4384 -9808.3808 180.8258 88.3064 155.2828 28686.5011 88.3064 155.2828
ENERGY: 700000 0.0000 0.0000 0.0000 0.0000 -12401.5058 1985.9352 0.0000 0.0000 1230.8949 -9184.6758 213.7386 -10415.5706 -9181.0431 209.7178 800.9220 917.7293 28546.3060 3.6325 3.7343
TCL: Running 100000 steps at 240 kelvin.
TCL: Setting parameter langevinTemp to 240
TCL: Running for 100000 steps
ETITLE: TS BOND ANGLE DIHED IMPRP ELECT VDW BOUNDARY MISC KINETIC TOTAL TEMP POTENTIAL TOTAL3 TEMPAVG PRESSURE GPRESSURE VOLUME PRESSAVG GPRESSAVG
ENERGY: 700000 0.0000 0.0000 0.0000 0.0000 -12401.5058 1985.9352 0.0000 0.0000 1230.2705 -9185.3001 213.6302 -10415.5706 -9183.1948 213.6302 841.4760 917.6147 28546.3060 841.4760 917.6147
ENERGY: 800000 0.0000 0.0000 0.0000 0.0000 -11638.1808 1629.7004 0.0000 0.0000 1381.4448 -8627.0357 239.8808 -10008.4804 -8625.4919 239.8883 -743.4679 -630.2494 28985.8072 3.4436 3.5716
TCL: Running 100000 steps at 270 kelvin.
TCL: Setting parameter langevinTemp to 270
TCL: Running for 100000 steps
ETITLE: TS BOND ANGLE DIHED IMPRP ELECT VDW BOUNDARY MISC KINETIC TOTAL TEMP POTENTIAL TOTAL3 TEMPAVG PRESSURE GPRESSURE VOLUME PRESSAVG GPRESSAVG
ENERGY: 800000 0.0000 0.0000 0.0000 0.0000 -11638.1808 1629.7004 0.0000 0.0000 1380.7403 -8627.7401 239.7585 -10008.4804 -8625.4478 239.7585 -707.1033 -629.8255 28985.8072 -707.1033 -629.8255
ENERGY: 900000 0.0000 0.0000 0.0000 0.0000 -11140.2208 1574.9568 0.0000 0.0000 1604.7333 -7960.5307 278.6537 -9565.2640 -7957.4502 270.0588 534.1400 588.3940 28960.9662 3.9178 4.0906
TCL: Running 1000000 steps at 300 kelvin.
TCL: Setting parameter langevinTemp to 300
TCL: Running for 1000000 steps
ETITLE: TS BOND ANGLE DIHED IMPRP ELECT VDW BOUNDARY MISC KINETIC TOTAL TEMP POTENTIAL TOTAL3 TEMPAVG PRESSURE GPRESSURE VOLUME PRESSAVG GPRESSAVG
ENERGY: 900000 0.0000 0.0000 0.0000 0.0000 -11140.2208 1574.9568 0.0000 0.0000 1603.9892 -7961.2748 278.5245 -9565.2640 -7959.2241 278.5245 516.4864 592.2490 28960.9662 516.4864 592.2490
ENERGY: 1100000 0.0000 0.0000 0.0000 0.0000 -10551.1346 1380.7820 0.0000 0.0000 1740.4749 -7429.8777 302.2246 -9170.3526 -7426.5757 300.6422 -251.8080 -138.1133 29797.7635 3.1904 3.1627
ENERGY: 1300000 0.0000 0.0000 0.0000 0.0000 -10473.2847 1361.1338 0.0000 0.0000 1715.7714 -7396.3795 297.9349 -9112.1509 -7393.7017 299.7819 -494.0437 -397.6104 30365.0526 2.9586 3.0746
ENERGY: 1500000 0.0000 0.0000 0.0000 0.0000 -10483.2476 1349.5363 0.0000 0.0000 1814.0773 -7319.6341 315.0052 -9133.7114 -7315.4556 300.2879 -608.4711 -515.2680 30700.7631 2.9631 2.7784
ENERGY: 1700000 0.0000 0.0000 0.0000 0.0000 -10602.4615 1432.2798 0.0000 0.0000 1756.1103 -7414.0713 304.9396 -9170.1817 -7412.0145 300.0653 242.1198 279.2963 29935.1909 3.1846 3.1892
ENERGY: 1900000 0.0000 0.0000 0.0000 0.0000 -10558.8411 1373.8762 0.0000 0.0000 1810.7766 -7374.1883 314.4321 -9184.9649 -7368.1594 300.5566 -305.4172 -244.9742 30091.6762 2.5733 2.4830
TCL: Exiting due to exit command.
