Info: SIMULATION PARAMETERS:
Info: TIMESTEP               2
Info: NUMBER OF STEPS        0
Info: STEPS PER CYCLE        10
Info: PERIODIC CELL BASIS 1  36.005 0 0
Info: PERIODIC CELL BASIS 2  0 36.451 0
Info: PERIODIC CELL BASIS 3  0 0 34.68
Info: PERIODIC CELL CENTER   0 0 0
Info: WRAPPING WATERS AROUND PERIODIC BOUNDARIES ON OUTPUT.
Info: WRAPPING ALL CLUSTERS AROUND PERIODIC BOUNDARIES ON OUTPUT.
Info: FIRST LDB TIMESTEP     50
Info: LAST LDB TIMESTEP     -1
Info: HOM BACKGROUND SCALING 1
Info: PME BACKGROUND SCALING 1
Info: MIN ATOMS PER PATCH    40
Info: EMPTY PATCH LOAD       40 ATOMS
Info: INITIAL TEMPERATURE    300
Info: CENTER OF MASS MOVING INITIALLY? NO
Info: DIELECTRIC             1
Info: EXCLUDE                SCALED ONE-FOUR
Info: 1-4 ELECTROSTATICS SCALED BY 0.833333
Info: MODIFIED 1-4 VDW PARAMETERS WILL BE USED
Info: DCD FILENAME           mobley_7735340_equil.dcd
Info: DCD FREQUENCY          100000
Info: DCD FIRST STEP         100000
Info: DCD FILE WILL CONTAIN UNIT CELL DATA
Info: XST FILENAME           mobley_7735340_equil.xst
Info: XST FREQUENCY          100000
Info: NO VELOCITY DCD OUTPUT
Info: NO FORCE DCD OUTPUT
Info: OUTPUT FILENAME        mobley_7735340_equil
Info: BINARY OUTPUT FILES WILL BE USED
Info: RESTART FILENAME       mobley_7735340_equil.restart
Info: RESTART FREQUENCY      100000
Info: BINARY RESTART FILES WILL BE USED
Info: CUTOFF                 9
Info: PAIRLIST DISTANCE      11
Info: PAIRLIST SHRINK RATE   0.01
Info: PAIRLIST GROW RATE     0.01
Info: PAIRLIST TRIGGER       0.3
Info: PAIRLISTS PER CYCLE    2
Info: PAIRLISTS ENABLED
Info: MARGIN                 8
Info: HYDROGEN GROUP CUTOFF  2.5
Info: PATCH DIMENSION        21.5
Info: ENERGY OUTPUT STEPS    100000
Info: ENERGY EVALUATION STEPS    100000
Info: OUTPUT ENERGY PRECISION 4
Info: CROSSTERM ENERGY INCLUDED IN DIHEDRAL
Info: TIMING OUTPUT STEPS    1000000
Info: PRESSURE OUTPUT STEPS  100000
Info: LANGEVIN DYNAMICS ACTIVE
Info: LANGEVIN TEMPERATURE   30
Info: LANGEVIN USING BBK INTEGRATOR
Info: LANGEVIN DAMPING COEFFICIENT IS 1 INVERSE PS
Info: LANGEVIN DYNAMICS APPLIED TO HYDROGENS
Info: LANGEVIN PISTON PRESSURE CONTROL ACTIVE
Info:        TARGET PRESSURE IS 1.01325 BAR
Info:     OSCILLATION PERIOD IS 50 FS
Info:             DECAY TIME IS 25 FS
Info:     PISTON TEMPERATURE IS 300 K
Info:       PRESSURE CONTROL IS GROUP-BASED
Info:    INITIAL STRAIN RATE IS 0 0 0
Info:       CELL FLUCTUATION IS ISOTROPIC
Info: PARTICLE MESH EWALD (PME) ACTIVE
Info: PME TOLERANCE               1e-06
Info: PME EWALD COEFFICIENT       0.348832
Info: PME INTERPOLATION ORDER     4
Info: PME GRID DIMENSIONS         40 40 36
Info: PME MAXIMUM GRID SPACING    1
Info: FULL ELECTROSTATIC EVALUATION FREQUENCY      2
Info: USING VERLET I (r-RESPA) MTS SCHEME.
Info: C1 SPLITTING OF LONG RANGE ELECTROSTATICS
Info: PLACING ATOMS IN PATCHES BY HYDROGEN GROUPS
Info: RIGID BONDS TO HYDROGEN : ALL
Info:         ERROR TOLERANCE : 1e-08
Info:          MAX ITERATIONS : 100
Info: RIGID WATER USING SETTLE ALGORITHM
Info: RANDOM NUMBER SEED     1743160022
Info: USE HYDROGEN BONDS?    NO
Info: Using AMBER format force field!
Info: AMBER PARM FILE        mobley_7735340.prmtop
Info: COORDINATE PDB         mobley_7735340.pdb
Info: Exclusions will be read from PARM file!
Info: SCNB (VDW SCALING)     2
Info: USING ARITHMETIC MEAN TO COMBINE L-J SIGMA PARAMETERS
Info: BINARY COORDINATES     mobley_7735340_min.coor
Info: SUMMARY OF PARAMETERS:
Info: 10 BONDS
Info: 12 ANGLES
Info:   12 HARMONIC
Info:   0 COSINE-BASED
Info: 4 DIHEDRAL
Info: 0 IMPROPER
Info: 0 CROSSTERM
Info: 0 VDW
Info: 28 VDW_PAIRS
Info: 0 NBTHOLE_PAIRS
Info: STRUCTURE SUMMARY:
Info: 2952 ATOMS
Info: 2952 BONDS
Info: 13 ANGLES
Info: 20 DIHEDRALS
Info: 0 IMPROPERS
Info: 0 CROSSTERMS
Info: 2976 EXCLUSIONS
Info: 2947 RIGID BONDS
Info: 5909 DEGREES OF FREEDOM
Info: 986 HYDROGEN GROUPS
Info: 3 ATOMS IN LARGEST HYDROGEN GROUP
Info: 986 MIGRATION GROUPS
Info: 3 ATOMS IN LARGEST MIGRATION GROUP
Info: TOTAL MASS = 17741.8 amu
Info: TOTAL CHARGE = -9.99831e-05 e
Info: MASS DENSITY = 0.647299 g/cm^3
Info: ATOM DENSITY = 0.0648582 atoms/A^3
Info: ADDED 0 IMPLICIT EXCLUSIONS
Info: NONBONDED TABLE R-SQUARED SPACING: 0.0625
Info: NONBONDED TABLE SIZE: 705 POINTS
Info: REMOVING COM VELOCITY -0.00952042 -0.0147599 0.055553
TCL: Running for 100000 steps
ETITLE: TS BOND ANGLE DIHED IMPRP ELECT VDW BOUNDARY MISC KINETIC TOTAL TEMP POTENTIAL TOTAL3 TEMPAVG PRESSURE GPRESSURE VOLUME PRESSAVG GPRESSAVG
ENERGY: 0 0.0498 0.5854 0.0829 0.0000 -13664.5445 2422.7801 0.0000 0.0000 1767.2268 -9473.8195 301.0015 -11241.0463 -9473.4741 301.0015 594.4760 626.1758 45514.6651 594.4760 626.1758
ENERGY: 100000 0.3351 0.8872 0.1836 0.0000 -14409.4792 2625.8617 0.0000 0.0000 175.0064 -11607.2052 29.8078 -11782.2117 -11606.7400 30.9864 1188.7492 1252.5926 28908.1051 3.6791 3.7067
TCL: Running 100000 steps at 60 kelvin.
TCL: Setting parameter langevinTemp to 60
TCL: Running for 100000 steps
ETITLE: TS BOND ANGLE DIHED IMPRP ELECT VDW BOUNDARY MISC KINETIC TOTAL TEMP POTENTIAL TOTAL3 TEMPAVG PRESSURE GPRESSURE VOLUME PRESSAVG GPRESSAVG
ENERGY: 100000 0.3351 0.8872 0.1836 0.0000 -14409.4792 2625.8617 0.0000 0.0000 174.9189 -11607.2928 29.7929 -11782.2117 -11607.0579 29.7929 1203.6251 1252.9406 28908.1051 1203.6251 1252.9406
ENERGY: 200000 0.5984 1.2062 0.1171 0.0000 -13991.9997 2277.5263 0.0000 0.0000 345.1094 -11367.4424 58.7805 -11712.5517 -11366.4031 60.0042 -1453.7840 -1404.3992 29144.2526 4.2290 4.2199
TCL: Running 100000 steps at 90 kelvin.
TCL: Setting parameter langevinTemp to 90
TCL: Running for 100000 steps
ETITLE: TS BOND ANGLE DIHED IMPRP ELECT VDW BOUNDARY MISC KINETIC TOTAL TEMP POTENTIAL TOTAL3 TEMPAVG PRESSURE GPRESSURE VOLUME PRESSAVG GPRESSAVG
ENERGY: 200000 0.5984 1.2062 0.1171 0.0000 -13991.9997 2277.5263 0.0000 0.0000 344.9329 -11367.6188 58.7504 -11712.5517 -11366.8365 58.7504 -1459.4276 -1404.5644 29144.2526 -1459.4276 -1404.5644
ENERGY: 300000 0.6041 0.9127 0.3939 0.0000 -14013.7989 2369.5612 0.0000 0.0000 538.3070 -11104.0200 91.6867 -11642.3270 -11102.5052 89.8849 -401.3528 -363.5161 28864.8169 3.9698 3.9088
TCL: Running 100000 steps at 120 kelvin.
TCL: Setting parameter langevinTemp to 120
TCL: Running for 100000 steps
ETITLE: TS BOND ANGLE DIHED IMPRP ELECT VDW BOUNDARY MISC KINETIC TOTAL TEMP POTENTIAL TOTAL3 TEMPAVG PRESSURE GPRESSURE VOLUME PRESSAVG GPRESSAVG
ENERGY: 300000 0.6041 0.9127 0.3939 0.0000 -14013.7989 2369.5612 0.0000 0.0000 538.0573 -11104.2696 91.6442 -11642.3270 -11103.1120 91.6442 -406.6329 -363.4459 28864.8169 -406.6329 -363.4459
ENERGY: 400000 0.8576 1.4106 0.6712 0.0000 -13952.3484 2451.2333 0.0000 0.0000 708.7964 -10789.3793 120.7252 -11498.1756 -10786.9717 119.9137 751.6022 772.7520 28955.7777 2.7152 2.8108
TCL: Running 100000 steps at 150 kelvin.
TCL: Setting parameter langevinTemp to 150
TCL: Running for 100000 steps
ETITLE: TS BOND ANGLE DIHED IMPRP ELECT VDW BOUNDARY MISC KINETIC TOTAL TEMP POTENTIAL TOTAL3 TEMPAVG PRESSURE GPRESSURE VOLUME PRESSAVG GPRESSAVG
ENERGY: 400000 0.8576 1.4106 0.6712 0.0000 -13952.3484 2451.2333 0.0000 0.0000 708.4418 -10789.7338 120.6648 -11498.1756 -10788.2017 120.6648 735.9427 772.3981 28955.7777 735.9427 772.3981
ENERGY: 500000 0.8642 1.2779 0.9475 0.0000 -13747.0650 2435.0281 0.0000 0.0000 864.2087 -10444.7385 147.1957 -11308.9472 -10443.8430 149.9319 1634.0829 1648.8370 28650.5884 4.2618 4.2392
TCL: Running 100000 steps at 180 kelvin.
TCL: Setting parameter langevinTemp to 180
TCL: Running for 100000 steps
ETITLE: TS BOND ANGLE DIHED IMPRP ELECT VDW BOUNDARY MISC KINETIC TOTAL TEMP POTENTIAL TOTAL3 TEMPAVG PRESSURE GPRESSURE VOLUME PRESSAVG GPRESSAVG
ENERGY: 500000 0.8642 1.2779 0.9475 0.0000 -13747.0650 2435.0281 0.0000 0.0000 863.7566 -10445.1907 147.1187 -11308.9472 -10443.5199 147.1187 1606.9103 1647.6409 28650.5884 1606.9103 1647.6409
ENERGY: 600000 1.5111 2.1921 2.0384 0.0000 -13103.8752 2102.4428 0.0000 0.0000 1049.5279 -9946.1630 178.7600 -10995.6909 -9943.5859 179.8697 -108.7729 -27.5570 28721.5929 3.2165 3.2363
TCL: Running 100000 steps at 210 kelvin.
TCL: Setting parameter langevinTemp to 210
TCL: Running for 100000 steps
ETITLE: TS BOND ANGLE DIHED IMPRP ELECT VDW BOUNDARY MISC KINETIC TOTAL TEMP POTENTIAL TOTAL3 TEMPAVG PRESSURE GPRESSURE VOLUME PRESSAVG GPRESSAVG
ENERGY: 600000 1.5111 2.1921 2.0384 0.0000 -13103.8752 2102.4428 0.0000 0.0000 1048.9756 -9946.7152 178.6659 -10995.6909 -9944.8992 178.6659 -84.4210 -26.3492 28721.5929 -84.4210 -26.3492
ENERGY: 700000 1.3954 0.8640 2.4464 0.0000 -12395.5574 1820.7824 0.0000 0.0000 1251.6757 -9318.3935 213.1907 -10570.0692 -9315.2772 210.1161 -704.2393 -670.9434 28709.7515 3.0028 2.8975
TCL: Running 100000 steps at 240 kelvin.
TCL: Setting parameter langevinTemp to 240
TCL: Running for 100000 steps
ETITLE: TS BOND ANGLE DIHED IMPRP ELECT VDW BOUNDARY MISC KINETIC TOTAL TEMP POTENTIAL TOTAL3 TEMPAVG PRESSURE GPRESSURE VOLUME PRESSAVG GPRESSAVG
ENERGY: 700000 1.3954 0.8640 2.4464 0.0000 -12395.5574 1820.7824 0.0000 0.0000 1251.0727 -9318.9965 213.0880 -10570.0692 -9316.7510 213.0880 -733.2676 -669.6256 28709.7515 -733.2676 -669.6256
ENERGY: 800000 2.1124 2.1214 2.4427 0.0000 -11876.9501 1806.2873 0.0000 0.0000 1421.2846 -8642.7017 242.0792 -10063.9862 -8640.2529 240.4847 1092.6409 1129.9587 28833.6482 3.6934 3.7068
TCL: Running 100000 steps at 270 kelvin.
TCL: Setting parameter langevinTemp to 270
TCL: Running for 100000 steps
ETITLE: TS BOND ANGLE DIHED IMPRP ELECT VDW BOUNDARY MISC KINETIC TOTAL TEMP POTENTIAL TOTAL3 TEMPAVG PRESSURE GPRESSURE VOLUME PRESSAVG GPRESSAVG
ENERGY: 800000 2.1124 2.1214 2.4427 0.0000 -11876.9501 1806.2873 0.0000 0.0000 1420.5826 -8643.4036 241.9596 -10063.9862 -8640.9788 241.9596 1043.5200 1128.3499 28833.6482 1043.5200 1128.3499
ENERGY: 900000 0.3811 2.7643 0.7001 0.0000 -11179.9838 1519.3991 0.0000 0.0000 1608.5609 -8048.1782 273.9769 -9656.7391 -8043.5900 270.2329 -329.6865 -210.2351 29740.3535 4.1891 4.2585
TCL: Running 1000000 steps at 300 kelvin.
TCL: Setting parameter langevinTemp to 300
TCL: Running for 1000000 steps
ETITLE: TS BOND ANGLE DIHED IMPRP ELECT VDW BOUNDARY MISC KINETIC TOTAL TEMP POTENTIAL TOTAL3 TEMPAVG PRESSURE GPRESSURE VOLUME PRESSAVG GPRESSAVG
ENERGY: 900000 0.3811 2.7643 0.7001 0.0000 -11179.9838 1519.3991 0.0000 0.0000 1607.7275 -8049.0117 273.8349 -9656.7391 -8046.3891 273.8349 -303.5714 -208.1815 29740.3535 -303.5714 -208.1815
ENERGY: 1100000 2.0474 3.4008 1.5495 0.0000 -10789.7687 1411.9893 0.0000 0.0000 1783.1705 -7587.6112 303.7171 -9370.7817 -7584.4636 300.1820 -491.8149 -432.6604 30177.8263 4.1006 3.9226
ENERGY: 1300000 0.6466 2.5596 1.9378 0.0000 -10643.5611 1401.8212 0.0000 0.0000 1740.0273 -7496.5685 296.3688 -9236.5958 -7492.3266 299.7908 -219.5642 -202.0666 30671.7546 2.7722 2.9474
ENERGY: 1500000 0.7141 2.2718 2.1199 0.0000 -10654.5101 1370.3194 0.0000 0.0000 1770.6328 -7508.4521 301.5816 -9279.0849 -7506.5380 300.7984 -298.3685 -259.5977 30116.1953 4.8795 4.9390
ENERGY: 1700000 1.3534 3.7033 1.8917 0.0000 -10673.5491 1423.8250 0.0000 0.0000 1742.5400 -7500.2357 296.7968 -9242.7757 -7496.4592 299.8617 -31.1093 -11.9021 30679.9855 3.8654 3.9620
ENERGY: 1900000 0.5557 7.5342 1.3131 0.0000 -10684.6016 1419.0119 0.0000 0.0000 1712.6988 -7543.4879 291.7141 -9256.1867 -7542.5276 300.3382 -240.1064 -141.4422 30339.3567 2.7204 2.5823
TCL: Exiting due to exit command.
