Info: SIMULATION PARAMETERS:
Info: TIMESTEP               2
Info: NUMBER OF STEPS        0
Info: STEPS PER CYCLE        10
Info: PERIODIC CELL BASIS 1  36.592 0 0
Info: PERIODIC CELL BASIS 2  0 36.451 0
Info: PERIODIC CELL BASIS 3  0 0 34.229
Info: PERIODIC CELL CENTER   0 0 0
Info: WRAPPING WATERS AROUND PERIODIC BOUNDARIES ON OUTPUT.
Info: WRAPPING ALL CLUSTERS AROUND PERIODIC BOUNDARIES ON OUTPUT.
Info: FIRST LDB TIMESTEP     50
Info: LAST LDB TIMESTEP     -1
Info: HOM BACKGROUND SCALING 1
Info: PME BACKGROUND SCALING 1
Info: MIN ATOMS PER PATCH    40
Info: EMPTY PATCH LOAD       40 ATOMS
Info: INITIAL TEMPERATURE    300
Info: CENTER OF MASS MOVING INITIALLY? NO
Info: DIELECTRIC             1
Info: EXCLUDE                SCALED ONE-FOUR
Info: 1-4 ELECTROSTATICS SCALED BY 0.833333
Info: MODIFIED 1-4 VDW PARAMETERS WILL BE USED
Info: DCD FILENAME           mobley_8492526_equil.dcd
Info: DCD FREQUENCY          100000
Info: DCD FIRST STEP         100000
Info: DCD FILE WILL CONTAIN UNIT CELL DATA
Info: XST FILENAME           mobley_8492526_equil.xst
Info: XST FREQUENCY          100000
Info: NO VELOCITY DCD OUTPUT
Info: NO FORCE DCD OUTPUT
Info: OUTPUT FILENAME        mobley_8492526_equil
Info: BINARY OUTPUT FILES WILL BE USED
Info: RESTART FILENAME       mobley_8492526_equil.restart
Info: RESTART FREQUENCY      100000
Info: BINARY RESTART FILES WILL BE USED
Info: CUTOFF                 9
Info: PAIRLIST DISTANCE      11
Info: PAIRLIST SHRINK RATE   0.01
Info: PAIRLIST GROW RATE     0.01
Info: PAIRLIST TRIGGER       0.3
Info: PAIRLISTS PER CYCLE    2
Info: PAIRLISTS ENABLED
Info: MARGIN                 8
Info: HYDROGEN GROUP CUTOFF  2.5
Info: PATCH DIMENSION        21.5
Info: ENERGY OUTPUT STEPS    100000
Info: ENERGY EVALUATION STEPS    100000
Info: OUTPUT ENERGY PRECISION 4
Info: CROSSTERM ENERGY INCLUDED IN DIHEDRAL
Info: TIMING OUTPUT STEPS    1000000
Info: PRESSURE OUTPUT STEPS  100000
Info: LANGEVIN DYNAMICS ACTIVE
Info: LANGEVIN TEMPERATURE   30
Info: LANGEVIN USING BBK INTEGRATOR
Info: LANGEVIN DAMPING COEFFICIENT IS 1 INVERSE PS
Info: LANGEVIN DYNAMICS APPLIED TO HYDROGENS
Info: LANGEVIN PISTON PRESSURE CONTROL ACTIVE
Info:        TARGET PRESSURE IS 1.01325 BAR
Info:     OSCILLATION PERIOD IS 50 FS
Info:             DECAY TIME IS 25 FS
Info:     PISTON TEMPERATURE IS 300 K
Info:       PRESSURE CONTROL IS GROUP-BASED
Info:    INITIAL STRAIN RATE IS 0 0 0
Info:       CELL FLUCTUATION IS ISOTROPIC
Info: PARTICLE MESH EWALD (PME) ACTIVE
Info: PME TOLERANCE               1e-06
Info: PME EWALD COEFFICIENT       0.348832
Info: PME INTERPOLATION ORDER     4
Info: PME GRID DIMENSIONS         40 40 36
Info: PME MAXIMUM GRID SPACING    1
Info: FULL ELECTROSTATIC EVALUATION FREQUENCY      2
Info: USING VERLET I (r-RESPA) MTS SCHEME.
Info: C1 SPLITTING OF LONG RANGE ELECTROSTATICS
Info: PLACING ATOMS IN PATCHES BY HYDROGEN GROUPS
Info: RIGID BONDS TO HYDROGEN : ALL
Info:         ERROR TOLERANCE : 1e-08
Info:          MAX ITERATIONS : 100
Info: RIGID WATER USING SETTLE ALGORITHM
Info: RANDOM NUMBER SEED     1743248403
Info: USE HYDROGEN BONDS?    NO
Info: Using AMBER format force field!
Info: AMBER PARM FILE        mobley_8492526.prmtop
Info: COORDINATE PDB         mobley_8492526.pdb
Info: Exclusions will be read from PARM file!
Info: SCNB (VDW SCALING)     2
Info: USING ARITHMETIC MEAN TO COMBINE L-J SIGMA PARAMETERS
Info: BINARY COORDINATES     mobley_8492526_min.coor
Info: SUMMARY OF PARAMETERS:
Info: 7 BONDS
Info: 8 ANGLES
Info:   8 HARMONIC
Info:   0 COSINE-BASED
Info: 11 DIHEDRAL
Info: 0 IMPROPER
Info: 0 CROSSTERM
Info: 0 VDW
Info: 28 VDW_PAIRS
Info: 0 NBTHOLE_PAIRS
Info: STRUCTURE SUMMARY:
Info: 2956 ATOMS
Info: 2955 BONDS
Info: 27 ANGLES
Info: 40 DIHEDRALS
Info: 0 IMPROPERS
Info: 0 CROSSTERMS
Info: 3015 EXCLUSIONS
Info: 2950 RIGID BONDS
Info: 5918 DEGREES OF FREEDOM
Info: 986 HYDROGEN GROUPS
Info: 4 ATOMS IN LARGEST HYDROGEN GROUP
Info: 986 MIGRATION GROUPS
Info: 4 ATOMS IN LARGEST MIGRATION GROUP
Info: TOTAL MASS = 17741.8 amu
Info: TOTAL CHARGE = 9.9929e-05 e
Info: MASS DENSITY = 0.645308 g/cm^3
Info: ATOM DENSITY = 0.0647463 atoms/A^3
Info: ADDED 0 IMPLICIT EXCLUSIONS
Info: NONBONDED TABLE R-SQUARED SPACING: 0.0625
Info: NONBONDED TABLE SIZE: 705 POINTS
Info: REMOVING COM VELOCITY 0.072493 -0.098795 0.104299
TCL: Running for 100000 steps
ETITLE: TS BOND ANGLE DIHED IMPRP ELECT VDW BOUNDARY MISC KINETIC TOTAL TEMP POTENTIAL TOTAL3 TEMPAVG PRESSURE GPRESSURE VOLUME PRESSAVG GPRESSAVG
ENERGY: 0 0.1035 0.2829 1.3130 0.0000 -13642.2281 2408.7732 0.0000 0.0000 1748.1406 -9483.6148 297.2979 -11231.7554 -9483.2682 297.2979 422.6561 463.3994 45655.1534 422.6561 463.3994
ENERGY: 100000 0.5012 1.3170 1.3927 0.0000 -14200.9005 2458.7282 0.0000 0.0000 173.6636 -11565.2978 29.5341 -11738.9614 -11564.9383 30.7978 -313.4511 -276.6246 29526.1550 4.6015 4.5793
TCL: Running 100000 steps at 60 kelvin.
TCL: Setting parameter langevinTemp to 60
TCL: Running for 100000 steps
ETITLE: TS BOND ANGLE DIHED IMPRP ELECT VDW BOUNDARY MISC KINETIC TOTAL TEMP POTENTIAL TOTAL3 TEMPAVG PRESSURE GPRESSURE VOLUME PRESSAVG GPRESSAVG
ENERGY: 100000 0.5012 1.3170 1.3927 0.0000 -14200.9005 2458.7282 0.0000 0.0000 173.5773 -11565.3841 29.5195 -11738.9614 -11565.0529 29.5195 -320.6230 -276.5780 29526.1550 -320.6230 -276.5780
ENERGY: 200000 1.2066 1.3217 2.1227 0.0000 -14132.8493 2433.0816 0.0000 0.0000 364.8175 -11330.2993 62.0427 -11695.1167 -11329.1074 59.9422 -90.9219 -54.5013 29114.0809 4.1288 4.1337
TCL: Running 100000 steps at 90 kelvin.
TCL: Setting parameter langevinTemp to 90
TCL: Running for 100000 steps
ETITLE: TS BOND ANGLE DIHED IMPRP ELECT VDW BOUNDARY MISC KINETIC TOTAL TEMP POTENTIAL TOTAL3 TEMPAVG PRESSURE GPRESSURE VOLUME PRESSAVG GPRESSAVG
ENERGY: 200000 1.2066 1.3217 2.1227 0.0000 -14132.8493 2433.0816 0.0000 0.0000 364.6426 -11330.4741 62.0130 -11695.1167 -11329.6738 62.0130 -111.3470 -54.3947 29114.0809 -111.3470 -54.3947
ENERGY: 300000 0.3885 1.6184 2.5366 0.0000 -13900.8043 2307.7243 0.0000 0.0000 530.9406 -11057.5959 90.2945 -11588.5365 -11056.7224 89.9762 -394.0227 -349.9777 28606.8833 2.7620 2.7034
TCL: Running 100000 steps at 120 kelvin.
TCL: Setting parameter langevinTemp to 120
TCL: Running for 100000 steps
ETITLE: TS BOND ANGLE DIHED IMPRP ELECT VDW BOUNDARY MISC KINETIC TOTAL TEMP POTENTIAL TOTAL3 TEMPAVG PRESSURE GPRESSURE VOLUME PRESSAVG GPRESSAVG
ENERGY: 300000 0.3885 1.6184 2.5366 0.0000 -13900.8043 2307.7243 0.0000 0.0000 530.6737 -11057.8628 90.2491 -11588.5365 -11056.6415 90.2491 -420.2162 -350.5911 28606.8833 -420.2162 -350.5911
ENERGY: 400000 2.4118 2.7585 3.4623 0.0000 -13860.8637 2380.7687 0.0000 0.0000 710.8128 -10760.6497 120.8845 -11471.4625 -10758.8694 120.0558 60.9384 121.0460 29025.1591 4.7705 4.8455
TCL: Running 100000 steps at 150 kelvin.
TCL: Setting parameter langevinTemp to 150
TCL: Running for 100000 steps
ETITLE: TS BOND ANGLE DIHED IMPRP ELECT VDW BOUNDARY MISC KINETIC TOTAL TEMP POTENTIAL TOTAL3 TEMPAVG PRESSURE GPRESSURE VOLUME PRESSAVG GPRESSAVG
ENERGY: 400000 2.4118 2.7585 3.4623 0.0000 -13860.8637 2380.7687 0.0000 0.0000 710.4575 -10761.0050 120.8241 -11471.4625 -10759.5013 120.8241 55.7500 120.8752 29025.1591 55.7500 120.8752
ENERGY: 500000 1.4072 2.1318 2.1845 0.0000 -13703.7416 2378.7961 0.0000 0.0000 898.7335 -10420.4885 152.8433 -11319.2220 -10417.7870 150.1177 964.0344 970.8600 28937.1742 4.8771 4.9380
TCL: Running 100000 steps at 180 kelvin.
TCL: Setting parameter langevinTemp to 180
TCL: Running for 100000 steps
ETITLE: TS BOND ANGLE DIHED IMPRP ELECT VDW BOUNDARY MISC KINETIC TOTAL TEMP POTENTIAL TOTAL3 TEMPAVG PRESSURE GPRESSURE VOLUME PRESSAVG GPRESSAVG
ENERGY: 500000 1.4072 2.1318 2.1845 0.0000 -13703.7416 2378.7961 0.0000 0.0000 898.2842 -10420.9378 152.7669 -11319.2220 -10419.1822 152.7669 909.8764 970.7598 28937.1742 909.8764 970.7598
ENERGY: 600000 1.1376 5.8307 1.6163 0.0000 -13146.1769 2146.1088 0.0000 0.0000 1054.4807 -9937.0028 179.3305 -10991.4835 -9935.4467 179.8312 85.1744 163.5092 28993.9493 4.1812 4.0404
TCL: Running 100000 steps at 210 kelvin.
TCL: Setting parameter langevinTemp to 210
TCL: Running for 100000 steps
ETITLE: TS BOND ANGLE DIHED IMPRP ELECT VDW BOUNDARY MISC KINETIC TOTAL TEMP POTENTIAL TOTAL3 TEMPAVG PRESSURE GPRESSURE VOLUME PRESSAVG GPRESSAVG
ENERGY: 600000 1.1376 5.8307 1.6163 0.0000 -13146.1769 2146.1088 0.0000 0.0000 1053.9421 -9937.5414 179.2389 -10991.4835 -9935.8195 179.2389 106.2696 163.3920 28993.9493 106.2696 163.3920
ENERGY: 700000 0.6681 4.0247 2.8366 0.0000 -12551.2019 1931.4519 0.0000 0.0000 1232.8805 -9379.3401 209.6700 -10612.2206 -9377.5087 209.9737 5.3643 106.1223 28574.0907 3.0252 3.0909
TCL: Running 100000 steps at 240 kelvin.
TCL: Setting parameter langevinTemp to 240
TCL: Running for 100000 steps
ETITLE: TS BOND ANGLE DIHED IMPRP ELECT VDW BOUNDARY MISC KINETIC TOTAL TEMP POTENTIAL TOTAL3 TEMPAVG PRESSURE GPRESSURE VOLUME PRESSAVG GPRESSAVG
ENERGY: 700000 0.6681 4.0247 2.8366 0.0000 -12551.2019 1931.4519 0.0000 0.0000 1232.2693 -9379.9513 209.5661 -10612.2206 -9378.0399 209.5661 40.9246 106.4860 28574.0907 40.9246 106.4860
ENERGY: 800000 1.2367 5.7585 3.8288 0.0000 -11853.0847 1627.5870 0.0000 0.0000 1431.2040 -8783.4697 243.3980 -10214.6737 -8779.2611 240.2247 -876.4193 -793.0441 28860.2101 3.6860 3.7639
TCL: Running 100000 steps at 270 kelvin.
TCL: Setting parameter langevinTemp to 270
TCL: Running for 100000 steps
ETITLE: TS BOND ANGLE DIHED IMPRP ELECT VDW BOUNDARY MISC KINETIC TOTAL TEMP POTENTIAL TOTAL3 TEMPAVG PRESSURE GPRESSURE VOLUME PRESSAVG GPRESSAVG
ENERGY: 800000 1.2367 5.7585 3.8288 0.0000 -11853.0847 1627.5870 0.0000 0.0000 1430.4698 -8784.2039 243.2731 -10214.6737 -8781.8286 243.2731 -863.8124 -792.2744 28860.2101 -863.8124 -792.2744
ENERGY: 900000 0.9787 3.9632 2.3006 0.0000 -11238.0658 1548.9663 0.0000 0.0000 1606.3209 -8075.5361 273.1793 -9681.8570 -8072.8585 270.2864 -163.0522 -83.5427 29575.3484 3.0260 3.1485
TCL: Running 1000000 steps at 300 kelvin.
TCL: Setting parameter langevinTemp to 300
TCL: Running for 1000000 steps
ETITLE: TS BOND ANGLE DIHED IMPRP ELECT VDW BOUNDARY MISC KINETIC TOTAL TEMP POTENTIAL TOTAL3 TEMPAVG PRESSURE GPRESSURE VOLUME PRESSAVG GPRESSAVG
ENERGY: 900000 0.9787 3.9632 2.3006 0.0000 -11238.0658 1548.9663 0.0000 0.0000 1605.5211 -8076.3358 273.0432 -9681.8570 -8073.1426 273.0432 -157.0159 -83.6349 29575.3484 -157.0159 -83.6349
ENERGY: 1100000 1.7245 4.3776 3.5467 0.0000 -10709.5327 1424.3290 0.0000 0.0000 1709.1443 -7566.4105 290.6659 -9275.5548 -7562.9644 299.9915 -392.4506 -279.2506 30691.6777 3.3236 3.2235
ENERGY: 1300000 1.7039 5.1993 2.8029 0.0000 -10758.0865 1422.2964 0.0000 0.0000 1777.6708 -7548.4132 302.3199 -9326.0840 -7543.4726 299.6932 -305.9294 -238.5875 30602.6021 3.6797 3.5174
ENERGY: 1500000 0.8355 10.8457 3.6750 0.0000 -10742.0082 1476.8308 0.0000 0.0000 1757.0135 -7492.8077 298.8068 -9249.8212 -7490.9177 300.3356 446.3640 557.9838 30180.7420 3.2982 3.2413
ENERGY: 1700000 1.4846 8.3570 4.1347 0.0000 -10536.7536 1333.2056 0.0000 0.0000 1729.5370 -7460.0348 294.1340 -9189.5718 -7455.1878 300.8294 -643.5427 -568.4083 30426.3549 3.0842 3.0580
ENERGY: 1900000 0.4606 2.0501 2.6823 0.0000 -10740.3628 1431.1165 0.0000 0.0000 1723.6601 -7580.3932 293.1346 -9304.0533 -7575.1558 300.1045 -269.9524 -221.9477 30431.9705 3.2085 3.1658
TCL: Exiting due to exit command.
