Info: SIMULATION PARAMETERS:
Info: TIMESTEP               2
Info: NUMBER OF STEPS        0
Info: STEPS PER CYCLE        10
Info: PERIODIC CELL BASIS 1  33.998 0 0
Info: PERIODIC CELL BASIS 2  0 32.862 0
Info: PERIODIC CELL BASIS 3  0 0 39.271
Info: PERIODIC CELL CENTER   0 0 0
Info: WRAPPING WATERS AROUND PERIODIC BOUNDARIES ON OUTPUT.
Info: WRAPPING ALL CLUSTERS AROUND PERIODIC BOUNDARIES ON OUTPUT.
Info: FIRST LDB TIMESTEP     50
Info: LAST LDB TIMESTEP     -1
Info: HOM BACKGROUND SCALING 1
Info: PME BACKGROUND SCALING 1
Info: MIN ATOMS PER PATCH    40
Info: EMPTY PATCH LOAD       40 ATOMS
Info: INITIAL TEMPERATURE    300
Info: CENTER OF MASS MOVING INITIALLY? NO
Info: DIELECTRIC             1
Info: EXCLUDE                SCALED ONE-FOUR
Info: 1-4 ELECTROSTATICS SCALED BY 0.833333
Info: MODIFIED 1-4 VDW PARAMETERS WILL BE USED
Info: DCD FILENAME           mobley_1743409_equil.dcd
Info: DCD FREQUENCY          100000
Info: DCD FIRST STEP         100000
Info: DCD FILE WILL CONTAIN UNIT CELL DATA
Info: XST FILENAME           mobley_1743409_equil.xst
Info: XST FREQUENCY          100000
Info: NO VELOCITY DCD OUTPUT
Info: NO FORCE DCD OUTPUT
Info: OUTPUT FILENAME        mobley_1743409_equil
Info: BINARY OUTPUT FILES WILL BE USED
Info: RESTART FILENAME       mobley_1743409_equil.restart
Info: RESTART FREQUENCY      100000
Info: BINARY RESTART FILES WILL BE USED
Info: CUTOFF                 9
Info: PAIRLIST DISTANCE      11
Info: PAIRLIST SHRINK RATE   0.01
Info: PAIRLIST GROW RATE     0.01
Info: PAIRLIST TRIGGER       0.3
Info: PAIRLISTS PER CYCLE    2
Info: PAIRLISTS ENABLED
Info: MARGIN                 8
Info: HYDROGEN GROUP CUTOFF  2.5
Info: PATCH DIMENSION        21.5
Info: ENERGY OUTPUT STEPS    100000
Info: ENERGY EVALUATION STEPS    100000
Info: OUTPUT ENERGY PRECISION 4
Info: CROSSTERM ENERGY INCLUDED IN DIHEDRAL
Info: TIMING OUTPUT STEPS    1000000
Info: PRESSURE OUTPUT STEPS  100000
Info: LANGEVIN DYNAMICS ACTIVE
Info: LANGEVIN TEMPERATURE   30
Info: LANGEVIN USING BBK INTEGRATOR
Info: LANGEVIN DAMPING COEFFICIENT IS 1 INVERSE PS
Info: LANGEVIN DYNAMICS APPLIED TO HYDROGENS
Info: LANGEVIN PISTON PRESSURE CONTROL ACTIVE
Info:        TARGET PRESSURE IS 1.01325 BAR
Info:     OSCILLATION PERIOD IS 50 FS
Info:             DECAY TIME IS 25 FS
Info:     PISTON TEMPERATURE IS 300 K
Info:       PRESSURE CONTROL IS GROUP-BASED
Info:    INITIAL STRAIN RATE IS 0 0 0
Info:       CELL FLUCTUATION IS ISOTROPIC
Info: PARTICLE MESH EWALD (PME) ACTIVE
Info: PME TOLERANCE               1e-06
Info: PME EWALD COEFFICIENT       0.348832
Info: PME INTERPOLATION ORDER     4
Info: PME GRID DIMENSIONS         36 36 40
Info: PME MAXIMUM GRID SPACING    1
Info: FULL ELECTROSTATIC EVALUATION FREQUENCY      2
Info: USING VERLET I (r-RESPA) MTS SCHEME.
Info: C1 SPLITTING OF LONG RANGE ELECTROSTATICS
Info: PLACING ATOMS IN PATCHES BY HYDROGEN GROUPS
Info: RIGID BONDS TO HYDROGEN : ALL
Info:         ERROR TOLERANCE : 1e-08
Info:          MAX ITERATIONS : 100
Info: RIGID WATER USING SETTLE ALGORITHM
Info: RANDOM NUMBER SEED     1743259588
Info: USE HYDROGEN BONDS?    NO
Info: Using AMBER format force field!
Info: AMBER PARM FILE        mobley_1743409.prmtop
Info: COORDINATE PDB         mobley_1743409.pdb
Info: Exclusions will be read from PARM file!
Info: SCNB (VDW SCALING)     2
Info: USING ARITHMETIC MEAN TO COMBINE L-J SIGMA PARAMETERS
Info: BINARY COORDINATES     mobley_1743409_min.coor
Info: SUMMARY OF PARAMETERS:
Info: 9 BONDS
Info: 12 ANGLES
Info:   12 HARMONIC
Info:   0 COSINE-BASED
Info: 16 DIHEDRAL
Info: 0 IMPROPER
Info: 0 CROSSTERM
Info: 0 VDW
Info: 36 VDW_PAIRS
Info: 0 NBTHOLE_PAIRS
Info: STRUCTURE SUMMARY:
Info: 2987 ATOMS
Info: 2986 BONDS
Info: 44 ANGLES
Info: 73 DIHEDRALS
Info: 0 IMPROPERS
Info: 0 CROSSTERMS
Info: 3079 EXCLUSIONS
Info: 2975 RIGID BONDS
Info: 5986 DEGREES OF FREEDOM
Info: 999 HYDROGEN GROUPS
Info: 4 ATOMS IN LARGEST HYDROGEN GROUP
Info: 999 MIGRATION GROUPS
Info: 4 ATOMS IN LARGEST MIGRATION GROUP
Info: TOTAL MASS = 17956 amu
Info: TOTAL CHARGE = -9.99197e-05 e
Info: MASS DENSITY = 0.679593 g/cm^3
Info: ATOM DENSITY = 0.0680794 atoms/A^3
Info: ADDED 0 IMPLICIT EXCLUSIONS
Info: NONBONDED TABLE R-SQUARED SPACING: 0.0625
Info: NONBONDED TABLE SIZE: 705 POINTS
Info: REMOVING COM VELOCITY -0.141047 0.0997619 0.15313
TCL: Running for 100000 steps
ETITLE: TS BOND ANGLE DIHED IMPRP ELECT VDW BOUNDARY MISC KINETIC TOTAL TEMP POTENTIAL TOTAL3 TEMPAVG PRESSURE GPRESSURE VOLUME PRESSAVG GPRESSAVG
ENERGY: 0 0.1598 1.0551 6.3299 0.0000 -13811.0216 2446.8786 0.0000 0.0000 1782.5798 -9574.0184 299.7110 -11356.5982 -9573.6724 299.7110 689.7290 733.7326 43875.2214 689.7290 733.7326
ENERGY: 100000 0.8072 1.7786 7.4341 0.0000 -14283.2316 2353.5420 0.0000 0.0000 172.6295 -11747.0402 29.0248 -11919.6697 -11746.6829 30.8865 -979.3286 -918.8119 28391.0177 4.3337 4.3226
TCL: Running 100000 steps at 60 kelvin.
TCL: Setting parameter langevinTemp to 60
TCL: Running for 100000 steps
ETITLE: TS BOND ANGLE DIHED IMPRP ELECT VDW BOUNDARY MISC KINETIC TOTAL TEMP POTENTIAL TOTAL3 TEMPAVG PRESSURE GPRESSURE VOLUME PRESSAVG GPRESSAVG
ENERGY: 100000 0.8072 1.7786 7.4341 0.0000 -14283.2316 2353.5420 0.0000 0.0000 172.5368 -11747.1329 29.0092 -11919.6697 -11746.7486 29.0092 -971.2498 -918.9160 28391.0177 -971.2498 -918.9160
ENERGY: 200000 1.1392 3.3011 7.1319 0.0000 -14136.2761 2293.1947 0.0000 0.0000 352.0736 -11479.4356 59.1953 -11831.5093 -11478.2640 60.0043 -1206.3970 -1144.1563 28553.9603 3.0947 3.0817
TCL: Running 100000 steps at 90 kelvin.
TCL: Setting parameter langevinTemp to 90
TCL: Running for 100000 steps
ETITLE: TS BOND ANGLE DIHED IMPRP ELECT VDW BOUNDARY MISC KINETIC TOTAL TEMP POTENTIAL TOTAL3 TEMPAVG PRESSURE GPRESSURE VOLUME PRESSAVG GPRESSAVG
ENERGY: 200000 1.1392 3.3011 7.1319 0.0000 -14136.2761 2293.1947 0.0000 0.0000 351.8892 -11479.6200 59.1643 -11831.5093 -11478.7948 59.1643 -1195.6434 -1144.0057 28553.9603 -1195.6434 -1144.0057
ENERGY: 300000 3.1207 4.1945 7.9603 0.0000 -13863.8352 2136.3013 0.0000 0.0000 555.2111 -11157.0473 93.3495 -11712.2584 -11155.5948 89.9795 -2046.1739 -1995.9556 28810.7040 3.6935 3.6704
TCL: Running 100000 steps at 120 kelvin.
TCL: Setting parameter langevinTemp to 120
TCL: Running for 100000 steps
ETITLE: TS BOND ANGLE DIHED IMPRP ELECT VDW BOUNDARY MISC KINETIC TOTAL TEMP POTENTIAL TOTAL3 TEMPAVG PRESSURE GPRESSURE VOLUME PRESSAVG GPRESSAVG
ENERGY: 300000 3.1207 4.1945 7.9603 0.0000 -13863.8352 2136.3013 0.0000 0.0000 554.9577 -11157.3007 93.3069 -11712.2584 -11155.8078 93.3069 -2044.9585 -1996.2963 28810.7040 -2044.9585 -1996.2963
ENERGY: 400000 1.1523 7.5481 7.4143 0.0000 -13973.4603 2373.9239 0.0000 0.0000 717.0405 -10866.3812 120.5584 -11583.4218 -10864.7730 120.1689 286.2152 387.7964 28709.4886 5.0728 5.1704
TCL: Running 100000 steps at 150 kelvin.
TCL: Setting parameter langevinTemp to 150
TCL: Running for 100000 steps
ETITLE: TS BOND ANGLE DIHED IMPRP ELECT VDW BOUNDARY MISC KINETIC TOTAL TEMP POTENTIAL TOTAL3 TEMPAVG PRESSURE GPRESSURE VOLUME PRESSAVG GPRESSAVG
ENERGY: 400000 1.1523 7.5481 7.4143 0.0000 -13973.4603 2373.9239 0.0000 0.0000 716.7009 -10866.7209 120.5013 -11583.4218 -10865.1932 120.5013 323.7896 387.7089 28709.4886 323.7896 387.7089
ENERGY: 500000 1.2912 3.8999 7.8960 0.0000 -13719.4908 2298.1567 0.0000 0.0000 905.1721 -10503.0749 152.1895 -11408.2470 -10500.2108 150.1343 621.9266 674.6299 28829.8066 4.3007 4.2592
TCL: Running 100000 steps at 180 kelvin.
TCL: Setting parameter langevinTemp to 180
TCL: Running for 100000 steps
ETITLE: TS BOND ANGLE DIHED IMPRP ELECT VDW BOUNDARY MISC KINETIC TOTAL TEMP POTENTIAL TOTAL3 TEMPAVG PRESSURE GPRESSURE VOLUME PRESSAVG GPRESSAVG
ENERGY: 500000 1.2912 3.8999 7.8960 0.0000 -13719.4908 2298.1567 0.0000 0.0000 904.7275 -10503.5195 152.1148 -11408.2470 -10501.8658 152.1148 613.4753 674.7263 28829.8066 613.4753 674.7263
ENERGY: 600000 1.9348 6.4621 11.8568 0.0000 -13233.9137 2109.9774 0.0000 0.0000 1060.3293 -10043.3533 178.2766 -11103.6826 -10039.2060 180.0489 -142.0706 -88.1499 29107.4791 3.1005 3.0472
TCL: Running 100000 steps at 210 kelvin.
TCL: Setting parameter langevinTemp to 210
TCL: Running for 100000 steps
ETITLE: TS BOND ANGLE DIHED IMPRP ELECT VDW BOUNDARY MISC KINETIC TOTAL TEMP POTENTIAL TOTAL3 TEMPAVG PRESSURE GPRESSURE VOLUME PRESSAVG GPRESSAVG
ENERGY: 600000 1.9348 6.4621 11.8568 0.0000 -13233.9137 2109.9774 0.0000 0.0000 1059.7919 -10043.8908 178.1863 -11103.6826 -10041.9238 178.1863 -141.0310 -87.1112 29107.4791 -141.0310 -87.1112
ENERGY: 700000 3.2710 7.0526 7.7933 0.0000 -12543.0532 1875.1952 0.0000 0.0000 1235.5921 -9414.1491 207.7441 -10649.7412 -9411.1917 209.8677 -504.8710 -403.1647 29283.1129 3.6528 3.5180
TCL: Running 100000 steps at 240 kelvin.
TCL: Setting parameter langevinTemp to 240
TCL: Running for 100000 steps
ETITLE: TS BOND ANGLE DIHED IMPRP ELECT VDW BOUNDARY MISC KINETIC TOTAL TEMP POTENTIAL TOTAL3 TEMPAVG PRESSURE GPRESSURE VOLUME PRESSAVG GPRESSAVG
ENERGY: 700000 3.2710 7.0526 7.7933 0.0000 -12543.0532 1875.1952 0.0000 0.0000 1234.9362 -9414.8049 207.6339 -10649.7412 -9413.1706 207.6339 -467.3189 -401.7427 29283.1129 -467.3189 -401.7427
ENERGY: 800000 2.8785 7.7988 6.7475 0.0000 -12008.5282 1760.5114 0.0000 0.0000 1464.1297 -8766.4623 246.1689 -10230.5920 -8766.4483 239.8257 316.0265 441.0246 29102.3537 3.1931 3.0189
TCL: Running 100000 steps at 270 kelvin.
TCL: Setting parameter langevinTemp to 270
TCL: Running for 100000 steps
ETITLE: TS BOND ANGLE DIHED IMPRP ELECT VDW BOUNDARY MISC KINETIC TOTAL TEMP POTENTIAL TOTAL3 TEMPAVG PRESSURE GPRESSURE VOLUME PRESSAVG GPRESSAVG
ENERGY: 800000 2.8785 7.7988 6.7475 0.0000 -12008.5282 1760.5114 0.0000 0.0000 1463.4015 -8767.1904 246.0465 -10230.5920 -8764.3810 246.0465 353.2618 438.1387 29102.3537 353.2618 438.1387
ENERGY: 900000 3.5692 10.7349 10.7116 0.0000 -11448.4375 1683.0523 0.0000 0.0000 1682.1915 -8058.1781 282.8324 -9740.3695 -8056.0537 270.3258 823.5011 870.9531 29940.9580 2.9131 2.8692
TCL: Running 1000000 steps at 300 kelvin.
TCL: Setting parameter langevinTemp to 300
TCL: Running for 1000000 steps
ETITLE: TS BOND ANGLE DIHED IMPRP ELECT VDW BOUNDARY MISC KINETIC TOTAL TEMP POTENTIAL TOTAL3 TEMPAVG PRESSURE GPRESSURE VOLUME PRESSAVG GPRESSAVG
ENERGY: 900000 3.5692 10.7349 10.7116 0.0000 -11448.4375 1683.0523 0.0000 0.0000 1681.4134 -8058.9561 282.7015 -9740.3695 -8057.1510 282.7015 783.9988 871.3494 29940.9580 783.9988 871.3494
ENERGY: 1100000 1.7911 12.8636 9.5465 0.0000 -10948.1102 1493.1941 0.0000 0.0000 1734.5320 -7696.1829 291.6326 -9430.7149 -7691.9807 299.9363 285.1180 329.3000 30404.1648 2.3206 2.3812
ENERGY: 1300000 2.6625 12.6960 6.2160 0.0000 -10803.8814 1379.5816 0.0000 0.0000 1817.8020 -7584.9233 305.6330 -9402.7254 -7577.6531 300.9292 -573.1287 -420.0791 30473.6233 3.1034 3.1400
ENERGY: 1500000 2.1421 6.0431 10.3204 0.0000 -10940.3216 1524.5050 0.0000 0.0000 1822.1693 -7575.1418 306.3673 -9397.3111 -7572.2459 300.9805 563.3831 619.7042 30750.8029 2.3093 2.3412
ENERGY: 1700000 2.2478 10.3962 8.6587 0.0000 -10878.1807 1465.6721 0.0000 0.0000 1778.0717 -7613.1342 298.9530 -9391.2060 -7609.8556 300.2139 -13.3222 48.9551 31121.2662 3.6257 3.5075
ENERGY: 1900000 3.9417 13.0403 8.9645 0.0000 -10756.9177 1369.8812 0.0000 0.0000 1774.1784 -7586.9117 298.2984 -9361.0900 -7583.3276 299.8503 -672.6739 -583.5004 30820.6385 4.0992 4.1594
TCL: Exiting due to exit command.
