Info: SIMULATION PARAMETERS:
Info: TIMESTEP               2
Info: NUMBER OF STEPS        0
Info: STEPS PER CYCLE        10
Info: PERIODIC CELL BASIS 1  34.986 0 0
Info: PERIODIC CELL BASIS 2  0 37.796 0
Info: PERIODIC CELL BASIS 3  0 0 34.229
Info: PERIODIC CELL CENTER   0 0 0
Info: WRAPPING WATERS AROUND PERIODIC BOUNDARIES ON OUTPUT.
Info: WRAPPING ALL CLUSTERS AROUND PERIODIC BOUNDARIES ON OUTPUT.
Info: FIRST LDB TIMESTEP     50
Info: LAST LDB TIMESTEP     -1
Info: HOM BACKGROUND SCALING 1
Info: PME BACKGROUND SCALING 1
Info: MIN ATOMS PER PATCH    40
Info: EMPTY PATCH LOAD       40 ATOMS
Info: INITIAL TEMPERATURE    300
Info: CENTER OF MASS MOVING INITIALLY? NO
Info: DIELECTRIC             1
Info: EXCLUDE                SCALED ONE-FOUR
Info: 1-4 ELECTROSTATICS SCALED BY 0.833333
Info: MODIFIED 1-4 VDW PARAMETERS WILL BE USED
Info: DCD FILENAME           mobley_5220185_equil.dcd
Info: DCD FREQUENCY          100000
Info: DCD FIRST STEP         100000
Info: DCD FILE WILL CONTAIN UNIT CELL DATA
Info: XST FILENAME           mobley_5220185_equil.xst
Info: XST FREQUENCY          100000
Info: NO VELOCITY DCD OUTPUT
Info: NO FORCE DCD OUTPUT
Info: OUTPUT FILENAME        mobley_5220185_equil
Info: BINARY OUTPUT FILES WILL BE USED
Info: RESTART FILENAME       mobley_5220185_equil.restart
Info: RESTART FREQUENCY      100000
Info: BINARY RESTART FILES WILL BE USED
Info: CUTOFF                 9
Info: PAIRLIST DISTANCE      11
Info: PAIRLIST SHRINK RATE   0.01
Info: PAIRLIST GROW RATE     0.01
Info: PAIRLIST TRIGGER       0.3
Info: PAIRLISTS PER CYCLE    2
Info: PAIRLISTS ENABLED
Info: MARGIN                 8
Info: HYDROGEN GROUP CUTOFF  2.5
Info: PATCH DIMENSION        21.5
Info: ENERGY OUTPUT STEPS    100000
Info: ENERGY EVALUATION STEPS    100000
Info: OUTPUT ENERGY PRECISION 4
Info: CROSSTERM ENERGY INCLUDED IN DIHEDRAL
Info: TIMING OUTPUT STEPS    1000000
Info: PRESSURE OUTPUT STEPS  100000
Info: LANGEVIN DYNAMICS ACTIVE
Info: LANGEVIN TEMPERATURE   30
Info: LANGEVIN USING BBK INTEGRATOR
Info: LANGEVIN DAMPING COEFFICIENT IS 1 INVERSE PS
Info: LANGEVIN DYNAMICS APPLIED TO HYDROGENS
Info: LANGEVIN PISTON PRESSURE CONTROL ACTIVE
Info:        TARGET PRESSURE IS 1.01325 BAR
Info:     OSCILLATION PERIOD IS 50 FS
Info:             DECAY TIME IS 25 FS
Info:     PISTON TEMPERATURE IS 300 K
Info:       PRESSURE CONTROL IS GROUP-BASED
Info:    INITIAL STRAIN RATE IS 0 0 0
Info:       CELL FLUCTUATION IS ISOTROPIC
Info: PARTICLE MESH EWALD (PME) ACTIVE
Info: PME TOLERANCE               1e-06
Info: PME EWALD COEFFICIENT       0.348832
Info: PME INTERPOLATION ORDER     4
Info: PME GRID DIMENSIONS         36 40 36
Info: PME MAXIMUM GRID SPACING    1
Info: FULL ELECTROSTATIC EVALUATION FREQUENCY      2
Info: USING VERLET I (r-RESPA) MTS SCHEME.
Info: C1 SPLITTING OF LONG RANGE ELECTROSTATICS
Info: PLACING ATOMS IN PATCHES BY HYDROGEN GROUPS
Info: RIGID BONDS TO HYDROGEN : ALL
Info:         ERROR TOLERANCE : 1e-08
Info:          MAX ITERATIONS : 100
Info: RIGID WATER USING SETTLE ALGORITHM
Info: RANDOM NUMBER SEED     1743229888
Info: USE HYDROGEN BONDS?    NO
Info: Using AMBER format force field!
Info: AMBER PARM FILE        mobley_5220185.prmtop
Info: COORDINATE PDB         mobley_5220185.pdb
Info: Exclusions will be read from PARM file!
Info: SCNB (VDW SCALING)     2
Info: USING ARITHMETIC MEAN TO COMBINE L-J SIGMA PARAMETERS
Info: BINARY COORDINATES     mobley_5220185_min.coor
Info: SUMMARY OF PARAMETERS:
Info: 8 BONDS
Info: 10 ANGLES
Info: 6 DIHEDRAL
Info: 0 IMPROPER
Info: 0 CROSSTERM
Info: 0 VDW
Info: 28 VDW_PAIRS
Info: 0 NBTHOLE_PAIRS
Info: STRUCTURE SUMMARY:
Info: 2914 ATOMS
Info: 2914 BONDS
Info: 26 ANGLES
Info: 35 DIHEDRALS
Info: 0 IMPROPERS
Info: 0 CROSSTERMS
Info: 2968 EXCLUSIONS
Info: 2906 RIGID BONDS
Info: 5836 DEGREES OF FREEDOM
Info: 974 HYDROGEN GROUPS
Info: 4 ATOMS IN LARGEST HYDROGEN GROUP
Info: 974 MIGRATION GROUPS
Info: 4 ATOMS IN LARGEST MIGRATION GROUP
Info: TOTAL MASS = 17511.6 amu
Info: TOTAL CHARGE = 0.000100043 e
Info: MASS DENSITY = 0.642467 g/cm^3
Info: ATOM DENSITY = 0.0643806 atoms/A^3
Info: ADDED 0 IMPLICIT EXCLUSIONS
Info: NONBONDED TABLE R-SQUARED SPACING: 0.0625
Info: NONBONDED TABLE SIZE: 705 POINTS
Info: REMOVING COM VELOCITY 0.0204635 -0.274161 0.0705572
TCL: Running for 100000 steps
ETITLE: TS BOND ANGLE DIHED IMPRP ELECT VDW BOUNDARY MISC KINETIC TOTAL TEMP POTENTIAL TOTAL3 TEMPAVG PRESSURE GPRESSURE VOLUME PRESSAVG GPRESSAVG
ENERGY: 0 1.0515 0.3384 0.0359 0.0000 -13392.5616 2381.9256 0.0000 0.0000 1742.2523 -9266.9578 300.4596 -11009.2101 -9266.5999 300.4596 471.5246 509.9936 45262.0629 471.5246 509.9936
ENERGY: 100000 2.6942 0.6173 0.2079 0.0000 -13751.5327 2224.8447 0.0000 0.0000 177.5798 -11345.5889 30.6245 -11523.1687 -11344.9729 31.0357 -2313.1668 -2256.2113 29217.4943 3.7806 3.7360
TCL: Running 100000 steps at 60 kelvin.
TCL: Setting parameter langevinTemp to 60
TCL: Running for 100000 steps
ETITLE: TS BOND ANGLE DIHED IMPRP ELECT VDW BOUNDARY MISC KINETIC TOTAL TEMP POTENTIAL TOTAL3 TEMPAVG PRESSURE GPRESSURE VOLUME PRESSAVG GPRESSAVG
ENERGY: 100000 2.6942 0.6173 0.2079 0.0000 -13751.5327 2224.8447 0.0000 0.0000 177.4901 -11345.6785 30.6090 -11523.1687 -11345.1218 30.6090 -2305.9177 -2256.1499 29217.4943 -2305.9177 -2256.1499
ENERGY: 200000 0.7193 2.1324 0.6212 0.0000 -14047.3179 2577.8663 0.0000 0.0000 349.5216 -11116.4571 60.2767 -11465.9787 -11116.0197 60.1089 1276.5049 1333.6247 28449.4596 4.8079 4.7547
TCL: Running 100000 steps at 90 kelvin.
TCL: Setting parameter langevinTemp to 90
TCL: Running for 100000 steps
ETITLE: TS BOND ANGLE DIHED IMPRP ELECT VDW BOUNDARY MISC KINETIC TOTAL TEMP POTENTIAL TOTAL3 TEMPAVG PRESSURE GPRESSURE VOLUME PRESSAVG GPRESSAVG
ENERGY: 200000 0.7193 2.1324 0.6212 0.0000 -14047.3179 2577.8663 0.0000 0.0000 349.3560 -11116.6228 60.2481 -11465.9787 -11116.0956 60.2481 1275.9191 1333.7246 28449.4596 1275.9191 1333.7246
ENERGY: 300000 2.8875 2.6974 0.3374 0.0000 -13727.5105 2347.6310 0.0000 0.0000 516.4120 -10857.5452 89.0577 -11373.9572 -10856.0617 89.9435 -328.0839 -267.5609 28652.2554 3.8931 4.1766
TCL: Running 100000 steps at 120 kelvin.
TCL: Setting parameter langevinTemp to 120
TCL: Running for 100000 steps
ETITLE: TS BOND ANGLE DIHED IMPRP ELECT VDW BOUNDARY MISC KINETIC TOTAL TEMP POTENTIAL TOTAL3 TEMPAVG PRESSURE GPRESSURE VOLUME PRESSAVG GPRESSAVG
ENERGY: 300000 2.8875 2.6974 0.3374 0.0000 -13727.5105 2347.6310 0.0000 0.0000 516.1448 -10857.8123 89.0116 -11373.9572 -10856.4506 89.0116 -329.1062 -267.8609 28652.2554 -329.1062 -267.8609
ENERGY: 400000 6.7296 2.6107 0.6778 0.0000 -13443.3102 2193.1808 0.0000 0.0000 705.8274 -10534.2838 121.7233 -11240.1112 -10533.3109 119.9460 -1115.0110 -1048.7341 28456.7828 2.9290 2.9417
TCL: Running 100000 steps at 150 kelvin.
TCL: Setting parameter langevinTemp to 150
TCL: Running for 100000 steps
ETITLE: TS BOND ANGLE DIHED IMPRP ELECT VDW BOUNDARY MISC KINETIC TOTAL TEMP POTENTIAL TOTAL3 TEMPAVG PRESSURE GPRESSURE VOLUME PRESSAVG GPRESSAVG
ENERGY: 400000 6.7296 2.6107 0.6778 0.0000 -13443.3102 2193.1808 0.0000 0.0000 705.4876 -10534.6236 121.6647 -11240.1112 -10533.0141 121.6647 -1107.3865 -1050.0083 28456.7828 -1107.3865 -1050.0083
ENERGY: 500000 1.6478 1.0504 1.2021 0.0000 -13342.6343 2230.7647 0.0000 0.0000 889.1249 -10218.8443 153.3338 -11107.9692 -10216.3101 149.9489 24.7614 61.5655 28463.3700 4.3348 4.4842
TCL: Running 100000 steps at 180 kelvin.
TCL: Setting parameter langevinTemp to 180
TCL: Running for 100000 steps
ETITLE: TS BOND ANGLE DIHED IMPRP ELECT VDW BOUNDARY MISC KINETIC TOTAL TEMP POTENTIAL TOTAL3 TEMPAVG PRESSURE GPRESSURE VOLUME PRESSAVG GPRESSAVG
ENERGY: 500000 1.6478 1.0504 1.2021 0.0000 -13342.6343 2230.7647 0.0000 0.0000 888.7077 -10219.2615 153.2619 -11107.9692 -10217.3622 153.2619 15.7931 61.1897 28463.3700 15.7931 61.1897
ENERGY: 600000 3.0281 3.5474 2.1875 0.0000 -12877.0471 2070.0174 0.0000 0.0000 1037.6064 -9760.6603 178.9401 -10798.2667 -9757.0772 180.2015 -285.1706 -245.3095 28500.3318 3.5551 3.5517
TCL: Running 100000 steps at 210 kelvin.
TCL: Setting parameter langevinTemp to 210
TCL: Running for 100000 steps
ETITLE: TS BOND ANGLE DIHED IMPRP ELECT VDW BOUNDARY MISC KINETIC TOTAL TEMP POTENTIAL TOTAL3 TEMPAVG PRESSURE GPRESSURE VOLUME PRESSAVG GPRESSAVG
ENERGY: 600000 3.0281 3.5474 2.1875 0.0000 -12877.0471 2070.0174 0.0000 0.0000 1037.0621 -9761.2046 178.8463 -10798.2667 -9759.3009 178.8463 -306.0741 -243.4235 28500.3318 -306.0741 -243.4235
ENERGY: 700000 1.7830 3.4261 2.1164 0.0000 -12313.4052 1955.4483 0.0000 0.0000 1213.3558 -9137.2756 209.2489 -10350.6314 -9132.9981 209.4670 567.4843 634.0068 28424.2404 5.5001 5.4442
TCL: Running 100000 steps at 240 kelvin.
TCL: Setting parameter langevinTemp to 240
TCL: Running for 100000 steps
ETITLE: TS BOND ANGLE DIHED IMPRP ELECT VDW BOUNDARY MISC KINETIC TOTAL TEMP POTENTIAL TOTAL3 TEMPAVG PRESSURE GPRESSURE VOLUME PRESSAVG GPRESSAVG
ENERGY: 700000 1.7830 3.4261 2.1164 0.0000 -12313.4052 1955.4483 0.0000 0.0000 1212.7415 -9137.8898 209.1430 -10350.6314 -9136.1720 209.1430 570.7044 636.6505 28424.2404 570.7044 636.6505
ENERGY: 800000 4.3747 4.8643 0.5135 0.0000 -11641.6683 1748.8318 0.0000 0.0000 1401.6018 -8481.4821 241.7129 -9883.0839 -8479.8531 239.8023 667.5117 757.6497 28444.8154 3.8944 3.8500
TCL: Running 100000 steps at 270 kelvin.
TCL: Setting parameter langevinTemp to 270
TCL: Running for 100000 steps
ETITLE: TS BOND ANGLE DIHED IMPRP ELECT VDW BOUNDARY MISC KINETIC TOTAL TEMP POTENTIAL TOTAL3 TEMPAVG PRESSURE GPRESSURE VOLUME PRESSAVG GPRESSAVG
ENERGY: 800000 4.3747 4.8643 0.5135 0.0000 -11641.6683 1748.8318 0.0000 0.0000 1400.8964 -8482.1876 241.5912 -9883.0839 -8479.9028 241.5912 668.6178 758.0591 28444.8154 668.6178 758.0591
ENERGY: 900000 2.9872 4.2543 1.8262 0.0000 -11045.4444 1537.4659 0.0000 0.0000 1519.1814 -7979.7294 261.9900 -9498.9108 -7976.6047 269.4973 -554.7894 -450.7924 29857.1818 4.3284 4.4213
TCL: Running 1000000 steps at 300 kelvin.
TCL: Setting parameter langevinTemp to 300
TCL: Running for 1000000 steps
ETITLE: TS BOND ANGLE DIHED IMPRP ELECT VDW BOUNDARY MISC KINETIC TOTAL TEMP POTENTIAL TOTAL3 TEMPAVG PRESSURE GPRESSURE VOLUME PRESSAVG GPRESSAVG
ENERGY: 900000 2.9872 4.2543 1.8262 0.0000 -11045.4444 1537.4659 0.0000 0.0000 1518.4487 -7980.4621 261.8636 -9498.9108 -7978.0317 261.8636 -538.5030 -450.5350 29857.1818 -538.5030 -450.5350
ENERGY: 1100000 2.5880 6.8683 5.6610 0.0000 -10565.1010 1482.3697 0.0000 0.0000 1762.9621 -7304.6519 304.0311 -9067.6140 -7298.9372 299.8661 315.3365 415.6471 30160.8436 2.6785 2.7610
ENERGY: 1300000 3.0718 7.6012 1.2053 0.0000 -10471.5042 1402.6197 0.0000 0.0000 1732.9447 -7324.0615 298.8545 -9057.0062 -7318.9939 300.3830 44.2561 95.6084 30021.1724 3.9073 3.8620
ENERGY: 1500000 3.2751 3.5173 2.1252 0.0000 -10577.0539 1443.5499 0.0000 0.0000 1688.6580 -7435.9284 291.2171 -9124.5864 -7432.7276 300.4893 162.7979 302.7425 29532.3508 4.6251 4.7094
ENERGY: 1700000 2.6672 5.5837 0.8039 0.0000 -10594.4222 1458.3051 0.0000 0.0000 1751.1626 -7375.8996 301.9963 -9127.0622 -7372.1878 299.8221 157.9178 237.0950 29776.5236 2.9513 3.0296
ENERGY: 1900000 4.1505 5.5918 2.1897 0.0000 -10446.6738 1415.5461 0.0000 0.0000 1691.6365 -7327.5592 291.7307 -9019.1958 -7324.5994 300.5279 101.5241 181.7979 30145.6777 2.1304 2.1725
TCL: Exiting due to exit command.
