Info: SIMULATION PARAMETERS:
Info: TIMESTEP               2
Info: NUMBER OF STEPS        0
Info: STEPS PER CYCLE        10
Info: PERIODIC CELL BASIS 1  35.01 0 0
Info: PERIODIC CELL BASIS 2  0 34.1 0
Info: PERIODIC CELL BASIS 3  0 0 36.199
Info: PERIODIC CELL CENTER   0 0 0
Info: WRAPPING WATERS AROUND PERIODIC BOUNDARIES ON OUTPUT.
Info: WRAPPING ALL CLUSTERS AROUND PERIODIC BOUNDARIES ON OUTPUT.
Info: FIRST LDB TIMESTEP     50
Info: LAST LDB TIMESTEP     -1
Info: HOM BACKGROUND SCALING 1
Info: PME BACKGROUND SCALING 1
Info: MIN ATOMS PER PATCH    40
Info: EMPTY PATCH LOAD       40 ATOMS
Info: INITIAL TEMPERATURE    300
Info: CENTER OF MASS MOVING INITIALLY? NO
Info: DIELECTRIC             1
Info: EXCLUDE                SCALED ONE-FOUR
Info: 1-4 ELECTROSTATICS SCALED BY 0.833333
Info: MODIFIED 1-4 VDW PARAMETERS WILL BE USED
Info: DCD FILENAME           mobley_9913368_equil.dcd
Info: DCD FREQUENCY          100000
Info: DCD FIRST STEP         100000
Info: DCD FILE WILL CONTAIN UNIT CELL DATA
Info: XST FILENAME           mobley_9913368_equil.xst
Info: XST FREQUENCY          100000
Info: NO VELOCITY DCD OUTPUT
Info: NO FORCE DCD OUTPUT
Info: OUTPUT FILENAME        mobley_9913368_equil
Info: BINARY OUTPUT FILES WILL BE USED
Info: RESTART FILENAME       mobley_9913368_equil.restart
Info: RESTART FREQUENCY      100000
Info: BINARY RESTART FILES WILL BE USED
Info: CUTOFF                 9
Info: PAIRLIST DISTANCE      11
Info: PAIRLIST SHRINK RATE   0.01
Info: PAIRLIST GROW RATE     0.01
Info: PAIRLIST TRIGGER       0.3
Info: PAIRLISTS PER CYCLE    2
Info: PAIRLISTS ENABLED
Info: MARGIN                 8
Info: HYDROGEN GROUP CUTOFF  2.5
Info: PATCH DIMENSION        21.5
Info: ENERGY OUTPUT STEPS    100000
Info: ENERGY EVALUATION STEPS    100000
Info: OUTPUT ENERGY PRECISION 4
Info: CROSSTERM ENERGY INCLUDED IN DIHEDRAL
Info: TIMING OUTPUT STEPS    1000000
Info: PRESSURE OUTPUT STEPS  100000
Info: LANGEVIN DYNAMICS ACTIVE
Info: LANGEVIN TEMPERATURE   30
Info: LANGEVIN USING BBK INTEGRATOR
Info: LANGEVIN DAMPING COEFFICIENT IS 1 INVERSE PS
Info: LANGEVIN DYNAMICS APPLIED TO HYDROGENS
Info: LANGEVIN PISTON PRESSURE CONTROL ACTIVE
Info:        TARGET PRESSURE IS 1.01325 BAR
Info:     OSCILLATION PERIOD IS 50 FS
Info:             DECAY TIME IS 25 FS
Info:     PISTON TEMPERATURE IS 300 K
Info:       PRESSURE CONTROL IS GROUP-BASED
Info:    INITIAL STRAIN RATE IS 0 0 0
Info:       CELL FLUCTUATION IS ISOTROPIC
Info: PARTICLE MESH EWALD (PME) ACTIVE
Info: PME TOLERANCE               1e-06
Info: PME EWALD COEFFICIENT       0.348832
Info: PME INTERPOLATION ORDER     4
Info: PME GRID DIMENSIONS         36 36 40
Info: PME MAXIMUM GRID SPACING    1
Info: FULL ELECTROSTATIC EVALUATION FREQUENCY      2
Info: USING VERLET I (r-RESPA) MTS SCHEME.
Info: C1 SPLITTING OF LONG RANGE ELECTROSTATICS
Info: PLACING ATOMS IN PATCHES BY HYDROGEN GROUPS
Info: RIGID BONDS TO HYDROGEN : ALL
Info:         ERROR TOLERANCE : 1e-08
Info:          MAX ITERATIONS : 100
Info: RIGID WATER USING SETTLE ALGORITHM
Info: RANDOM NUMBER SEED     1743156382
Info: USE HYDROGEN BONDS?    NO
Info: Using AMBER format force field!
Info: AMBER PARM FILE        mobley_9913368.prmtop
Info: COORDINATE PDB         mobley_9913368.pdb
Info: Exclusions will be read from PARM file!
Info: SCNB (VDW SCALING)     2
Info: USING ARITHMETIC MEAN TO COMBINE L-J SIGMA PARAMETERS
Info: BINARY COORDINATES     mobley_9913368_min.coor
Info: SUMMARY OF PARAMETERS:
Info: 5 BONDS
Info: 3 ANGLES
Info:   3 HARMONIC
Info:   0 COSINE-BASED
Info: 2 DIHEDRAL
Info: 0 IMPROPER
Info: 0 CROSSTERM
Info: 0 VDW
Info: 15 VDW_PAIRS
Info: 0 NBTHOLE_PAIRS
Info: STRUCTURE SUMMARY:
Info: 2907 ATOMS
Info: 2906 BONDS
Info: 6 ANGLES
Info: 6 DIHEDRALS
Info: 0 IMPROPERS
Info: 0 CROSSTERMS
Info: 2916 EXCLUSIONS
Info: 2903 RIGID BONDS
Info: 5818 DEGREES OF FREEDOM
Info: 971 HYDROGEN GROUPS
Info: 3 ATOMS IN LARGEST HYDROGEN GROUP
Info: 971 MIGRATION GROUPS
Info: 3 ATOMS IN LARGEST MIGRATION GROUP
Info: TOTAL MASS = 17518.4 amu
Info: TOTAL CHARGE = 0.000100002 e
Info: MASS DENSITY = 0.673148 g/cm^3
Info: ATOM DENSITY = 0.067267 atoms/A^3
Info: ADDED 0 IMPLICIT EXCLUSIONS
Info: NONBONDED TABLE R-SQUARED SPACING: 0.0625
Info: NONBONDED TABLE SIZE: 705 POINTS
Info: REMOVING COM VELOCITY -0.0291472 0.0536037 -0.132265
TCL: Running for 100000 steps
ETITLE: TS BOND ANGLE DIHED IMPRP ELECT VDW BOUNDARY MISC KINETIC TOTAL TEMP POTENTIAL TOTAL3 TEMPAVG PRESSURE GPRESSURE VOLUME PRESSAVG GPRESSAVG
ENERGY: 0 0.0001 0.0104 0.0050 0.0000 -13507.8916 2396.0093 0.0000 0.0000 1767.9043 -9343.9625 305.8267 -11111.8668 -9343.6114 305.8267 632.8834 664.3833 43215.8504 632.8834 664.3833
ENERGY: 100000 0.0920 0.2931 0.0810 0.0000 -14016.8081 2457.2971 0.0000 0.0000 176.2255 -11382.8194 30.4849 -11559.0449 -11382.3810 30.8711 95.9634 151.4235 29005.7995 4.3583 4.4123
TCL: Running 100000 steps at 60 kelvin.
TCL: Setting parameter langevinTemp to 60
TCL: Running for 100000 steps
ETITLE: TS BOND ANGLE DIHED IMPRP ELECT VDW BOUNDARY MISC KINETIC TOTAL TEMP POTENTIAL TOTAL3 TEMPAVG PRESSURE GPRESSURE VOLUME PRESSAVG GPRESSAVG
ENERGY: 100000 0.0920 0.2931 0.0810 0.0000 -14016.8081 2457.2971 0.0000 0.0000 176.1409 -11382.9040 30.4703 -11559.0449 -11382.5085 30.4703 106.6144 151.3874 29005.7995 106.6144 151.3874
ENERGY: 200000 0.9673 0.4223 0.0370 0.0000 -13930.0775 2370.4291 0.0000 0.0000 354.7904 -11203.4315 61.3746 -11558.2219 -11202.5641 60.0275 -648.8400 -607.4094 28392.8406 4.1468 4.1614
TCL: Running 100000 steps at 90 kelvin.
TCL: Setting parameter langevinTemp to 90
TCL: Running for 100000 steps
ETITLE: TS BOND ANGLE DIHED IMPRP ELECT VDW BOUNDARY MISC KINETIC TOTAL TEMP POTENTIAL TOTAL3 TEMPAVG PRESSURE GPRESSURE VOLUME PRESSAVG GPRESSAVG
ENERGY: 200000 0.9673 0.4223 0.0370 0.0000 -13930.0775 2370.4291 0.0000 0.0000 354.6189 -11203.6030 61.3449 -11558.2219 -11202.7873 61.3449 -648.6566 -607.5503 28392.8406 -648.6566 -607.5503
ENERGY: 300000 0.1775 0.5020 0.0855 0.0000 -13765.5429 2331.1535 0.0000 0.0000 524.1370 -10909.4872 90.6696 -11433.6243 -10907.8268 89.9277 -317.2534 -254.3697 28147.7007 4.2092 4.2193
TCL: Running 100000 steps at 120 kelvin.
TCL: Setting parameter langevinTemp to 120
TCL: Running for 100000 steps
ETITLE: TS BOND ANGLE DIHED IMPRP ELECT VDW BOUNDARY MISC KINETIC TOTAL TEMP POTENTIAL TOTAL3 TEMPAVG PRESSURE GPRESSURE VOLUME PRESSAVG GPRESSAVG
ENERGY: 300000 0.1775 0.5020 0.0855 0.0000 -13765.5429 2331.1535 0.0000 0.0000 523.8865 -10909.7377 90.6262 -11433.6243 -10908.7031 90.6262 -304.8290 -254.4739 28147.7007 -304.8290 -254.4739
ENERGY: 400000 0.1607 0.4646 0.4908 0.0000 -13699.5999 2378.0915 0.0000 0.0000 727.5419 -10592.8503 125.8562 -11320.3922 -10590.7493 119.7313 442.1598 513.1453 28412.5795 2.0591 2.0982
TCL: Running 100000 steps at 150 kelvin.
TCL: Setting parameter langevinTemp to 150
TCL: Running for 100000 steps
ETITLE: TS BOND ANGLE DIHED IMPRP ELECT VDW BOUNDARY MISC KINETIC TOTAL TEMP POTENTIAL TOTAL3 TEMPAVG PRESSURE GPRESSURE VOLUME PRESSAVG GPRESSAVG
ENERGY: 400000 0.1607 0.4646 0.4908 0.0000 -13699.5999 2378.0915 0.0000 0.0000 727.1828 -10593.2094 125.7941 -11320.3922 -10591.8633 125.7941 477.8867 513.7454 28412.5795 477.8867 513.7454
ENERGY: 500000 0.5282 0.6003 0.3566 0.0000 -13202.8394 2088.0207 0.0000 0.0000 862.6237 -10250.7100 149.2238 -11113.3337 -10247.6872 150.0345 -1048.5738 -980.9933 28619.4439 3.5518 3.6284
TCL: Running 100000 steps at 180 kelvin.
TCL: Setting parameter langevinTemp to 180
TCL: Running for 100000 steps
ETITLE: TS BOND ANGLE DIHED IMPRP ELECT VDW BOUNDARY MISC KINETIC TOTAL TEMP POTENTIAL TOTAL3 TEMPAVG PRESSURE GPRESSURE VOLUME PRESSAVG GPRESSAVG
ENERGY: 500000 0.5282 0.6003 0.3566 0.0000 -13202.8394 2088.0207 0.0000 0.0000 862.1896 -10251.1441 149.1487 -11113.3337 -10249.3268 149.1487 -1046.0617 -980.7355 28619.4439 -1046.0617 -980.7355
ENERGY: 600000 0.0825 0.3628 0.3357 0.0000 -12959.3709 2076.9152 0.0000 0.0000 1065.2979 -9816.3768 184.2840 -10881.6747 -9810.7907 179.7392 -110.7623 -77.8613 28284.5917 3.1436 3.1464
TCL: Running 100000 steps at 210 kelvin.
TCL: Setting parameter langevinTemp to 210
TCL: Running for 100000 steps
ETITLE: TS BOND ANGLE DIHED IMPRP ELECT VDW BOUNDARY MISC KINETIC TOTAL TEMP POTENTIAL TOTAL3 TEMPAVG PRESSURE GPRESSURE VOLUME PRESSAVG GPRESSAVG
ENERGY: 600000 0.0825 0.3628 0.3357 0.0000 -12959.3709 2076.9152 0.0000 0.0000 1064.7592 -9816.9155 184.1909 -10881.6747 -9814.9164 184.1909 -142.3522 -75.7991 28284.5917 -142.3522 -75.7991
ENERGY: 700000 0.2721 0.5459 0.1564 0.0000 -12378.1053 1927.6702 0.0000 0.0000 1240.5018 -9208.9588 214.5923 -10449.4606 -9206.2946 209.9236 315.7544 370.6024 28272.7129 2.0673 2.0462
TCL: Running 100000 steps at 240 kelvin.
TCL: Setting parameter langevinTemp to 240
TCL: Running for 100000 steps
ETITLE: TS BOND ANGLE DIHED IMPRP ELECT VDW BOUNDARY MISC KINETIC TOTAL TEMP POTENTIAL TOTAL3 TEMPAVG PRESSURE GPRESSURE VOLUME PRESSAVG GPRESSAVG
ENERGY: 700000 0.2721 0.5459 0.1564 0.0000 -12378.1053 1927.6702 0.0000 0.0000 1239.9292 -9209.5315 214.4932 -10449.4606 -9207.1897 214.4932 293.4098 369.7036 28272.7129 293.4098 369.7036
ENERGY: 800000 1.2902 2.3931 0.5422 0.0000 -11545.7609 1637.4400 0.0000 0.0000 1358.5569 -8545.5385 235.0144 -9904.0954 -8542.3795 240.0050 -326.0508 -275.8713 28788.7362 2.6051 2.6427
TCL: Running 100000 steps at 270 kelvin.
TCL: Setting parameter langevinTemp to 270
TCL: Running for 100000 steps
ETITLE: TS BOND ANGLE DIHED IMPRP ELECT VDW BOUNDARY MISC KINETIC TOTAL TEMP POTENTIAL TOTAL3 TEMPAVG PRESSURE GPRESSURE VOLUME PRESSAVG GPRESSAVG
ENERGY: 800000 1.2902 2.3931 0.5422 0.0000 -11545.7609 1637.4400 0.0000 0.0000 1357.8474 -8546.2480 234.8917 -9904.0954 -8544.0469 234.8917 -362.8607 -277.1992 28788.7362 -362.8607 -277.1992
ENERGY: 900000 0.5171 0.8382 2.7898 0.0000 -11122.2420 1553.4277 0.0000 0.0000 1551.4456 -8013.2236 268.3819 -9564.6692 -8008.2624 270.2694 -193.9267 -132.8497 29330.7433 3.5446 3.4540
TCL: Running 1000000 steps at 300 kelvin.
TCL: Setting parameter langevinTemp to 300
TCL: Running for 1000000 steps
ETITLE: TS BOND ANGLE DIHED IMPRP ELECT VDW BOUNDARY MISC KINETIC TOTAL TEMP POTENTIAL TOTAL3 TEMPAVG PRESSURE GPRESSURE VOLUME PRESSAVG GPRESSAVG
ENERGY: 900000 0.5171 0.8382 2.7898 0.0000 -11122.2420 1553.4277 0.0000 0.0000 1550.6708 -8013.9984 268.2479 -9564.6692 -8011.2727 268.2479 -216.9981 -132.2916 29330.7433 -216.9981 -132.2916
ENERGY: 1100000 0.2221 1.1174 2.0068 0.0000 -10610.6169 1406.5466 0.0000 0.0000 1726.1955 -7474.5286 298.6116 -9200.7241 -7472.8933 299.9737 -350.2395 -274.1673 30021.9613 3.2837 3.0423
ENERGY: 1300000 1.6001 3.1810 0.2618 0.0000 -10680.7064 1489.6549 0.0000 0.0000 1739.1948 -7446.8140 300.8603 -9186.0087 -7443.9399 300.1379 533.5556 570.1032 29724.6102 3.7221 3.6426
ENERGY: 1500000 2.0892 0.2382 1.0020 0.0000 -10593.0010 1384.8375 0.0000 0.0000 1765.9038 -7438.9304 305.4807 -9204.8342 -7433.1864 300.8434 -418.6317 -254.3909 29956.9534 5.3350 5.2306
ENERGY: 1700000 0.3458 3.1652 0.2678 0.0000 -10568.2858 1449.5435 0.0000 0.0000 1701.5484 -7413.4150 294.3479 -9114.9634 -7411.9183 300.5806 263.2671 307.1934 30185.2500 2.8559 2.7412
ENERGY: 1900000 0.2657 0.0942 1.0053 0.0000 -10503.7745 1395.2375 0.0000 0.0000 1775.6863 -7331.4855 307.1729 -9107.1718 -7326.8758 300.8707 -60.4072 17.5227 30080.8976 3.3687 3.4778
TCL: Exiting due to exit command.
