Info: SIMULATION PARAMETERS:
Info: TIMESTEP               2
Info: NUMBER OF STEPS        0
Info: STEPS PER CYCLE        10
Info: PERIODIC CELL BASIS 1  36.592 0 0
Info: PERIODIC CELL BASIS 2  0 34.26 0
Info: PERIODIC CELL BASIS 3  0 0 35.723
Info: PERIODIC CELL CENTER   0 0 0
Info: WRAPPING WATERS AROUND PERIODIC BOUNDARIES ON OUTPUT.
Info: WRAPPING ALL CLUSTERS AROUND PERIODIC BOUNDARIES ON OUTPUT.
Info: FIRST LDB TIMESTEP     50
Info: LAST LDB TIMESTEP     -1
Info: HOM BACKGROUND SCALING 1
Info: PME BACKGROUND SCALING 1
Info: MIN ATOMS PER PATCH    40
Info: EMPTY PATCH LOAD       40 ATOMS
Info: INITIAL TEMPERATURE    300
Info: CENTER OF MASS MOVING INITIALLY? NO
Info: DIELECTRIC             1
Info: EXCLUDE                SCALED ONE-FOUR
Info: 1-4 ELECTROSTATICS SCALED BY 0.833333
Info: MODIFIED 1-4 VDW PARAMETERS WILL BE USED
Info: DCD FILENAME           mobley_1079207_equil.dcd
Info: DCD FREQUENCY          100000
Info: DCD FIRST STEP         100000
Info: DCD FILE WILL CONTAIN UNIT CELL DATA
Info: XST FILENAME           mobley_1079207_equil.xst
Info: XST FREQUENCY          100000
Info: NO VELOCITY DCD OUTPUT
Info: NO FORCE DCD OUTPUT
Info: OUTPUT FILENAME        mobley_1079207_equil
Info: BINARY OUTPUT FILES WILL BE USED
Info: RESTART FILENAME       mobley_1079207_equil.restart
Info: RESTART FREQUENCY      100000
Info: BINARY RESTART FILES WILL BE USED
Info: CUTOFF                 9
Info: PAIRLIST DISTANCE      11
Info: PAIRLIST SHRINK RATE   0.01
Info: PAIRLIST GROW RATE     0.01
Info: PAIRLIST TRIGGER       0.3
Info: PAIRLISTS PER CYCLE    2
Info: PAIRLISTS ENABLED
Info: MARGIN                 8
Info: HYDROGEN GROUP CUTOFF  2.5
Info: PATCH DIMENSION        21.5
Info: ENERGY OUTPUT STEPS    100000
Info: ENERGY EVALUATION STEPS    100000
Info: OUTPUT ENERGY PRECISION 4
Info: CROSSTERM ENERGY INCLUDED IN DIHEDRAL
Info: TIMING OUTPUT STEPS    1000000
Info: PRESSURE OUTPUT STEPS  100000
Info: LANGEVIN DYNAMICS ACTIVE
Info: LANGEVIN TEMPERATURE   30
Info: LANGEVIN USING BBK INTEGRATOR
Info: LANGEVIN DAMPING COEFFICIENT IS 1 INVERSE PS
Info: LANGEVIN DYNAMICS APPLIED TO HYDROGENS
Info: LANGEVIN PISTON PRESSURE CONTROL ACTIVE
Info:        TARGET PRESSURE IS 1.01325 BAR
Info:     OSCILLATION PERIOD IS 50 FS
Info:             DECAY TIME IS 25 FS
Info:     PISTON TEMPERATURE IS 300 K
Info:       PRESSURE CONTROL IS GROUP-BASED
Info:    INITIAL STRAIN RATE IS 0 0 0
Info:       CELL FLUCTUATION IS ISOTROPIC
Info: PARTICLE MESH EWALD (PME) ACTIVE
Info: PME TOLERANCE               1e-06
Info: PME EWALD COEFFICIENT       0.348832
Info: PME INTERPOLATION ORDER     4
Info: PME GRID DIMENSIONS         40 36 36
Info: PME MAXIMUM GRID SPACING    1
Info: FULL ELECTROSTATIC EVALUATION FREQUENCY      2
Info: USING VERLET I (r-RESPA) MTS SCHEME.
Info: C1 SPLITTING OF LONG RANGE ELECTROSTATICS
Info: PLACING ATOMS IN PATCHES BY HYDROGEN GROUPS
Info: RIGID BONDS TO HYDROGEN : ALL
Info:         ERROR TOLERANCE : 1e-08
Info:          MAX ITERATIONS : 100
Info: RIGID WATER USING SETTLE ALGORITHM
Info: RANDOM NUMBER SEED     1743161861
Info: USE HYDROGEN BONDS?    NO
Info: Using AMBER format force field!
Info: AMBER PARM FILE        mobley_1079207.prmtop
Info: COORDINATE PDB         mobley_1079207.pdb
Info: Exclusions will be read from PARM file!
Info: SCNB (VDW SCALING)     2
Info: USING ARITHMETIC MEAN TO COMBINE L-J SIGMA PARAMETERS
Info: BINARY COORDINATES     mobley_1079207_min.coor
Info: SUMMARY OF PARAMETERS:
Info: 5 BONDS
Info: 3 ANGLES
Info:   3 HARMONIC
Info:   0 COSINE-BASED
Info: 2 DIHEDRAL
Info: 0 IMPROPER
Info: 0 CROSSTERM
Info: 0 VDW
Info: 15 VDW_PAIRS
Info: 0 NBTHOLE_PAIRS
Info: STRUCTURE SUMMARY:
Info: 2976 ATOMS
Info: 2976 BONDS
Info: 18 ANGLES
Info: 30 DIHEDRALS
Info: 0 IMPROPERS
Info: 0 CROSSTERMS
Info: 3015 EXCLUSIONS
Info: 2968 RIGID BONDS
Info: 5960 DEGREES OF FREEDOM
Info: 996 HYDROGEN GROUPS
Info: 3 ATOMS IN LARGEST HYDROGEN GROUP
Info: 996 MIGRATION GROUPS
Info: 3 ATOMS IN LARGEST MIGRATION GROUP
Info: TOTAL MASS = 17946.8 amu
Info: TOTAL CHARGE = 0.000199996 e
Info: MASS DENSITY = 0.665464 g/cm^3
Info: ATOM DENSITY = 0.0664525 atoms/A^3
Info: ADDED 0 IMPLICIT EXCLUSIONS
Info: NONBONDED TABLE R-SQUARED SPACING: 0.0625
Info: NONBONDED TABLE SIZE: 705 POINTS
Info: REMOVING COM VELOCITY -0.0428711 -0.159835 0.0965845
TCL: Running for 100000 steps
ETITLE: TS BOND ANGLE DIHED IMPRP ELECT VDW BOUNDARY MISC KINETIC TOTAL TEMP POTENTIAL TOTAL3 TEMPAVG PRESSURE GPRESSURE VOLUME PRESSAVG GPRESSAVG
ENERGY: 0 0.1373 0.0353 0.0019 0.0000 -13730.2532 2399.5747 0.0000 0.0000 1823.5332 -9506.9707 307.9341 -11330.5039 -9506.6106 307.9341 416.8442 451.2642 44783.8503 416.8442 451.2642
ENERGY: 100000 0.4545 0.4891 0.3463 0.0000 -14321.8650 2466.6366 0.0000 0.0000 183.7162 -11670.2223 31.0236 -11853.9385 -11669.8473 30.9484 -386.3869 -324.0163 29094.3054 4.4663 4.4652
TCL: Running 100000 steps at 60 kelvin.
TCL: Setting parameter langevinTemp to 60
TCL: Running for 100000 steps
ETITLE: TS BOND ANGLE DIHED IMPRP ELECT VDW BOUNDARY MISC KINETIC TOTAL TEMP POTENTIAL TOTAL3 TEMPAVG PRESSURE GPRESSURE VOLUME PRESSAVG GPRESSAVG
ENERGY: 100000 0.4545 0.4891 0.3463 0.0000 -14321.8650 2466.6366 0.0000 0.0000 183.6282 -11670.3103 31.0087 -11853.9385 -11669.9371 31.0087 -383.6756 -324.0288 29094.3054 -383.6756 -324.0288
ENERGY: 200000 0.9522 0.6832 0.6774 0.0000 -14272.6752 2465.4609 0.0000 0.0000 356.9290 -11447.9725 60.2734 -11804.9015 -11446.9721 60.1414 62.2121 91.1015 28424.5487 4.8664 4.8196
TCL: Running 100000 steps at 90 kelvin.
TCL: Setting parameter langevinTemp to 90
TCL: Running for 100000 steps
ETITLE: TS BOND ANGLE DIHED IMPRP ELECT VDW BOUNDARY MISC KINETIC TOTAL TEMP POTENTIAL TOTAL3 TEMPAVG PRESSURE GPRESSURE VOLUME PRESSAVG GPRESSAVG
ENERGY: 200000 0.9522 0.6832 0.6774 0.0000 -14272.6752 2465.4609 0.0000 0.0000 356.7559 -11448.1456 60.2442 -11804.9015 -11447.4049 60.2442 31.0981 91.4335 28424.5487 31.0981 91.4335
ENERGY: 300000 0.7348 0.2914 1.3724 0.0000 -14013.1343 2309.8166 0.0000 0.0000 502.4970 -11198.4221 84.8550 -11700.9191 -11196.6079 89.7698 -979.5372 -925.2206 28969.2123 4.2100 4.1836
TCL: Running 100000 steps at 120 kelvin.
TCL: Setting parameter langevinTemp to 120
TCL: Running for 100000 steps
ETITLE: TS BOND ANGLE DIHED IMPRP ELECT VDW BOUNDARY MISC KINETIC TOTAL TEMP POTENTIAL TOTAL3 TEMPAVG PRESSURE GPRESSURE VOLUME PRESSAVG GPRESSAVG
ENERGY: 300000 0.7348 0.2914 1.3724 0.0000 -14013.1343 2309.8166 0.0000 0.0000 502.2196 -11198.6995 84.8082 -11700.9191 -11197.6367 84.8082 -969.7505 -924.9127 28969.2123 -969.7505 -924.9127
ENERGY: 400000 1.8178 1.2035 1.0189 0.0000 -13857.6372 2305.9300 0.0000 0.0000 723.6534 -10824.0137 122.2010 -11547.6671 -10823.0632 119.7305 -412.4806 -327.2405 28942.4935 2.9822 2.9447
TCL: Running 100000 steps at 150 kelvin.
TCL: Setting parameter langevinTemp to 150
TCL: Running for 100000 steps
ETITLE: TS BOND ANGLE DIHED IMPRP ELECT VDW BOUNDARY MISC KINETIC TOTAL TEMP POTENTIAL TOTAL3 TEMPAVG PRESSURE GPRESSURE VOLUME PRESSAVG GPRESSAVG
ENERGY: 400000 1.8178 1.2035 1.0189 0.0000 -13857.6372 2305.9300 0.0000 0.0000 723.3121 -10824.3549 122.1434 -11547.6671 -10823.0423 122.1434 -387.1875 -327.4572 28942.4935 -387.1875 -327.4572
ENERGY: 500000 0.5299 1.3129 1.1336 0.0000 -13604.1731 2213.9323 0.0000 0.0000 878.6326 -10508.6318 148.3718 -11387.2644 -10507.2313 150.0053 -515.3745 -455.7188 29171.3896 3.8934 4.0093
TCL: Running 100000 steps at 180 kelvin.
TCL: Setting parameter langevinTemp to 180
TCL: Running for 100000 steps
ETITLE: TS BOND ANGLE DIHED IMPRP ELECT VDW BOUNDARY MISC KINETIC TOTAL TEMP POTENTIAL TOTAL3 TEMPAVG PRESSURE GPRESSURE VOLUME PRESSAVG GPRESSAVG
ENERGY: 500000 0.5299 1.3129 1.1336 0.0000 -13604.1731 2213.9323 0.0000 0.0000 878.1843 -10509.0801 148.2961 -11387.2644 -10507.3841 148.2961 -500.4821 -456.3753 29171.3896 -500.4821 -456.3753
ENERGY: 600000 0.5827 0.6324 1.0032 0.0000 -13347.3318 2211.5477 0.0000 0.0000 1067.2017 -10066.3641 180.2149 -11133.5658 -10063.4169 179.6590 419.2564 453.6666 29273.7484 4.4541 4.4991
TCL: Running 100000 steps at 210 kelvin.
TCL: Setting parameter langevinTemp to 210
TCL: Running for 100000 steps
ETITLE: TS BOND ANGLE DIHED IMPRP ELECT VDW BOUNDARY MISC KINETIC TOTAL TEMP POTENTIAL TOTAL3 TEMPAVG PRESSURE GPRESSURE VOLUME PRESSAVG GPRESSAVG
ENERGY: 600000 0.5827 0.6324 1.0032 0.0000 -13347.3318 2211.5477 0.0000 0.0000 1066.6957 -10066.8701 180.1294 -11133.5658 -10065.1515 180.1294 400.5392 456.0774 29273.7484 400.5392 456.0774
ENERGY: 700000 0.2140 2.1513 1.1089 0.0000 -12471.2889 1830.0102 0.0000 0.0000 1215.3312 -9422.4733 205.2290 -10637.8046 -9419.8206 209.4743 -458.9281 -357.2471 28665.8130 4.0055 3.8536
TCL: Running 100000 steps at 240 kelvin.
TCL: Setting parameter langevinTemp to 240
TCL: Running for 100000 steps
ETITLE: TS BOND ANGLE DIHED IMPRP ELECT VDW BOUNDARY MISC KINETIC TOTAL TEMP POTENTIAL TOTAL3 TEMPAVG PRESSURE GPRESSURE VOLUME PRESSAVG GPRESSAVG
ENERGY: 700000 0.2140 2.1513 1.1089 0.0000 -12471.2889 1830.0102 0.0000 0.0000 1214.7076 -9423.0970 205.1237 -10637.8046 -9420.5874 205.1237 -445.7647 -358.1126 28665.8130 -445.7647 -358.1126
ENERGY: 800000 4.4400 2.5960 2.2291 0.0000 -12125.7594 1849.7946 0.0000 0.0000 1461.7626 -8804.9371 246.8431 -10266.6997 -8801.5744 239.5168 626.7294 702.9402 29125.9730 4.0453 3.9951
TCL: Running 100000 steps at 270 kelvin.
TCL: Setting parameter langevinTemp to 270
TCL: Running for 100000 steps
ETITLE: TS BOND ANGLE DIHED IMPRP ELECT VDW BOUNDARY MISC KINETIC TOTAL TEMP POTENTIAL TOTAL3 TEMPAVG PRESSURE GPRESSURE VOLUME PRESSAVG GPRESSAVG
ENERGY: 800000 4.4400 2.5960 2.2291 0.0000 -12125.7594 1849.7946 0.0000 0.0000 1461.1198 -8805.5799 246.7345 -10266.6997 -8803.3106 246.7345 631.4533 704.4007 29125.9730 631.4533 704.4007
ENERGY: 900000 2.0056 1.9075 1.8691 0.0000 -11479.1052 1639.2083 0.0000 0.0000 1568.7785 -8265.3362 264.9145 -9834.1148 -8260.7634 270.0871 395.9149 469.9536 29774.1564 3.7238 3.6436
TCL: Running 1000000 steps at 300 kelvin.
TCL: Setting parameter langevinTemp to 300
TCL: Running for 1000000 steps
ETITLE: TS BOND ANGLE DIHED IMPRP ELECT VDW BOUNDARY MISC KINETIC TOTAL TEMP POTENTIAL TOTAL3 TEMPAVG PRESSURE GPRESSURE VOLUME PRESSAVG GPRESSAVG
ENERGY: 900000 2.0056 1.9075 1.8691 0.0000 -11479.1052 1639.2083 0.0000 0.0000 1567.9982 -8266.1166 264.7827 -9834.1148 -8263.5745 264.7827 397.4099 470.8469 29774.1564 397.4099 470.8469
ENERGY: 1100000 2.4558 1.4793 1.7152 0.0000 -10823.1311 1486.2043 0.0000 0.0000 1793.3776 -7537.8989 302.8418 -9331.2764 -7533.0820 300.4787 290.7591 349.2284 30713.6780 4.1172 4.0729
ENERGY: 1300000 2.4547 1.8479 1.6286 0.0000 -10780.7759 1476.1986 0.0000 0.0000 1753.3735 -7545.2726 296.0865 -9298.6461 -7538.2856 300.8613 369.7461 462.7488 30692.7572 3.6892 3.6120
ENERGY: 1500000 0.8692 3.6970 2.6691 0.0000 -10809.4211 1488.6426 0.0000 0.0000 1736.2571 -7577.2861 293.1961 -9313.5431 -7574.6764 300.8605 167.2226 324.2563 30810.7098 4.0847 4.0944
ENERGY: 1700000 2.9850 1.5093 1.9024 0.0000 -10900.7327 1534.5652 0.0000 0.0000 1789.6259 -7570.1450 302.2083 -9359.7708 -7566.4420 300.3476 891.0793 934.7337 30516.6259 3.1600 3.0760
ENERGY: 1900000 1.4671 1.8608 3.7031 0.0000 -10741.0296 1450.5070 0.0000 0.0000 1743.3037 -7540.1878 294.3860 -9283.4916 -7536.6849 300.1044 135.3026 219.8797 30744.2377 3.0811 3.0200
TCL: Exiting due to exit command.
