Info: SIMULATION PARAMETERS:
Info: TIMESTEP               2
Info: NUMBER OF STEPS        0
Info: STEPS PER CYCLE        10
Info: PERIODIC CELL BASIS 1  36.281 0 0
Info: PERIODIC CELL BASIS 2  0 34.1 0
Info: PERIODIC CELL BASIS 3  0 0 36.199
Info: PERIODIC CELL CENTER   0 0 0
Info: WRAPPING WATERS AROUND PERIODIC BOUNDARIES ON OUTPUT.
Info: WRAPPING ALL CLUSTERS AROUND PERIODIC BOUNDARIES ON OUTPUT.
Info: FIRST LDB TIMESTEP     50
Info: LAST LDB TIMESTEP     -1
Info: HOM BACKGROUND SCALING 1
Info: PME BACKGROUND SCALING 1
Info: MIN ATOMS PER PATCH    40
Info: EMPTY PATCH LOAD       40 ATOMS
Info: INITIAL TEMPERATURE    300
Info: CENTER OF MASS MOVING INITIALLY? NO
Info: DIELECTRIC             1
Info: EXCLUDE                SCALED ONE-FOUR
Info: 1-4 ELECTROSTATICS SCALED BY 0.833333
Info: MODIFIED 1-4 VDW PARAMETERS WILL BE USED
Info: DCD FILENAME           mobley_2751110_equil.dcd
Info: DCD FREQUENCY          100000
Info: DCD FIRST STEP         100000
Info: DCD FILE WILL CONTAIN UNIT CELL DATA
Info: XST FILENAME           mobley_2751110_equil.xst
Info: XST FREQUENCY          100000
Info: NO VELOCITY DCD OUTPUT
Info: NO FORCE DCD OUTPUT
Info: OUTPUT FILENAME        mobley_2751110_equil
Info: BINARY OUTPUT FILES WILL BE USED
Info: RESTART FILENAME       mobley_2751110_equil.restart
Info: RESTART FREQUENCY      100000
Info: BINARY RESTART FILES WILL BE USED
Info: CUTOFF                 9
Info: PAIRLIST DISTANCE      11
Info: PAIRLIST SHRINK RATE   0.01
Info: PAIRLIST GROW RATE     0.01
Info: PAIRLIST TRIGGER       0.3
Info: PAIRLISTS PER CYCLE    2
Info: PAIRLISTS ENABLED
Info: MARGIN                 8
Info: HYDROGEN GROUP CUTOFF  2.5
Info: PATCH DIMENSION        21.5
Info: ENERGY OUTPUT STEPS    100000
Info: ENERGY EVALUATION STEPS    100000
Info: OUTPUT ENERGY PRECISION 4
Info: CROSSTERM ENERGY INCLUDED IN DIHEDRAL
Info: TIMING OUTPUT STEPS    1000000
Info: PRESSURE OUTPUT STEPS  100000
Info: LANGEVIN DYNAMICS ACTIVE
Info: LANGEVIN TEMPERATURE   30
Info: LANGEVIN USING BBK INTEGRATOR
Info: LANGEVIN DAMPING COEFFICIENT IS 1 INVERSE PS
Info: LANGEVIN DYNAMICS APPLIED TO HYDROGENS
Info: LANGEVIN PISTON PRESSURE CONTROL ACTIVE
Info:        TARGET PRESSURE IS 1.01325 BAR
Info:     OSCILLATION PERIOD IS 50 FS
Info:             DECAY TIME IS 25 FS
Info:     PISTON TEMPERATURE IS 300 K
Info:       PRESSURE CONTROL IS GROUP-BASED
Info:    INITIAL STRAIN RATE IS 0 0 0
Info:       CELL FLUCTUATION IS ISOTROPIC
Info: PARTICLE MESH EWALD (PME) ACTIVE
Info: PME TOLERANCE               1e-06
Info: PME EWALD COEFFICIENT       0.348832
Info: PME INTERPOLATION ORDER     4
Info: PME GRID DIMENSIONS         40 36 40
Info: PME MAXIMUM GRID SPACING    1
Info: FULL ELECTROSTATIC EVALUATION FREQUENCY      2
Info: USING VERLET I (r-RESPA) MTS SCHEME.
Info: C1 SPLITTING OF LONG RANGE ELECTROSTATICS
Info: PLACING ATOMS IN PATCHES BY HYDROGEN GROUPS
Info: RIGID BONDS TO HYDROGEN : ALL
Info:         ERROR TOLERANCE : 1e-08
Info:          MAX ITERATIONS : 100
Info: RIGID WATER USING SETTLE ALGORITHM
Info: RANDOM NUMBER SEED     1743228342
Info: USE HYDROGEN BONDS?    NO
Info: Using AMBER format force field!
Info: AMBER PARM FILE        mobley_2751110.prmtop
Info: COORDINATE PDB         mobley_2751110.pdb
Info: Exclusions will be read from PARM file!
Info: SCNB (VDW SCALING)     2
Info: USING ARITHMETIC MEAN TO COMBINE L-J SIGMA PARAMETERS
Info: BINARY COORDINATES     mobley_2751110_min.coor
Info: SUMMARY OF PARAMETERS:
Info: 8 BONDS
Info: 7 ANGLES
Info:   7 HARMONIC
Info:   0 COSINE-BASED
Info: 4 DIHEDRAL
Info: 0 IMPROPER
Info: 0 CROSSTERM
Info: 0 VDW
Info: 28 VDW_PAIRS
Info: 0 NBTHOLE_PAIRS
Info: STRUCTURE SUMMARY:
Info: 2955 ATOMS
Info: 2955 BONDS
Info: 22 ANGLES
Info: 36 DIHEDRALS
Info: 0 IMPROPERS
Info: 0 CROSSTERMS
Info: 3004 EXCLUSIONS
Info: 2945 RIGID BONDS
Info: 5920 DEGREES OF FREEDOM
Info: 990 HYDROGEN GROUPS
Info: 3 ATOMS IN LARGEST HYDROGEN GROUP
Info: 990 MIGRATION GROUPS
Info: 3 ATOMS IN LARGEST MIGRATION GROUP
Info: TOTAL MASS = 17794.8 amu
Info: TOTAL CHARGE = 3.72529e-08 e
Info: MASS DENSITY = 0.659815 g/cm^3
Info: ATOM DENSITY = 0.0659823 atoms/A^3
Info: ADDED 0 IMPLICIT EXCLUSIONS
Info: NONBONDED TABLE R-SQUARED SPACING: 0.0625
Info: NONBONDED TABLE SIZE: 705 POINTS
Info: REMOVING COM VELOCITY 0.063966 -0.122826 0.0471924
TCL: Running for 100000 steps
ETITLE: TS BOND ANGLE DIHED IMPRP ELECT VDW BOUNDARY MISC KINETIC TOTAL TEMP POTENTIAL TOTAL3 TEMPAVG PRESSURE GPRESSURE VOLUME PRESSAVG GPRESSAVG
ENERGY: 0 0.2785 0.3048 0.5140 0.0000 -13711.2992 2414.3959 0.0000 0.0000 1781.0008 -9514.8051 302.7839 -11295.8059 -9514.4237 302.7839 422.6610 453.4985 44784.7548 422.6610 453.4985
ENERGY: 100000 0.8976 0.4119 0.3922 0.0000 -14270.6346 2477.1486 0.0000 0.0000 178.0604 -11613.7239 30.2716 -11791.7843 -11613.1211 30.9402 -94.1648 -33.3710 28770.9038 3.7612 3.7850
TCL: Running 100000 steps at 60 kelvin.
TCL: Setting parameter langevinTemp to 60
TCL: Running for 100000 steps
ETITLE: TS BOND ANGLE DIHED IMPRP ELECT VDW BOUNDARY MISC KINETIC TOTAL TEMP POTENTIAL TOTAL3 TEMPAVG PRESSURE GPRESSURE VOLUME PRESSAVG GPRESSAVG
ENERGY: 100000 0.8976 0.4119 0.3922 0.0000 -14270.6346 2477.1486 0.0000 0.0000 177.9677 -11613.8167 30.2559 -11791.7843 -11613.3585 30.2559 -85.6032 -33.2615 28770.9038 -85.6032 -33.2615
ENERGY: 200000 0.8544 0.9296 0.8410 0.0000 -14231.3401 2486.0183 0.0000 0.0000 362.3419 -11380.3548 61.6009 -11742.6968 -11379.7241 59.9065 180.1190 276.8410 28791.8224 2.2959 2.4288
TCL: Running 100000 steps at 90 kelvin.
TCL: Setting parameter langevinTemp to 90
TCL: Running for 100000 steps
ETITLE: TS BOND ANGLE DIHED IMPRP ELECT VDW BOUNDARY MISC KINETIC TOTAL TEMP POTENTIAL TOTAL3 TEMPAVG PRESSURE GPRESSURE VOLUME PRESSAVG GPRESSAVG
ENERGY: 200000 0.8544 0.9296 0.8410 0.0000 -14231.3401 2486.0183 0.0000 0.0000 362.1680 -11380.5288 61.5714 -11742.6968 -11379.7484 61.5714 215.9804 277.0090 28791.8224 215.9804 277.0090
ENERGY: 300000 0.8046 0.8534 3.0485 0.0000 -14061.0015 2431.4752 0.0000 0.0000 520.3359 -11104.4838 88.4611 -11624.8198 -11102.8249 90.1116 354.4533 428.8610 28737.0080 3.4869 3.4917
TCL: Running 100000 steps at 120 kelvin.
TCL: Setting parameter langevinTemp to 120
TCL: Running for 100000 steps
ETITLE: TS BOND ANGLE DIHED IMPRP ELECT VDW BOUNDARY MISC KINETIC TOTAL TEMP POTENTIAL TOTAL3 TEMPAVG PRESSURE GPRESSURE VOLUME PRESSAVG GPRESSAVG
ENERGY: 300000 0.8046 0.8534 3.0485 0.0000 -14061.0015 2431.4752 0.0000 0.0000 520.0705 -11104.7492 88.4160 -11624.8198 -11103.5859 88.4160 360.6456 429.5754 28737.0080 360.6456 429.5754
ENERGY: 400000 1.3901 1.4290 0.5198 0.0000 -13922.8353 2428.2607 0.0000 0.0000 697.6940 -10793.5417 118.6134 -11491.2358 -10791.7009 119.6638 841.9993 885.9218 28803.6028 3.0334 3.1208
TCL: Running 100000 steps at 150 kelvin.
TCL: Setting parameter langevinTemp to 150
TCL: Running for 100000 steps
ETITLE: TS BOND ANGLE DIHED IMPRP ELECT VDW BOUNDARY MISC KINETIC TOTAL TEMP POTENTIAL TOTAL3 TEMPAVG PRESSURE GPRESSURE VOLUME PRESSAVG GPRESSAVG
ENERGY: 400000 1.3901 1.4290 0.5198 0.0000 -13922.8353 2428.2607 0.0000 0.0000 697.3406 -10793.8952 118.5533 -11491.2358 -10792.6456 118.5533 830.3492 886.1295 28803.6028 830.3492 886.1295
ENERGY: 500000 3.0792 1.9645 3.8728 0.0000 -13576.0188 2241.9122 0.0000 0.0000 877.9878 -10447.2023 149.2647 -11325.1901 -10444.7451 149.9223 -271.0916 -222.7973 28987.5921 4.9933 5.0430
TCL: Running 100000 steps at 180 kelvin.
TCL: Setting parameter langevinTemp to 180
TCL: Running for 100000 steps
ETITLE: TS BOND ANGLE DIHED IMPRP ELECT VDW BOUNDARY MISC KINETIC TOTAL TEMP POTENTIAL TOTAL3 TEMPAVG PRESSURE GPRESSURE VOLUME PRESSAVG GPRESSAVG
ENERGY: 500000 3.0792 1.9645 3.8728 0.0000 -13576.0188 2241.9122 0.0000 0.0000 877.5522 -10447.6378 149.1907 -11325.1901 -10445.8610 149.1907 -259.2603 -222.9198 28987.5921 -259.2603 -222.9198
ENERGY: 600000 3.0146 2.3099 3.7807 0.0000 -13236.2672 2194.5032 0.0000 0.0000 1005.7848 -10026.8741 170.9912 -11032.6589 -10025.0595 179.8039 282.7662 385.2885 28982.7960 2.9819 3.0148
TCL: Running 100000 steps at 210 kelvin.
TCL: Setting parameter langevinTemp to 210
TCL: Running for 100000 steps
ETITLE: TS BOND ANGLE DIHED IMPRP ELECT VDW BOUNDARY MISC KINETIC TOTAL TEMP POTENTIAL TOTAL3 TEMPAVG PRESSURE GPRESSURE VOLUME PRESSAVG GPRESSAVG
ENERGY: 600000 3.0146 2.3099 3.7807 0.0000 -13236.2672 2194.5032 0.0000 0.0000 1005.2283 -10027.4306 170.8966 -11032.6589 -10025.7648 170.8966 327.1585 385.3990 28982.7960 327.1585 385.3990
ENERGY: 700000 2.9631 1.6079 2.6981 0.0000 -12369.9841 1841.9067 0.0000 0.0000 1230.6382 -9290.1700 209.2180 -10520.8082 -9287.6462 210.5159 -254.9074 -182.5765 28756.4222 3.1885 3.1135
TCL: Running 100000 steps at 240 kelvin.
TCL: Setting parameter langevinTemp to 240
TCL: Running for 100000 steps
ETITLE: TS BOND ANGLE DIHED IMPRP ELECT VDW BOUNDARY MISC KINETIC TOTAL TEMP POTENTIAL TOTAL3 TEMPAVG PRESSURE GPRESSURE VOLUME PRESSAVG GPRESSAVG
ENERGY: 700000 2.9631 1.6079 2.6981 0.0000 -12369.9841 1841.9067 0.0000 0.0000 1230.0099 -9290.7983 209.1112 -10520.8082 -9288.4550 209.1112 -266.0357 -182.3229 28756.4222 -266.0357 -182.3229
ENERGY: 800000 3.0047 2.3162 3.8419 0.0000 -11901.4099 1816.0547 0.0000 0.0000 1434.9189 -8641.2736 243.9473 -10076.1925 -8635.6275 240.5644 898.2703 993.8296 29142.2062 2.9754 2.7110
TCL: Running 100000 steps at 270 kelvin.
TCL: Setting parameter langevinTemp to 270
TCL: Running for 100000 steps
ETITLE: TS BOND ANGLE DIHED IMPRP ELECT VDW BOUNDARY MISC KINETIC TOTAL TEMP POTENTIAL TOTAL3 TEMPAVG PRESSURE GPRESSURE VOLUME PRESSAVG GPRESSAVG
ENERGY: 800000 3.0047 2.3162 3.8419 0.0000 -11901.4099 1816.0547 0.0000 0.0000 1434.2145 -8641.9780 243.8276 -10076.1925 -8639.5697 243.8276 904.6540 994.6670 29142.2062 904.6540 994.6670
ENERGY: 900000 4.2629 2.0155 6.3477 0.0000 -11237.7179 1532.7869 0.0000 0.0000 1608.5018 -8083.8032 273.4577 -9692.3049 -8081.1352 270.3928 -113.3299 28.0161 29457.4307 4.4328 4.2976
TCL: Running 1000000 steps at 300 kelvin.
TCL: Setting parameter langevinTemp to 300
TCL: Running for 1000000 steps
ETITLE: TS BOND ANGLE DIHED IMPRP ELECT VDW BOUNDARY MISC KINETIC TOTAL TEMP POTENTIAL TOTAL3 TEMPAVG PRESSURE GPRESSURE VOLUME PRESSAVG GPRESSAVG
ENERGY: 900000 4.2629 2.0155 6.3477 0.0000 -11237.7179 1532.7869 0.0000 0.0000 1607.6978 -8084.6071 273.3211 -9692.3049 -8081.4712 273.3211 -62.3808 27.4725 29457.4307 -62.3808 27.4725
ENERGY: 1100000 4.2676 2.5020 4.9898 0.0000 -10796.0611 1446.6053 0.0000 0.0000 1756.9791 -7580.7174 298.7000 -9337.6965 -7578.3385 299.8047 9.2459 66.0446 30011.7899 4.3789 4.4272
ENERGY: 1300000 3.7018 3.9614 1.7119 0.0000 -10801.1609 1509.9767 0.0000 0.0000 1803.2446 -7478.5646 306.5655 -9281.8091 -7474.4392 300.6326 488.0123 604.0399 30527.6744 2.8338 2.5651
ENERGY: 1500000 1.4523 3.1680 2.1161 0.0000 -10641.6958 1353.3736 0.0000 0.0000 1754.7308 -7526.8551 298.3178 -9281.5859 -7522.3318 300.5370 -648.8099 -588.6239 30386.8713 2.3587 2.3798
ENERGY: 1700000 2.3040 3.4221 7.5248 0.0000 -10671.0671 1389.8668 0.0000 0.0000 1820.0366 -7447.9129 309.4203 -9267.9495 -7444.5696 299.8580 -121.3253 -31.5559 30250.8727 2.5486 2.6756
ENERGY: 1900000 4.6622 5.6003 3.6253 0.0000 -10743.2663 1441.2931 0.0000 0.0000 1767.5242 -7520.5612 300.4928 -9288.0854 -7517.9120 300.6359 -49.3907 50.5694 30473.9819 2.0430 2.2437
TCL: Exiting due to exit command.
