Info: SIMULATION PARAMETERS:
Info: TIMESTEP               2
Info: NUMBER OF STEPS        0
Info: STEPS PER CYCLE        10
Info: PERIODIC CELL BASIS 1  36.005 0 0
Info: PERIODIC CELL BASIS 2  0 35.779 0
Info: PERIODIC CELL BASIS 3  0 0 34.954
Info: PERIODIC CELL CENTER   0 0 0
Info: WRAPPING WATERS AROUND PERIODIC BOUNDARIES ON OUTPUT.
Info: WRAPPING ALL CLUSTERS AROUND PERIODIC BOUNDARIES ON OUTPUT.
Info: FIRST LDB TIMESTEP     50
Info: LAST LDB TIMESTEP     -1
Info: HOM BACKGROUND SCALING 1
Info: PME BACKGROUND SCALING 1
Info: MIN ATOMS PER PATCH    40
Info: EMPTY PATCH LOAD       40 ATOMS
Info: INITIAL TEMPERATURE    300
Info: CENTER OF MASS MOVING INITIALLY? NO
Info: DIELECTRIC             1
Info: EXCLUDE                SCALED ONE-FOUR
Info: 1-4 ELECTROSTATICS SCALED BY 0.833333
Info: MODIFIED 1-4 VDW PARAMETERS WILL BE USED
Info: DCD FILENAME           mobley_2492140_equil.dcd
Info: DCD FREQUENCY          100000
Info: DCD FIRST STEP         100000
Info: DCD FILE WILL CONTAIN UNIT CELL DATA
Info: XST FILENAME           mobley_2492140_equil.xst
Info: XST FREQUENCY          100000
Info: NO VELOCITY DCD OUTPUT
Info: NO FORCE DCD OUTPUT
Info: OUTPUT FILENAME        mobley_2492140_equil
Info: BINARY OUTPUT FILES WILL BE USED
Info: RESTART FILENAME       mobley_2492140_equil.restart
Info: RESTART FREQUENCY      100000
Info: BINARY RESTART FILES WILL BE USED
Info: CUTOFF                 9
Info: PAIRLIST DISTANCE      11
Info: PAIRLIST SHRINK RATE   0.01
Info: PAIRLIST GROW RATE     0.01
Info: PAIRLIST TRIGGER       0.3
Info: PAIRLISTS PER CYCLE    2
Info: PAIRLISTS ENABLED
Info: MARGIN                 8
Info: HYDROGEN GROUP CUTOFF  2.5
Info: PATCH DIMENSION        21.5
Info: ENERGY OUTPUT STEPS    100000
Info: ENERGY EVALUATION STEPS    100000
Info: OUTPUT ENERGY PRECISION 4
Info: CROSSTERM ENERGY INCLUDED IN DIHEDRAL
Info: TIMING OUTPUT STEPS    1000000
Info: PRESSURE OUTPUT STEPS  100000
Info: LANGEVIN DYNAMICS ACTIVE
Info: LANGEVIN TEMPERATURE   30
Info: LANGEVIN USING BBK INTEGRATOR
Info: LANGEVIN DAMPING COEFFICIENT IS 1 INVERSE PS
Info: LANGEVIN DYNAMICS APPLIED TO HYDROGENS
Info: LANGEVIN PISTON PRESSURE CONTROL ACTIVE
Info:        TARGET PRESSURE IS 1.01325 BAR
Info:     OSCILLATION PERIOD IS 50 FS
Info:             DECAY TIME IS 25 FS
Info:     PISTON TEMPERATURE IS 300 K
Info:       PRESSURE CONTROL IS GROUP-BASED
Info:    INITIAL STRAIN RATE IS 0 0 0
Info:       CELL FLUCTUATION IS ISOTROPIC
Info: PARTICLE MESH EWALD (PME) ACTIVE
Info: PME TOLERANCE               1e-06
Info: PME EWALD COEFFICIENT       0.348832
Info: PME INTERPOLATION ORDER     4
Info: PME GRID DIMENSIONS         40 36 36
Info: PME MAXIMUM GRID SPACING    1
Info: FULL ELECTROSTATIC EVALUATION FREQUENCY      2
Info: USING VERLET I (r-RESPA) MTS SCHEME.
Info: C1 SPLITTING OF LONG RANGE ELECTROSTATICS
Info: PLACING ATOMS IN PATCHES BY HYDROGEN GROUPS
Info: RIGID BONDS TO HYDROGEN : ALL
Info:         ERROR TOLERANCE : 1e-08
Info:          MAX ITERATIONS : 100
Info: RIGID WATER USING SETTLE ALGORITHM
Info: RANDOM NUMBER SEED     1743157450
Info: USE HYDROGEN BONDS?    NO
Info: Using AMBER format force field!
Info: AMBER PARM FILE        mobley_2492140.prmtop
Info: COORDINATE PDB         mobley_2492140.pdb
Info: Exclusions will be read from PARM file!
Info: SCNB (VDW SCALING)     2
Info: USING ARITHMETIC MEAN TO COMBINE L-J SIGMA PARAMETERS
Info: BINARY COORDINATES     mobley_2492140_min.coor
Info: SUMMARY OF PARAMETERS:
Info: 5 BONDS
Info: 4 ANGLES
Info:   4 HARMONIC
Info:   0 COSINE-BASED
Info: 3 DIHEDRAL
Info: 0 IMPROPER
Info: 0 CROSSTERM
Info: 0 VDW
Info: 15 VDW_PAIRS
Info: 0 NBTHOLE_PAIRS
Info: STRUCTURE SUMMARY:
Info: 2960 ATOMS
Info: 2959 BONDS
Info: 12 ANGLES
Info: 15 DIHEDRALS
Info: 0 IMPROPERS
Info: 0 CROSSTERMS
Info: 2980 EXCLUSIONS
Info: 2953 RIGID BONDS
Info: 5927 DEGREES OF FREEDOM
Info: 991 HYDROGEN GROUPS
Info: 3 ATOMS IN LARGEST HYDROGEN GROUP
Info: 991 MIGRATION GROUPS
Info: 3 ATOMS IN LARGEST MIGRATION GROUP
Info: TOTAL MASS = 17930 amu
Info: TOTAL CHARGE = 0 e
Info: MASS DENSITY = 0.661229 g/cm^3
Info: ATOM DENSITY = 0.0657361 atoms/A^3
Info: ADDED 0 IMPLICIT EXCLUSIONS
Info: NONBONDED TABLE R-SQUARED SPACING: 0.0625
Info: NONBONDED TABLE SIZE: 705 POINTS
Info: REMOVING COM VELOCITY -0.108277 -0.0556542 0.101115
TCL: Running for 100000 steps
ETITLE: TS BOND ANGLE DIHED IMPRP ELECT VDW BOUNDARY MISC KINETIC TOTAL TEMP POTENTIAL TOTAL3 TEMPAVG PRESSURE GPRESSURE VOLUME PRESSAVG GPRESSAVG
ENERGY: 0 0.0630 0.2868 2.7156 0.0000 -13681.8163 2438.1566 0.0000 0.0000 1754.7885 -9485.8057 297.9753 -11240.5942 -9485.4506 297.9753 600.3524 640.0676 45028.5431 600.3524 640.0676
ENERGY: 100000 0.2895 0.2109 2.6912 0.0000 -14291.9517 2475.0369 0.0000 0.0000 175.5698 -11638.1535 29.8130 -11813.7233 -11637.6664 31.0098 241.4671 322.6177 28355.6429 3.3549 3.3924
TCL: Running 100000 steps at 60 kelvin.
TCL: Setting parameter langevinTemp to 60
TCL: Running for 100000 steps
ETITLE: TS BOND ANGLE DIHED IMPRP ELECT VDW BOUNDARY MISC KINETIC TOTAL TEMP POTENTIAL TOTAL3 TEMPAVG PRESSURE GPRESSURE VOLUME PRESSAVG GPRESSAVG
ENERGY: 100000 0.2895 0.2109 2.6912 0.0000 -14291.9517 2475.0369 0.0000 0.0000 175.4882 -11638.2351 29.7991 -11813.7233 -11637.9000 29.7991 258.6827 322.7286 28355.6429 258.6827 322.7286
ENERGY: 200000 0.7324 0.9986 2.6956 0.0000 -14322.1241 2543.4284 0.0000 0.0000 360.6648 -11413.6043 61.2434 -11774.2691 -11412.0567 59.9769 983.6470 1022.3466 28388.1038 4.3650 4.4958
TCL: Running 100000 steps at 90 kelvin.
TCL: Setting parameter langevinTemp to 90
TCL: Running for 100000 steps
ETITLE: TS BOND ANGLE DIHED IMPRP ELECT VDW BOUNDARY MISC KINETIC TOTAL TEMP POTENTIAL TOTAL3 TEMPAVG PRESSURE GPRESSURE VOLUME PRESSAVG GPRESSAVG
ENERGY: 200000 0.7324 0.9986 2.6956 0.0000 -14322.1241 2543.4284 0.0000 0.0000 360.4894 -11413.7797 61.2136 -11774.2691 -11413.1492 61.2136 962.2034 1022.9067 28388.1038 962.2034 1022.9067
ENERGY: 300000 0.3987 1.9607 2.6750 0.0000 -14057.4760 2385.8727 0.0000 0.0000 521.4368 -11145.1322 88.5436 -11666.5690 -11144.5270 89.9806 173.5047 203.2897 28507.0453 4.5947 4.5352
TCL: Running 100000 steps at 120 kelvin.
TCL: Setting parameter langevinTemp to 120
TCL: Running for 100000 steps
ETITLE: TS BOND ANGLE DIHED IMPRP ELECT VDW BOUNDARY MISC KINETIC TOTAL TEMP POTENTIAL TOTAL3 TEMPAVG PRESSURE GPRESSURE VOLUME PRESSAVG GPRESSAVG
ENERGY: 300000 0.3987 1.9607 2.6750 0.0000 -14057.4760 2385.8727 0.0000 0.0000 521.1811 -11145.3879 88.5002 -11666.5690 -11144.2596 88.5002 153.4448 203.4610 28507.0453 153.4448 203.4610
ENERGY: 400000 0.3152 0.7827 2.7615 0.0000 -13640.6656 2145.6131 0.0000 0.0000 722.2104 -10768.9827 122.6363 -11491.1931 -10766.8590 119.8645 -1322.7919 -1263.8092 28964.2275 4.1424 4.0574
TCL: Running 100000 steps at 150 kelvin.
TCL: Setting parameter langevinTemp to 150
TCL: Running for 100000 steps
ETITLE: TS BOND ANGLE DIHED IMPRP ELECT VDW BOUNDARY MISC KINETIC TOTAL TEMP POTENTIAL TOTAL3 TEMPAVG PRESSURE GPRESSURE VOLUME PRESSAVG GPRESSAVG
ENERGY: 400000 0.3152 0.7827 2.7615 0.0000 -13640.6656 2145.6131 0.0000 0.0000 721.8581 -10769.3349 122.5765 -11491.1930 -10767.6958 122.5765 -1313.6335 -1264.0779 28964.2275 -1313.6335 -1264.0779
ENERGY: 500000 0.7587 0.6454 2.7531 0.0000 -13744.0780 2386.8695 0.0000 0.0000 889.8088 -10463.2425 151.0957 -11353.0513 -10461.1331 150.1183 1344.1989 1363.8054 28457.3608 4.8856 4.8946
TCL: Running 100000 steps at 180 kelvin.
TCL: Setting parameter langevinTemp to 180
TCL: Running for 100000 steps
ETITLE: TS BOND ANGLE DIHED IMPRP ELECT VDW BOUNDARY MISC KINETIC TOTAL TEMP POTENTIAL TOTAL3 TEMPAVG PRESSURE GPRESSURE VOLUME PRESSAVG GPRESSAVG
ENERGY: 500000 0.7587 0.6454 2.7531 0.0000 -13744.0780 2386.8695 0.0000 0.0000 889.3727 -10463.6786 151.0217 -11353.0513 -10461.9808 151.0217 1314.6112 1363.1552 28457.3608 1314.6112 1363.1552
ENERGY: 600000 1.7594 1.1529 2.7080 0.0000 -13273.8062 2210.2732 0.0000 0.0000 1058.8459 -9999.0668 179.7994 -11057.9127 -9996.8401 180.3436 547.7199 625.5315 29181.4044 5.4849 5.4933
TCL: Running 100000 steps at 210 kelvin.
TCL: Setting parameter langevinTemp to 210
TCL: Running for 100000 steps
ETITLE: TS BOND ANGLE DIHED IMPRP ELECT VDW BOUNDARY MISC KINETIC TOTAL TEMP POTENTIAL TOTAL3 TEMPAVG PRESSURE GPRESSURE VOLUME PRESSAVG GPRESSAVG
ENERGY: 600000 1.7594 1.1529 2.7080 0.0000 -13273.8062 2210.2732 0.0000 0.0000 1058.3333 -9999.5794 179.7123 -11057.9127 -9997.9919 179.7123 564.2821 625.6380 29181.4044 564.2821 625.6380
ENERGY: 700000 2.0087 2.4133 3.0095 0.0000 -12385.4621 1828.2949 0.0000 0.0000 1276.6414 -9273.0944 216.7826 -10549.7357 -9269.9878 209.6946 -438.4338 -358.0473 28798.9176 3.3060 3.3449
TCL: Running 100000 steps at 240 kelvin.
TCL: Setting parameter langevinTemp to 240
TCL: Running for 100000 steps
ETITLE: TS BOND ANGLE DIHED IMPRP ELECT VDW BOUNDARY MISC KINETIC TOTAL TEMP POTENTIAL TOTAL3 TEMPAVG PRESSURE GPRESSURE VOLUME PRESSAVG GPRESSAVG
ENERGY: 700000 2.0087 2.4133 3.0095 0.0000 -12385.4621 1828.2949 0.0000 0.0000 1275.9822 -9273.7536 216.6706 -10549.7357 -9271.2328 216.6706 -446.3408 -358.4353 28798.9176 -446.3408 -358.4353
ENERGY: 800000 1.2055 2.5184 2.7864 0.0000 -11901.5041 1803.2458 0.0000 0.0000 1466.9858 -8624.7622 249.1044 -10091.7479 -8619.6778 239.6323 720.7319 781.2999 29119.1989 2.9087 3.1438
TCL: Running 100000 steps at 270 kelvin.
TCL: Setting parameter langevinTemp to 270
TCL: Running for 100000 steps
ETITLE: TS BOND ANGLE DIHED IMPRP ELECT VDW BOUNDARY MISC KINETIC TOTAL TEMP POTENTIAL TOTAL3 TEMPAVG PRESSURE GPRESSURE VOLUME PRESSAVG GPRESSAVG
ENERGY: 800000 1.2055 2.5184 2.7864 0.0000 -11901.5041 1803.2458 0.0000 0.0000 1466.2964 -8625.4516 248.9873 -10091.7479 -8623.5565 248.9873 693.3492 782.6912 29119.1989 693.3492 782.6912
ENERGY: 900000 2.5825 2.1608 2.7224 0.0000 -11260.1228 1612.2706 0.0000 0.0000 1575.7886 -8064.5979 267.5798 -9640.3865 -8062.2587 269.9301 253.0519 348.6013 30087.8073 3.1500 3.0549
TCL: Running 1000000 steps at 300 kelvin.
TCL: Setting parameter langevinTemp to 300
TCL: Running for 1000000 steps
ETITLE: TS BOND ANGLE DIHED IMPRP ELECT VDW BOUNDARY MISC KINETIC TOTAL TEMP POTENTIAL TOTAL3 TEMPAVG PRESSURE GPRESSURE VOLUME PRESSAVG GPRESSAVG
ENERGY: 900000 2.5825 2.1608 2.7224 0.0000 -11260.1228 1612.2706 0.0000 0.0000 1574.9820 -8065.4045 267.4429 -9640.3865 -8063.0046 267.4429 253.6547 347.7043 30087.8073 253.6547 347.7043
ENERGY: 1100000 1.5269 6.5289 2.6717 0.0000 -10710.9454 1431.0173 0.0000 0.0000 1730.9100 -7538.2905 293.9205 -9269.2005 -7536.1569 300.2771 120.4030 190.2299 30319.4146 1.8521 1.9062
ENERGY: 1300000 2.6189 2.7727 2.8965 0.0000 -10740.2714 1417.4689 0.0000 0.0000 1755.7938 -7558.7205 298.1460 -9314.5143 -7555.6473 300.4973 -508.8871 -374.3444 31146.6954 3.3490 3.1106
ENERGY: 1500000 1.4614 3.2737 2.6995 0.0000 -10754.5031 1428.0217 0.0000 0.0000 1757.4670 -7561.5799 298.4301 -9319.0468 -7559.5803 299.5174 82.1387 149.0194 30382.4797 3.4050 3.5174
ENERGY: 1700000 2.6011 5.4250 2.9620 0.0000 -10592.5610 1363.1667 0.0000 0.0000 1769.5290 -7448.8773 300.4783 -9218.4063 -7445.6539 300.5579 -289.6905 -197.2234 30554.3580 2.4031 2.5567
ENERGY: 1900000 1.4678 3.4370 2.8980 0.0000 -10683.1029 1431.6252 0.0000 0.0000 1769.3875 -7474.2874 300.4543 -9243.6749 -7472.0204 300.5689 -4.4342 13.2124 30800.4614 3.0668 3.2181
TCL: Exiting due to exit command.
