Info: SIMULATION PARAMETERS:
Info: TIMESTEP               2
Info: NUMBER OF STEPS        0
Info: STEPS PER CYCLE        10
Info: PERIODIC CELL BASIS 1  34.986 0 0
Info: PERIODIC CELL BASIS 2  0 34.1 0
Info: PERIODIC CELL BASIS 3  0 0 36.697
Info: PERIODIC CELL CENTER   0 0 0
Info: WRAPPING WATERS AROUND PERIODIC BOUNDARIES ON OUTPUT.
Info: WRAPPING ALL CLUSTERS AROUND PERIODIC BOUNDARIES ON OUTPUT.
Info: FIRST LDB TIMESTEP     50
Info: LAST LDB TIMESTEP     -1
Info: HOM BACKGROUND SCALING 1
Info: PME BACKGROUND SCALING 1
Info: MIN ATOMS PER PATCH    40
Info: EMPTY PATCH LOAD       40 ATOMS
Info: INITIAL TEMPERATURE    300
Info: CENTER OF MASS MOVING INITIALLY? NO
Info: DIELECTRIC             1
Info: EXCLUDE                SCALED ONE-FOUR
Info: 1-4 ELECTROSTATICS SCALED BY 0.833333
Info: MODIFIED 1-4 VDW PARAMETERS WILL BE USED
Info: DCD FILENAME           mobley_8764620_equil.dcd
Info: DCD FREQUENCY          100000
Info: DCD FIRST STEP         100000
Info: DCD FILE WILL CONTAIN UNIT CELL DATA
Info: XST FILENAME           mobley_8764620_equil.xst
Info: XST FREQUENCY          100000
Info: NO VELOCITY DCD OUTPUT
Info: NO FORCE DCD OUTPUT
Info: OUTPUT FILENAME        mobley_8764620_equil
Info: BINARY OUTPUT FILES WILL BE USED
Info: RESTART FILENAME       mobley_8764620_equil.restart
Info: RESTART FREQUENCY      100000
Info: BINARY RESTART FILES WILL BE USED
Info: CUTOFF                 9
Info: PAIRLIST DISTANCE      11
Info: PAIRLIST SHRINK RATE   0.01
Info: PAIRLIST GROW RATE     0.01
Info: PAIRLIST TRIGGER       0.3
Info: PAIRLISTS PER CYCLE    2
Info: PAIRLISTS ENABLED
Info: MARGIN                 8
Info: HYDROGEN GROUP CUTOFF  2.5
Info: PATCH DIMENSION        21.5
Info: ENERGY OUTPUT STEPS    100000
Info: ENERGY EVALUATION STEPS    100000
Info: OUTPUT ENERGY PRECISION 4
Info: CROSSTERM ENERGY INCLUDED IN DIHEDRAL
Info: TIMING OUTPUT STEPS    1000000
Info: PRESSURE OUTPUT STEPS  100000
Info: LANGEVIN DYNAMICS ACTIVE
Info: LANGEVIN TEMPERATURE   30
Info: LANGEVIN USING BBK INTEGRATOR
Info: LANGEVIN DAMPING COEFFICIENT IS 1 INVERSE PS
Info: LANGEVIN DYNAMICS APPLIED TO HYDROGENS
Info: LANGEVIN PISTON PRESSURE CONTROL ACTIVE
Info:        TARGET PRESSURE IS 1.01325 BAR
Info:     OSCILLATION PERIOD IS 50 FS
Info:             DECAY TIME IS 25 FS
Info:     PISTON TEMPERATURE IS 300 K
Info:       PRESSURE CONTROL IS GROUP-BASED
Info:    INITIAL STRAIN RATE IS 0 0 0
Info:       CELL FLUCTUATION IS ISOTROPIC
Info: PARTICLE MESH EWALD (PME) ACTIVE
Info: PME TOLERANCE               1e-06
Info: PME EWALD COEFFICIENT       0.348832
Info: PME INTERPOLATION ORDER     4
Info: PME GRID DIMENSIONS         36 36 40
Info: PME MAXIMUM GRID SPACING    1
Info: FULL ELECTROSTATIC EVALUATION FREQUENCY      2
Info: USING VERLET I (r-RESPA) MTS SCHEME.
Info: C1 SPLITTING OF LONG RANGE ELECTROSTATICS
Info: PLACING ATOMS IN PATCHES BY HYDROGEN GROUPS
Info: RIGID BONDS TO HYDROGEN : ALL
Info:         ERROR TOLERANCE : 1e-08
Info:          MAX ITERATIONS : 100
Info: RIGID WATER USING SETTLE ALGORITHM
Info: RANDOM NUMBER SEED     1743164455
Info: USE HYDROGEN BONDS?    NO
Info: Using AMBER format force field!
Info: AMBER PARM FILE        mobley_8764620.prmtop
Info: COORDINATE PDB         mobley_8764620.pdb
Info: Exclusions will be read from PARM file!
Info: SCNB (VDW SCALING)     2
Info: USING ARITHMETIC MEAN TO COMBINE L-J SIGMA PARAMETERS
Info: BINARY COORDINATES     mobley_8764620_min.coor
Info: SUMMARY OF PARAMETERS:
Info: 8 BONDS
Info: 8 ANGLES
Info:   8 HARMONIC
Info:   0 COSINE-BASED
Info: 4 DIHEDRAL
Info: 0 IMPROPER
Info: 0 CROSSTERM
Info: 0 VDW
Info: 28 VDW_PAIRS
Info: 0 NBTHOLE_PAIRS
Info: STRUCTURE SUMMARY:
Info: 2931 ATOMS
Info: 2931 BONDS
Info: 17 ANGLES
Info: 27 DIHEDRALS
Info: 0 IMPROPERS
Info: 0 CROSSTERMS
Info: 2967 EXCLUSIONS
Info: 2923 RIGID BONDS
Info: 5870 DEGREES OF FREEDOM
Info: 981 HYDROGEN GROUPS
Info: 3 ATOMS IN LARGEST HYDROGEN GROUP
Info: 981 MIGRATION GROUPS
Info: 3 ATOMS IN LARGEST MIGRATION GROUP
Info: TOTAL MASS = 17633.7 amu
Info: TOTAL CHARGE = 9.99831e-05 e
Info: MASS DENSITY = 0.668841 g/cm^3
Info: ATOM DENSITY = 0.0669478 atoms/A^3
Info: ADDED 0 IMPLICIT EXCLUSIONS
Info: NONBONDED TABLE R-SQUARED SPACING: 0.0625
Info: NONBONDED TABLE SIZE: 705 POINTS
Info: REMOVING COM VELOCITY 0.270719 0.0444316 -0.0154151
TCL: Running for 100000 steps
ETITLE: TS BOND ANGLE DIHED IMPRP ELECT VDW BOUNDARY MISC KINETIC TOTAL TEMP POTENTIAL TOTAL3 TEMPAVG PRESSURE GPRESSURE VOLUME PRESSAVG GPRESSAVG
ENERGY: 0 0.2797 0.2000 0.0089 0.0000 -13595.2420 2407.3537 0.0000 0.0000 1751.7039 -9435.6957 300.3399 -11187.3996 -9435.3283 300.3399 553.3738 596.3165 43780.3504 553.3738 596.3165
ENERGY: 100000 0.3296 0.4564 0.1144 0.0000 -14085.3400 2400.4802 0.0000 0.0000 174.5273 -11509.4321 29.9237 -11683.9594 -11509.0897 30.9458 -652.2970 -592.3410 29307.6470 3.7874 3.8017
TCL: Running 100000 steps at 60 kelvin.
TCL: Setting parameter langevinTemp to 60
TCL: Running for 100000 steps
ETITLE: TS BOND ANGLE DIHED IMPRP ELECT VDW BOUNDARY MISC KINETIC TOTAL TEMP POTENTIAL TOTAL3 TEMPAVG PRESSURE GPRESSURE VOLUME PRESSAVG GPRESSAVG
ENERGY: 100000 0.3296 0.4564 0.1144 0.0000 -14085.3400 2400.4802 0.0000 0.0000 174.4413 -11509.5182 29.9090 -11683.9594 -11509.0379 29.9090 -656.2383 -592.5808 29307.6470 -656.2383 -592.5808
ENERGY: 200000 0.4609 0.7455 0.3823 0.0000 -14044.6055 2461.1245 0.0000 0.0000 360.5987 -11221.2937 61.8268 -11581.8924 -11220.3635 60.0190 390.0436 451.8206 28872.1077 3.7206 3.5991
TCL: Running 100000 steps at 90 kelvin.
TCL: Setting parameter langevinTemp to 90
TCL: Running for 100000 steps
ETITLE: TS BOND ANGLE DIHED IMPRP ELECT VDW BOUNDARY MISC KINETIC TOTAL TEMP POTENTIAL TOTAL3 TEMPAVG PRESSURE GPRESSURE VOLUME PRESSAVG GPRESSAVG
ENERGY: 200000 0.4609 0.7455 0.3823 0.0000 -14044.6055 2461.1245 0.0000 0.0000 360.4266 -11221.4658 61.7972 -11581.8924 -11220.7848 61.7972 406.3175 451.4318 28872.1077 406.3175 451.4318
ENERGY: 300000 0.9288 0.7271 0.2932 0.0000 -13794.2167 2302.8176 0.0000 0.0000 527.0482 -10962.4018 90.3655 -11489.4500 -10961.5053 90.0154 -557.9034 -476.8547 28800.6171 4.7058 4.7498
TCL: Running 100000 steps at 120 kelvin.
TCL: Setting parameter langevinTemp to 120
TCL: Running for 100000 steps
ETITLE: TS BOND ANGLE DIHED IMPRP ELECT VDW BOUNDARY MISC KINETIC TOTAL TEMP POTENTIAL TOTAL3 TEMPAVG PRESSURE GPRESSURE VOLUME PRESSAVG GPRESSAVG
ENERGY: 300000 0.9288 0.7271 0.2932 0.0000 -13794.2167 2302.8176 0.0000 0.0000 526.7833 -10962.6667 90.3201 -11489.4500 -10961.5278 90.3201 -537.2951 -477.6743 28800.6171 -537.2951 -477.6743
ENERGY: 400000 1.1784 1.2505 1.2131 0.0000 -13723.5241 2346.3715 0.0000 0.0000 689.4751 -10684.0354 118.2145 -11373.5105 -10682.5160 119.9363 341.8121 379.0652 28704.1918 3.5901 3.5098
TCL: Running 100000 steps at 150 kelvin.
TCL: Setting parameter langevinTemp to 150
TCL: Running for 100000 steps
ETITLE: TS BOND ANGLE DIHED IMPRP ELECT VDW BOUNDARY MISC KINETIC TOTAL TEMP POTENTIAL TOTAL3 TEMPAVG PRESSURE GPRESSURE VOLUME PRESSAVG GPRESSAVG
ENERGY: 400000 1.1784 1.2505 1.2131 0.0000 -13723.5241 2346.3715 0.0000 0.0000 689.1079 -10684.4026 118.1516 -11373.5105 -10683.2182 118.1516 336.6716 378.3907 28704.1918 336.6716 378.3907
ENERGY: 500000 2.3224 2.9273 1.2426 0.0000 -13476.8016 2238.4148 0.0000 0.0000 867.8628 -10364.0318 148.8001 -11231.8946 -10362.5053 150.1541 12.2846 122.0231 28423.4118 3.4644 3.6038
TCL: Running 100000 steps at 180 kelvin.
TCL: Setting parameter langevinTemp to 180
TCL: Running for 100000 steps
ETITLE: TS BOND ANGLE DIHED IMPRP ELECT VDW BOUNDARY MISC KINETIC TOTAL TEMP POTENTIAL TOTAL3 TEMPAVG PRESSURE GPRESSURE VOLUME PRESSAVG GPRESSAVG
ENERGY: 500000 2.3224 2.9273 1.2426 0.0000 -13476.8016 2238.4148 0.0000 0.0000 867.4302 -10364.4644 148.7260 -11231.8946 -10363.2321 148.7260 71.6223 121.5464 28423.4118 71.6223 121.5464
ENERGY: 600000 1.3874 1.7928 1.4577 0.0000 -13040.7199 2130.9995 0.0000 0.0000 1091.1062 -9813.9764 187.0765 -10905.0826 -9812.6273 180.2406 176.6992 220.3178 28942.0622 2.2200 2.1715
TCL: Running 100000 steps at 210 kelvin.
TCL: Setting parameter langevinTemp to 210
TCL: Running for 100000 steps
ETITLE: TS BOND ANGLE DIHED IMPRP ELECT VDW BOUNDARY MISC KINETIC TOTAL TEMP POTENTIAL TOTAL3 TEMPAVG PRESSURE GPRESSURE VOLUME PRESSAVG GPRESSAVG
ENERGY: 600000 1.3874 1.7928 1.4577 0.0000 -13040.7199 2130.9995 0.0000 0.0000 1090.5695 -9814.5131 186.9845 -10905.0826 -9812.5939 186.9845 144.3891 218.6346 28942.0622 144.3891 218.6346
ENERGY: 700000 1.1771 1.8550 2.0585 0.0000 -12275.1606 1779.8485 0.0000 0.0000 1223.6220 -9266.5995 209.7971 -10490.2214 -9261.4227 209.9083 -848.5067 -746.2494 28567.2541 2.7935 2.9487
TCL: Running 100000 steps at 240 kelvin.
TCL: Setting parameter langevinTemp to 240
TCL: Running for 100000 steps
ETITLE: TS BOND ANGLE DIHED IMPRP ELECT VDW BOUNDARY MISC KINETIC TOTAL TEMP POTENTIAL TOTAL3 TEMPAVG PRESSURE GPRESSURE VOLUME PRESSAVG GPRESSAVG
ENERGY: 700000 1.1771 1.8550 2.0585 0.0000 -12275.1606 1779.8485 0.0000 0.0000 1223.0339 -9267.1876 209.6963 -10490.2214 -9264.6714 209.6963 -828.4903 -743.0845 28567.2541 -828.4903 -743.0845
ENERGY: 800000 0.6298 2.4245 2.1644 0.0000 -11693.8302 1710.3160 0.0000 0.0000 1365.5366 -8612.7589 234.1292 -9978.2955 -8610.2405 239.6060 239.5060 311.0947 28850.2813 3.5984 3.7163
TCL: Running 100000 steps at 270 kelvin.
TCL: Setting parameter langevinTemp to 270
TCL: Running for 100000 steps
ETITLE: TS BOND ANGLE DIHED IMPRP ELECT VDW BOUNDARY MISC KINETIC TOTAL TEMP POTENTIAL TOTAL3 TEMPAVG PRESSURE GPRESSURE VOLUME PRESSAVG GPRESSAVG
ENERGY: 800000 0.6298 2.4245 2.1644 0.0000 -11693.8302 1710.3160 0.0000 0.0000 1364.8251 -8613.4704 234.0072 -9978.2955 -8610.9382 234.0072 211.4350 311.3042 28850.2813 211.4350 311.3042
ENERGY: 900000 1.5698 4.3813 1.6452 0.0000 -11086.1155 1522.9503 0.0000 0.0000 1640.8650 -7914.7038 281.3359 -9555.5688 -7910.6359 269.3658 -134.0548 -39.0056 29390.9959 3.9832 3.8787
TCL: Running 1000000 steps at 300 kelvin.
TCL: Setting parameter langevinTemp to 300
TCL: Running for 1000000 steps
ETITLE: TS BOND ANGLE DIHED IMPRP ELECT VDW BOUNDARY MISC KINETIC TOTAL TEMP POTENTIAL TOTAL3 TEMPAVG PRESSURE GPRESSURE VOLUME PRESSAVG GPRESSAVG
ENERGY: 900000 1.5698 4.3813 1.6452 0.0000 -11086.1155 1522.9503 0.0000 0.0000 1640.0409 -7915.5279 281.1946 -9555.5688 -7912.6685 281.1946 -131.2919 -39.3354 29390.9959 -131.2919 -39.3354
ENERGY: 1100000 3.2900 2.0417 1.3848 0.0000 -10704.5021 1451.8499 0.0000 0.0000 1765.4373 -7480.4985 302.6945 -9245.9357 -7477.0277 300.1889 288.0980 297.5760 29847.7612 2.3184 2.2683
ENERGY: 1300000 3.0100 2.6528 3.2344 0.0000 -10734.1035 1455.9932 0.0000 0.0000 1797.8880 -7471.3250 308.2584 -9269.2130 -7470.4050 299.5105 -115.3174 -3.1787 30393.7106 2.7289 2.5872
ENERGY: 1500000 2.7980 6.9797 2.4901 0.0000 -10615.6110 1358.9205 0.0000 0.0000 1818.7801 -7425.6426 311.8405 -9244.4226 -7422.4804 300.5207 -577.5160 -484.5938 30230.3642 2.8857 2.8709
ENERGY: 1700000 3.0768 2.2473 1.2085 0.0000 -10612.6752 1400.7191 0.0000 0.0000 1763.8641 -7441.5593 302.4248 -9205.4234 -7438.1071 300.2276 -408.8786 -293.8353 30253.7459 2.9501 2.8322
ENERGY: 1900000 5.0637 5.8816 2.3112 0.0000 -10759.7130 1527.3297 0.0000 0.0000 1750.2935 -7468.8333 300.0980 -9219.1268 -7463.1991 299.8867 926.5307 1114.9963 29871.6432 3.6190 3.6257
TCL: Exiting due to exit command.
