Info: SIMULATION PARAMETERS:
Info: TIMESTEP               2
Info: NUMBER OF STEPS        0
Info: STEPS PER CYCLE        10
Info: PERIODIC CELL BASIS 1  36.592 0 0
Info: PERIODIC CELL BASIS 2  0 34.26 0
Info: PERIODIC CELL BASIS 3  0 0 35.897
Info: PERIODIC CELL CENTER   0 0 0
Info: WRAPPING WATERS AROUND PERIODIC BOUNDARIES ON OUTPUT.
Info: WRAPPING ALL CLUSTERS AROUND PERIODIC BOUNDARIES ON OUTPUT.
Info: FIRST LDB TIMESTEP     50
Info: LAST LDB TIMESTEP     -1
Info: HOM BACKGROUND SCALING 1
Info: PME BACKGROUND SCALING 1
Info: MIN ATOMS PER PATCH    40
Info: EMPTY PATCH LOAD       40 ATOMS
Info: INITIAL TEMPERATURE    300
Info: CENTER OF MASS MOVING INITIALLY? NO
Info: DIELECTRIC             1
Info: EXCLUDE                SCALED ONE-FOUR
Info: 1-4 ELECTROSTATICS SCALED BY 0.833333
Info: MODIFIED 1-4 VDW PARAMETERS WILL BE USED
Info: DCD FILENAME           mobley_7829570_equil.dcd
Info: DCD FREQUENCY          100000
Info: DCD FIRST STEP         100000
Info: DCD FILE WILL CONTAIN UNIT CELL DATA
Info: XST FILENAME           mobley_7829570_equil.xst
Info: XST FREQUENCY          100000
Info: NO VELOCITY DCD OUTPUT
Info: NO FORCE DCD OUTPUT
Info: OUTPUT FILENAME        mobley_7829570_equil
Info: BINARY OUTPUT FILES WILL BE USED
Info: RESTART FILENAME       mobley_7829570_equil.restart
Info: RESTART FREQUENCY      100000
Info: BINARY RESTART FILES WILL BE USED
Info: CUTOFF                 9
Info: PAIRLIST DISTANCE      11
Info: PAIRLIST SHRINK RATE   0.01
Info: PAIRLIST GROW RATE     0.01
Info: PAIRLIST TRIGGER       0.3
Info: PAIRLISTS PER CYCLE    2
Info: PAIRLISTS ENABLED
Info: MARGIN                 8
Info: HYDROGEN GROUP CUTOFF  2.5
Info: PATCH DIMENSION        21.5
Info: ENERGY OUTPUT STEPS    100000
Info: ENERGY EVALUATION STEPS    100000
Info: OUTPUT ENERGY PRECISION 4
Info: CROSSTERM ENERGY INCLUDED IN DIHEDRAL
Info: TIMING OUTPUT STEPS    1000000
Info: PRESSURE OUTPUT STEPS  100000
Info: LANGEVIN DYNAMICS ACTIVE
Info: LANGEVIN TEMPERATURE   30
Info: LANGEVIN USING BBK INTEGRATOR
Info: LANGEVIN DAMPING COEFFICIENT IS 1 INVERSE PS
Info: LANGEVIN DYNAMICS APPLIED TO HYDROGENS
Info: LANGEVIN PISTON PRESSURE CONTROL ACTIVE
Info:        TARGET PRESSURE IS 1.01325 BAR
Info:     OSCILLATION PERIOD IS 50 FS
Info:             DECAY TIME IS 25 FS
Info:     PISTON TEMPERATURE IS 300 K
Info:       PRESSURE CONTROL IS GROUP-BASED
Info:    INITIAL STRAIN RATE IS 0 0 0
Info:       CELL FLUCTUATION IS ISOTROPIC
Info: PARTICLE MESH EWALD (PME) ACTIVE
Info: PME TOLERANCE               1e-06
Info: PME EWALD COEFFICIENT       0.348832
Info: PME INTERPOLATION ORDER     4
Info: PME GRID DIMENSIONS         40 36 36
Info: PME MAXIMUM GRID SPACING    1
Info: FULL ELECTROSTATIC EVALUATION FREQUENCY      2
Info: USING VERLET I (r-RESPA) MTS SCHEME.
Info: C1 SPLITTING OF LONG RANGE ELECTROSTATICS
Info: PLACING ATOMS IN PATCHES BY HYDROGEN GROUPS
Info: RIGID BONDS TO HYDROGEN : ALL
Info:         ERROR TOLERANCE : 1e-08
Info:          MAX ITERATIONS : 100
Info: RIGID WATER USING SETTLE ALGORITHM
Info: RANDOM NUMBER SEED     1743263806
Info: USE HYDROGEN BONDS?    NO
Info: Using AMBER format force field!
Info: AMBER PARM FILE        mobley_7829570.prmtop
Info: COORDINATE PDB         mobley_7829570.pdb
Info: Exclusions will be read from PARM file!
Info: SCNB (VDW SCALING)     2
Info: USING ARITHMETIC MEAN TO COMBINE L-J SIGMA PARAMETERS
Info: BINARY COORDINATES     mobley_7829570_min.coor
Info: SUMMARY OF PARAMETERS:
Info: 13 BONDS
Info: 18 ANGLES
Info:   18 HARMONIC
Info:   0 COSINE-BASED
Info: 11 DIHEDRAL
Info: 0 IMPROPER
Info: 0 CROSSTERM
Info: 0 VDW
Info: 55 VDW_PAIRS
Info: 0 NBTHOLE_PAIRS
Info: STRUCTURE SUMMARY:
Info: 2979 ATOMS
Info: 2979 BONDS
Info: 69 ANGLES
Info: 99 DIHEDRALS
Info: 0 IMPROPERS
Info: 0 CROSSTERMS
Info: 3135 EXCLUSIONS
Info: 2956 RIGID BONDS
Info: 5981 DEGREES OF FREEDOM
Info: 1003 HYDROGEN GROUPS
Info: 4 ATOMS IN LARGEST HYDROGEN GROUP
Info: 1003 MIGRATION GROUPS
Info: 4 ATOMS IN LARGEST MIGRATION GROUP
Info: TOTAL MASS = 17991 amu
Info: TOTAL CHARGE = 1.30385e-08 e
Info: MASS DENSITY = 0.663869 g/cm^3
Info: ATOM DENSITY = 0.0661971 atoms/A^3
Info: ADDED 0 IMPLICIT EXCLUSIONS
Info: NONBONDED TABLE R-SQUARED SPACING: 0.0625
Info: NONBONDED TABLE SIZE: 705 POINTS
Info: REMOVING COM VELOCITY 0.0652795 -0.12181 0.0679637
TCL: Running for 100000 steps
ETITLE: TS BOND ANGLE DIHED IMPRP ELECT VDW BOUNDARY MISC KINETIC TOTAL TEMP POTENTIAL TOTAL3 TEMPAVG PRESSURE GPRESSURE VOLUME PRESSAVG GPRESSAVG
ENERGY: 0 0.6200 1.4812 16.1013 0.0000 -13613.8080 2367.6750 0.0000 0.0000 1791.7389 -9436.1917 301.5028 -11227.9305 -9435.8258 301.5028 422.2765 460.5046 45001.9840 422.2765 460.5046
ENERGY: 100000 1.0732 2.9686 14.0191 0.0000 -14160.5969 2403.9268 0.0000 0.0000 179.4421 -11559.1671 30.1954 -11738.6092 -11558.4080 30.9784 -542.9486 -472.4222 29680.6219 3.9067 3.9104
TCL: Running 100000 steps at 60 kelvin.
TCL: Setting parameter langevinTemp to 60
TCL: Running for 100000 steps
ETITLE: TS BOND ANGLE DIHED IMPRP ELECT VDW BOUNDARY MISC KINETIC TOTAL TEMP POTENTIAL TOTAL3 TEMPAVG PRESSURE GPRESSURE VOLUME PRESSAVG GPRESSAVG
ENERGY: 100000 1.0732 2.9686 14.0191 0.0000 -14160.5969 2403.9268 0.0000 0.0000 179.3580 -11559.2512 30.1813 -11738.6092 -11558.7905 30.1813 -536.5581 -472.3025 29680.6219 -536.5581 -472.3025
ENERGY: 200000 2.1013 3.4861 15.8787 0.0000 -14072.8888 2388.0474 0.0000 0.0000 358.4476 -11304.9278 60.3173 -11663.3754 -11304.1992 60.1207 -288.4014 -254.4889 29317.9324 4.2329 4.2156
TCL: Running 100000 steps at 90 kelvin.
TCL: Setting parameter langevinTemp to 90
TCL: Running for 100000 steps
ETITLE: TS BOND ANGLE DIHED IMPRP ELECT VDW BOUNDARY MISC KINETIC TOTAL TEMP POTENTIAL TOTAL3 TEMPAVG PRESSURE GPRESSURE VOLUME PRESSAVG GPRESSAVG
ENERGY: 200000 2.1013 3.4861 15.8787 0.0000 -14072.8888 2388.0474 0.0000 0.0000 358.2667 -11305.1087 60.2869 -11663.3754 -11304.2318 60.2869 -313.4011 -255.1468 29317.9324 -313.4011 -255.1468
ENERGY: 300000 1.9411 7.7058 14.3010 0.0000 -14140.8299 2513.8937 0.0000 0.0000 524.6259 -11078.3625 88.2808 -11602.9884 -11076.6807 89.9104 1020.1744 1045.8967 29222.4287 4.9639 5.0326
TCL: Running 100000 steps at 120 kelvin.
TCL: Setting parameter langevinTemp to 120
TCL: Running for 100000 steps
ETITLE: TS BOND ANGLE DIHED IMPRP ELECT VDW BOUNDARY MISC KINETIC TOTAL TEMP POTENTIAL TOTAL3 TEMPAVG PRESSURE GPRESSURE VOLUME PRESSAVG GPRESSAVG
ENERGY: 300000 1.9411 7.7058 14.3010 0.0000 -14140.8299 2513.8937 0.0000 0.0000 524.3657 -11078.6226 88.2370 -11602.9884 -11077.4007 88.2370 994.6816 1047.1231 29222.4287 994.6816 1047.1231
ENERGY: 400000 4.5451 6.8008 15.5829 0.0000 -13807.0832 2290.3975 0.0000 0.0000 677.0385 -10812.7184 113.9279 -11489.7569 -10811.8639 120.2030 -578.3935 -518.6708 29474.1185 3.5842 3.5646
TCL: Running 100000 steps at 150 kelvin.
TCL: Setting parameter langevinTemp to 150
TCL: Running for 100000 steps
ETITLE: TS BOND ANGLE DIHED IMPRP ELECT VDW BOUNDARY MISC KINETIC TOTAL TEMP POTENTIAL TOTAL3 TEMPAVG PRESSURE GPRESSURE VOLUME PRESSAVG GPRESSAVG
ENERGY: 400000 4.5451 6.8008 15.5829 0.0000 -13807.0832 2290.3975 0.0000 0.0000 676.6995 -10813.0574 113.8708 -11489.7569 -10811.4617 113.8708 -594.9464 -519.8160 29474.1185 -594.9464 -519.8160
ENERGY: 500000 3.1052 6.8798 13.5759 0.0000 -13612.3079 2255.2617 0.0000 0.0000 894.2608 -10439.2246 150.4807 -11333.4854 -10436.3565 149.8135 -83.2399 -54.8364 29359.6706 4.0250 3.7279
TCL: Running 100000 steps at 180 kelvin.
TCL: Setting parameter langevinTemp to 180
TCL: Running for 100000 steps
ETITLE: TS BOND ANGLE DIHED IMPRP ELECT VDW BOUNDARY MISC KINETIC TOTAL TEMP POTENTIAL TOTAL3 TEMPAVG PRESSURE GPRESSURE VOLUME PRESSAVG GPRESSAVG
ENERGY: 500000 3.1052 6.8798 13.5759 0.0000 -13612.3079 2255.2617 0.0000 0.0000 893.8182 -10439.6672 150.4062 -11333.4854 -10437.5425 150.4062 -99.1872 -54.2548 29359.6706 -99.1872 -54.2548
ENERGY: 600000 3.5384 9.5761 17.6272 0.0000 -13101.3565 2075.7768 0.0000 0.0000 1063.2818 -9931.5562 178.9225 -10994.8380 -9928.2797 179.7583 -120.8981 -59.4369 29091.5151 3.5726 3.4606
TCL: Running 100000 steps at 210 kelvin.
TCL: Setting parameter langevinTemp to 210
TCL: Running for 100000 steps
ETITLE: TS BOND ANGLE DIHED IMPRP ELECT VDW BOUNDARY MISC KINETIC TOTAL TEMP POTENTIAL TOTAL3 TEMPAVG PRESSURE GPRESSURE VOLUME PRESSAVG GPRESSAVG
ENERGY: 600000 3.5384 9.5761 17.6272 0.0000 -13101.3565 2075.7768 0.0000 0.0000 1062.7455 -9932.0925 178.8323 -10994.8380 -9930.1297 178.8323 -116.8969 -59.5367 29091.5151 -116.8969 -59.5367
ENERGY: 700000 8.0300 10.7419 18.4600 0.0000 -12501.7413 1889.1967 0.0000 0.0000 1238.9384 -9336.3744 208.4809 -10575.3127 -9333.4521 209.8887 -457.0727 -359.0863 29430.9291 2.9009 3.0358
TCL: Running 100000 steps at 240 kelvin.
TCL: Setting parameter langevinTemp to 240
TCL: Running for 100000 steps
ETITLE: TS BOND ANGLE DIHED IMPRP ELECT VDW BOUNDARY MISC KINETIC TOTAL TEMP POTENTIAL TOTAL3 TEMPAVG PRESSURE GPRESSURE VOLUME PRESSAVG GPRESSAVG
ENERGY: 700000 8.0300 10.7419 18.4600 0.0000 -12501.7413 1889.1967 0.0000 0.0000 1238.3154 -9336.9973 208.3761 -10575.3127 -9335.0426 208.3761 -427.8784 -358.7678 29430.9291 -427.8784 -358.7678
ENERGY: 800000 8.2839 15.0555 20.4928 0.0000 -11793.7577 1662.3539 0.0000 0.0000 1461.6044 -8625.9672 245.9498 -10087.5716 -8621.2486 239.9803 171.8002 266.7725 28939.1947 3.7683 3.6724
TCL: Running 100000 steps at 270 kelvin.
TCL: Setting parameter langevinTemp to 270
TCL: Running for 100000 steps
ETITLE: TS BOND ANGLE DIHED IMPRP ELECT VDW BOUNDARY MISC KINETIC TOTAL TEMP POTENTIAL TOTAL3 TEMPAVG PRESSURE GPRESSURE VOLUME PRESSAVG GPRESSAVG
ENERGY: 800000 8.2839 15.0555 20.4928 0.0000 -11793.7577 1662.3539 0.0000 0.0000 1460.9108 -8626.6608 245.8331 -10087.5716 -8624.7129 245.8331 202.8235 269.2035 28939.1947 202.8235 269.2035
ENERGY: 900000 7.9453 11.3587 18.0296 0.0000 -11069.5969 1432.5246 0.0000 0.0000 1639.6938 -7960.0449 275.9175 -9599.7387 -7959.4688 270.0412 -1029.8901 -976.2675 30422.6870 3.6037 3.5605
TCL: Running 1000000 steps at 300 kelvin.
TCL: Setting parameter langevinTemp to 300
TCL: Running for 1000000 steps
ETITLE: TS BOND ANGLE DIHED IMPRP ELECT VDW BOUNDARY MISC KINETIC TOTAL TEMP POTENTIAL TOTAL3 TEMPAVG PRESSURE GPRESSURE VOLUME PRESSAVG GPRESSAVG
ENERGY: 900000 7.9453 11.3587 18.0296 0.0000 -11069.5969 1432.5246 0.0000 0.0000 1638.9201 -7960.8186 275.7874 -9599.7387 -7957.7009 275.7874 -1069.0737 -978.6700 30422.6870 -1069.0737 -978.6700
ENERGY: 1100000 5.1782 11.3719 17.6104 0.0000 -10818.4500 1475.0966 0.0000 0.0000 1738.2957 -7570.8972 292.5097 -9309.1929 -7569.1525 300.1616 159.7180 345.3640 30810.9485 4.0813 3.9826
ENERGY: 1300000 10.0025 11.9247 20.3690 0.0000 -10651.0083 1388.9215 0.0000 0.0000 1810.3912 -7409.3995 304.6415 -9219.7907 -7403.1675 300.2210 52.3003 84.6490 30537.5831 3.1215 3.1939
ENERGY: 1500000 6.7572 16.7829 19.4716 0.0000 -10560.0633 1261.7608 0.0000 0.0000 1808.4077 -7446.8831 304.3077 -9255.2908 -7443.7272 299.8913 -1090.8555 -987.7369 30430.0255 3.5456 3.5124
ENERGY: 1700000 8.4941 19.5713 25.0030 0.0000 -10747.2261 1442.1487 0.0000 0.0000 1825.6086 -7426.4003 307.2022 -9252.0089 -7421.9674 300.1979 403.7409 415.2718 30473.5758 5.0859 5.0329
ENERGY: 1900000 8.8166 9.7905 19.5650 0.0000 -10609.8519 1382.2180 0.0000 0.0000 1836.3667 -7353.0951 309.0125 -9189.4618 -7349.7140 299.4603 -161.2115 -104.9110 30836.1576 1.5532 1.4790
TCL: Exiting due to exit command.
