Info: SIMULATION PARAMETERS:
Info: TIMESTEP               2
Info: NUMBER OF STEPS        0
Info: STEPS PER CYCLE        10
Info: PERIODIC CELL BASIS 1  37.435 0 0
Info: PERIODIC CELL BASIS 2  0 32.158 0
Info: PERIODIC CELL BASIS 3  0 0 36.199
Info: PERIODIC CELL CENTER   0 0 0
Info: WRAPPING WATERS AROUND PERIODIC BOUNDARIES ON OUTPUT.
Info: WRAPPING ALL CLUSTERS AROUND PERIODIC BOUNDARIES ON OUTPUT.
Info: FIRST LDB TIMESTEP     50
Info: LAST LDB TIMESTEP     -1
Info: HOM BACKGROUND SCALING 1
Info: PME BACKGROUND SCALING 1
Info: MIN ATOMS PER PATCH    40
Info: EMPTY PATCH LOAD       40 ATOMS
Info: INITIAL TEMPERATURE    300
Info: CENTER OF MASS MOVING INITIALLY? NO
Info: DIELECTRIC             1
Info: EXCLUDE                SCALED ONE-FOUR
Info: 1-4 ELECTROSTATICS SCALED BY 0.833333
Info: MODIFIED 1-4 VDW PARAMETERS WILL BE USED
Info: DCD FILENAME           mobley_4934872_equil.dcd
Info: DCD FREQUENCY          100000
Info: DCD FIRST STEP         100000
Info: DCD FILE WILL CONTAIN UNIT CELL DATA
Info: XST FILENAME           mobley_4934872_equil.xst
Info: XST FREQUENCY          100000
Info: NO VELOCITY DCD OUTPUT
Info: NO FORCE DCD OUTPUT
Info: OUTPUT FILENAME        mobley_4934872_equil
Info: BINARY OUTPUT FILES WILL BE USED
Info: RESTART FILENAME       mobley_4934872_equil.restart
Info: RESTART FREQUENCY      100000
Info: BINARY RESTART FILES WILL BE USED
Info: CUTOFF                 9
Info: PAIRLIST DISTANCE      11
Info: PAIRLIST SHRINK RATE   0.01
Info: PAIRLIST GROW RATE     0.01
Info: PAIRLIST TRIGGER       0.3
Info: PAIRLISTS PER CYCLE    2
Info: PAIRLISTS ENABLED
Info: MARGIN                 8
Info: HYDROGEN GROUP CUTOFF  2.5
Info: PATCH DIMENSION        21.5
Info: ENERGY OUTPUT STEPS    100000
Info: ENERGY EVALUATION STEPS    100000
Info: OUTPUT ENERGY PRECISION 4
Info: CROSSTERM ENERGY INCLUDED IN DIHEDRAL
Info: TIMING OUTPUT STEPS    1000000
Info: PRESSURE OUTPUT STEPS  100000
Info: LANGEVIN DYNAMICS ACTIVE
Info: LANGEVIN TEMPERATURE   30
Info: LANGEVIN USING BBK INTEGRATOR
Info: LANGEVIN DAMPING COEFFICIENT IS 1 INVERSE PS
Info: LANGEVIN DYNAMICS APPLIED TO HYDROGENS
Info: LANGEVIN PISTON PRESSURE CONTROL ACTIVE
Info:        TARGET PRESSURE IS 1.01325 BAR
Info:     OSCILLATION PERIOD IS 50 FS
Info:             DECAY TIME IS 25 FS
Info:     PISTON TEMPERATURE IS 300 K
Info:       PRESSURE CONTROL IS GROUP-BASED
Info:    INITIAL STRAIN RATE IS 0 0 0
Info:       CELL FLUCTUATION IS ISOTROPIC
Info: PARTICLE MESH EWALD (PME) ACTIVE
Info: PME TOLERANCE               1e-06
Info: PME EWALD COEFFICIENT       0.348832
Info: PME INTERPOLATION ORDER     4
Info: PME GRID DIMENSIONS         40 36 40
Info: PME MAXIMUM GRID SPACING    1
Info: FULL ELECTROSTATIC EVALUATION FREQUENCY      2
Info: USING VERLET I (r-RESPA) MTS SCHEME.
Info: C1 SPLITTING OF LONG RANGE ELECTROSTATICS
Info: PLACING ATOMS IN PATCHES BY HYDROGEN GROUPS
Info: RIGID BONDS TO HYDROGEN : ALL
Info:         ERROR TOLERANCE : 1e-08
Info:          MAX ITERATIONS : 100
Info: RIGID WATER USING SETTLE ALGORITHM
Info: RANDOM NUMBER SEED     1743262913
Info: USE HYDROGEN BONDS?    NO
Info: Using AMBER format force field!
Info: AMBER PARM FILE        mobley_4934872.prmtop
Info: COORDINATE PDB         mobley_4934872.pdb
Info: Exclusions will be read from PARM file!
Info: SCNB (VDW SCALING)     2
Info: USING ARITHMETIC MEAN TO COMBINE L-J SIGMA PARAMETERS
Info: BINARY COORDINATES     mobley_4934872_min.coor
Info: SUMMARY OF PARAMETERS:
Info: 10 BONDS
Info: 13 ANGLES
Info:   13 HARMONIC
Info:   0 COSINE-BASED
Info: 12 DIHEDRAL
Info: 0 IMPROPER
Info: 0 CROSSTERM
Info: 0 VDW
Info: 45 VDW_PAIRS
Info: 0 NBTHOLE_PAIRS
Info: STRUCTURE SUMMARY:
Info: 2934 ATOMS
Info: 2934 BONDS
Info: 51 ANGLES
Info: 81 DIHEDRALS
Info: 0 IMPROPERS
Info: 0 CROSSTERMS
Info: 3041 EXCLUSIONS
Info: 2920 RIGID BONDS
Info: 5882 DEGREES OF FREEDOM
Info: 982 HYDROGEN GROUPS
Info: 4 ATOMS IN LARGEST HYDROGEN GROUP
Info: 982 MIGRATION GROUPS
Info: 4 ATOMS IN LARGEST MIGRATION GROUP
Info: TOTAL MASS = 17635.7 amu
Info: TOTAL CHARGE = -0.000199988 e
Info: MASS DENSITY = 0.672031 g/cm^3
Info: ATOM DENSITY = 0.0673281 atoms/A^3
Info: ADDED 0 IMPLICIT EXCLUSIONS
Info: NONBONDED TABLE R-SQUARED SPACING: 0.0625
Info: NONBONDED TABLE SIZE: 705 POINTS
Info: REMOVING COM VELOCITY -0.0853724 -0.0526462 0.138091
TCL: Running for 100000 steps
ETITLE: TS BOND ANGLE DIHED IMPRP ELECT VDW BOUNDARY MISC KINETIC TOTAL TEMP POTENTIAL TOTAL3 TEMPAVG PRESSURE GPRESSURE VOLUME PRESSAVG GPRESSAVG
ENERGY: 0 0.2684 1.5171 10.9942 0.0000 -13537.9728 2361.1432 0.0000 0.0000 1762.8745 -9401.1754 301.6385 -11164.0499 -9400.8089 301.6385 309.0533 350.0359 43577.6134 309.0533 350.0359
ENERGY: 100000 0.9595 1.9209 13.0307 0.0000 -14142.7104 2577.0040 0.0000 0.0000 171.7754 -11378.0198 29.3918 -11549.7952 -11377.3979 30.9134 1048.6367 1094.2404 29817.1657 3.9269 3.9615
TCL: Running 100000 steps at 60 kelvin.
TCL: Setting parameter langevinTemp to 60
TCL: Running for 100000 steps
ETITLE: TS BOND ANGLE DIHED IMPRP ELECT VDW BOUNDARY MISC KINETIC TOTAL TEMP POTENTIAL TOTAL3 TEMPAVG PRESSURE GPRESSURE VOLUME PRESSAVG GPRESSAVG
ENERGY: 100000 0.9595 1.9209 13.0307 0.0000 -14142.7104 2577.0040 0.0000 0.0000 171.6873 -11378.1079 29.3767 -11549.7952 -11377.7259 29.3767 1050.5356 1094.3781 29817.1657 1050.5356 1094.3781
ENERGY: 200000 1.9256 1.7981 12.9887 0.0000 -13923.9206 2354.0479 0.0000 0.0000 355.5284 -11197.6318 60.8331 -11553.1602 -11196.3671 59.9360 -676.8151 -616.4476 29333.3642 4.5964 4.6112
TCL: Running 100000 steps at 90 kelvin.
TCL: Setting parameter langevinTemp to 90
TCL: Running for 100000 steps
ETITLE: TS BOND ANGLE DIHED IMPRP ELECT VDW BOUNDARY MISC KINETIC TOTAL TEMP POTENTIAL TOTAL3 TEMPAVG PRESSURE GPRESSURE VOLUME PRESSAVG GPRESSAVG
ENERGY: 200000 1.9256 1.7981 12.9887 0.0000 -13923.9206 2354.0479 0.0000 0.0000 355.3554 -11197.8049 60.8035 -11553.1602 -11196.8925 60.8035 -669.2661 -616.8703 29333.3642 -669.2661 -616.8703
ENERGY: 300000 2.5673 3.7667 12.8876 0.0000 -13923.8195 2455.5227 0.0000 0.0000 521.1896 -10927.8856 89.1787 -11449.0752 -10927.1187 90.2677 869.3312 896.9399 28848.0707 3.7579 3.7893
TCL: Running 100000 steps at 120 kelvin.
TCL: Setting parameter langevinTemp to 120
TCL: Running for 100000 steps
ETITLE: TS BOND ANGLE DIHED IMPRP ELECT VDW BOUNDARY MISC KINETIC TOTAL TEMP POTENTIAL TOTAL3 TEMPAVG PRESSURE GPRESSURE VOLUME PRESSAVG GPRESSAVG
ENERGY: 300000 2.5673 3.7667 12.8876 0.0000 -13923.8195 2455.5227 0.0000 0.0000 520.9358 -10928.1395 89.1353 -11449.0752 -10927.0335 89.1353 846.6650 895.9042 28848.0707 846.6650 895.9042
ENERGY: 400000 1.2416 5.5988 11.9642 0.0000 -13769.5063 2440.4959 0.0000 0.0000 710.7865 -10599.4193 121.6199 -11310.2058 -10597.1463 119.9708 1226.0149 1293.3430 28893.6718 5.0005 5.0178
TCL: Running 100000 steps at 150 kelvin.
TCL: Setting parameter langevinTemp to 150
TCL: Running for 100000 steps
ETITLE: TS BOND ANGLE DIHED IMPRP ELECT VDW BOUNDARY MISC KINETIC TOTAL TEMP POTENTIAL TOTAL3 TEMPAVG PRESSURE GPRESSURE VOLUME PRESSAVG GPRESSAVG
ENERGY: 400000 1.2416 5.5988 11.9642 0.0000 -13769.5063 2440.4959 0.0000 0.0000 710.4489 -10599.7569 121.5621 -11310.2058 -10598.2360 121.5621 1248.6321 1293.4890 28893.6718 1248.6321 1293.4890
ENERGY: 500000 1.2193 9.6855 15.1732 0.0000 -13477.7209 2218.6014 0.0000 0.0000 849.4476 -10383.5938 145.3456 -11233.0414 -10381.4943 150.1297 -352.6832 -254.3571 28814.6127 4.9433 4.9101
TCL: Running 100000 steps at 180 kelvin.
TCL: Setting parameter langevinTemp to 180
TCL: Running for 100000 steps
ETITLE: TS BOND ANGLE DIHED IMPRP ELECT VDW BOUNDARY MISC KINETIC TOTAL TEMP POTENTIAL TOTAL3 TEMPAVG PRESSURE GPRESSURE VOLUME PRESSAVG GPRESSAVG
ENERGY: 500000 1.2193 9.6855 15.1732 0.0000 -13477.7209 2218.6014 0.0000 0.0000 849.0285 -10384.0128 145.2739 -11233.0414 -10382.0963 145.2739 -284.0206 -254.4545 28814.6127 -284.0206 -254.4545
ENERGY: 600000 2.6640 9.4447 17.8890 0.0000 -12966.2766 2075.2018 0.0000 0.0000 1059.0677 -9802.0094 181.2129 -10861.0771 -9801.3324 180.0159 -21.2029 84.7899 28522.6829 2.8608 2.9101
TCL: Running 100000 steps at 210 kelvin.
TCL: Setting parameter langevinTemp to 210
TCL: Running for 100000 steps
ETITLE: TS BOND ANGLE DIHED IMPRP ELECT VDW BOUNDARY MISC KINETIC TOTAL TEMP POTENTIAL TOTAL3 TEMPAVG PRESSURE GPRESSURE VOLUME PRESSAVG GPRESSAVG
ENERGY: 600000 2.6640 9.4447 17.8890 0.0000 -12966.2766 2075.2018 0.0000 0.0000 1058.5329 -9802.5442 181.1214 -10861.0771 -9800.3547 181.1214 10.1756 82.5800 28522.6829 10.1756 82.5800
ENERGY: 700000 2.8981 11.2086 13.3646 0.0000 -12278.2418 1841.6499 0.0000 0.0000 1201.0412 -9208.0795 205.5054 -10409.1207 -9203.8142 209.9617 -201.6695 -136.1657 28553.7292 3.3308 3.2335
TCL: Running 100000 steps at 240 kelvin.
TCL: Setting parameter langevinTemp to 240
TCL: Running for 100000 steps
ETITLE: TS BOND ANGLE DIHED IMPRP ELECT VDW BOUNDARY MISC KINETIC TOTAL TEMP POTENTIAL TOTAL3 TEMPAVG PRESSURE GPRESSURE VOLUME PRESSAVG GPRESSAVG
ENERGY: 700000 2.8981 11.2086 13.3646 0.0000 -12278.2418 1841.6499 0.0000 0.0000 1200.4321 -9208.6886 205.4012 -10409.1207 -9206.3694 205.4012 -207.4022 -135.1593 28553.7292 -207.4022 -135.1593
ENERGY: 800000 3.5274 6.9436 16.2087 0.0000 -11719.9432 1696.3953 0.0000 0.0000 1394.6062 -8602.2620 238.6256 -9996.8682 -8598.3922 239.9306 -42.8787 101.8445 29060.6814 4.2682 4.3168
TCL: Running 100000 steps at 270 kelvin.
TCL: Setting parameter langevinTemp to 270
TCL: Running for 100000 steps
ETITLE: TS BOND ANGLE DIHED IMPRP ELECT VDW BOUNDARY MISC KINETIC TOTAL TEMP POTENTIAL TOTAL3 TEMPAVG PRESSURE GPRESSURE VOLUME PRESSAVG GPRESSAVG
ENERGY: 800000 3.5274 6.9436 16.2087 0.0000 -11719.9432 1696.3953 0.0000 0.0000 1393.9058 -8602.9624 238.5057 -9996.8682 -8600.0521 238.5057 14.5186 102.5133 29060.6814 14.5186 102.5133
ENERGY: 900000 4.4071 14.1843 15.1591 0.0000 -11091.5632 1527.3185 0.0000 0.0000 1618.2586 -7912.2356 276.8938 -9530.4942 -7908.3369 269.7495 -87.4803 22.3050 29586.1441 2.2797 2.2588
TCL: Running 1000000 steps at 300 kelvin.
TCL: Setting parameter langevinTemp to 300
TCL: Running for 1000000 steps
ETITLE: TS BOND ANGLE DIHED IMPRP ELECT VDW BOUNDARY MISC KINETIC TOTAL TEMP POTENTIAL TOTAL3 TEMPAVG PRESSURE GPRESSURE VOLUME PRESSAVG GPRESSAVG
ENERGY: 900000 4.4071 14.1843 15.1591 0.0000 -11091.5632 1527.3185 0.0000 0.0000 1617.4711 -7913.0232 276.7591 -9530.4942 -7910.3933 276.7591 -60.8759 22.5531 29586.1441 -60.8759 22.5531
ENERGY: 1100000 6.3890 11.5848 17.4538 0.0000 -10633.5639 1471.9600 0.0000 0.0000 1722.8986 -7403.2777 294.7984 -9126.1763 -7399.6205 299.6803 710.7413 777.7202 29973.8878 2.6098 2.5545
ENERGY: 1300000 3.0903 12.0326 18.8753 0.0000 -10622.0591 1451.7577 0.0000 0.0000 1786.0394 -7350.2637 305.6021 -9136.3031 -7346.5391 300.1605 334.4427 381.0192 30344.1934 2.9933 2.8758
ENERGY: 1500000 4.6432 12.9230 15.1531 0.0000 -10482.0391 1372.0214 0.0000 0.0000 1742.1461 -7335.1523 298.0917 -9077.2984 -7333.4266 300.3220 154.8323 167.4028 30077.3883 4.2526 4.1770
ENERGY: 1700000 2.0932 13.6362 15.6478 0.0000 -10467.1611 1326.9050 0.0000 0.0000 1727.6987 -7381.1802 295.6197 -9108.8789 -7376.9473 300.1398 -520.6461 -386.2853 30461.6895 5.3443 5.2104
ENERGY: 1900000 3.5618 9.9574 14.8682 0.0000 -10583.5145 1391.2208 0.0000 0.0000 1766.6981 -7397.2083 302.2927 -9163.9064 -7396.6387 299.9430 -247.9977 -141.8616 30307.5380 2.5564 2.6077
TCL: Exiting due to exit command.
