Info: SIMULATION PARAMETERS:
Info: TIMESTEP               2
Info: NUMBER OF STEPS        0
Info: STEPS PER CYCLE        10
Info: PERIODIC CELL BASIS 1  34.207 0 0
Info: PERIODIC CELL BASIS 2  0 33.542 0
Info: PERIODIC CELL BASIS 3  0 0 37.451
Info: PERIODIC CELL CENTER   0 0 0
Info: WRAPPING WATERS AROUND PERIODIC BOUNDARIES ON OUTPUT.
Info: WRAPPING ALL CLUSTERS AROUND PERIODIC BOUNDARIES ON OUTPUT.
Info: FIRST LDB TIMESTEP     50
Info: LAST LDB TIMESTEP     -1
Info: HOM BACKGROUND SCALING 1
Info: PME BACKGROUND SCALING 1
Info: MIN ATOMS PER PATCH    40
Info: EMPTY PATCH LOAD       40 ATOMS
Info: INITIAL TEMPERATURE    300
Info: CENTER OF MASS MOVING INITIALLY? NO
Info: DIELECTRIC             1
Info: EXCLUDE                SCALED ONE-FOUR
Info: 1-4 ELECTROSTATICS SCALED BY 0.833333
Info: MODIFIED 1-4 VDW PARAMETERS WILL BE USED
Info: DCD FILENAME           mobley_2802855_equil.dcd
Info: DCD FREQUENCY          100000
Info: DCD FIRST STEP         100000
Info: DCD FILE WILL CONTAIN UNIT CELL DATA
Info: XST FILENAME           mobley_2802855_equil.xst
Info: XST FREQUENCY          100000
Info: NO VELOCITY DCD OUTPUT
Info: NO FORCE DCD OUTPUT
Info: OUTPUT FILENAME        mobley_2802855_equil
Info: BINARY OUTPUT FILES WILL BE USED
Info: RESTART FILENAME       mobley_2802855_equil.restart
Info: RESTART FREQUENCY      100000
Info: BINARY RESTART FILES WILL BE USED
Info: CUTOFF                 9
Info: PAIRLIST DISTANCE      11
Info: PAIRLIST SHRINK RATE   0.01
Info: PAIRLIST GROW RATE     0.01
Info: PAIRLIST TRIGGER       0.3
Info: PAIRLISTS PER CYCLE    2
Info: PAIRLISTS ENABLED
Info: MARGIN                 8
Info: HYDROGEN GROUP CUTOFF  2.5
Info: PATCH DIMENSION        21.5
Info: ENERGY OUTPUT STEPS    100000
Info: ENERGY EVALUATION STEPS    100000
Info: OUTPUT ENERGY PRECISION 4
Info: CROSSTERM ENERGY INCLUDED IN DIHEDRAL
Info: TIMING OUTPUT STEPS    1000000
Info: PRESSURE OUTPUT STEPS  100000
Info: LANGEVIN DYNAMICS ACTIVE
Info: LANGEVIN TEMPERATURE   30
Info: LANGEVIN USING BBK INTEGRATOR
Info: LANGEVIN DAMPING COEFFICIENT IS 1 INVERSE PS
Info: LANGEVIN DYNAMICS APPLIED TO HYDROGENS
Info: LANGEVIN PISTON PRESSURE CONTROL ACTIVE
Info:        TARGET PRESSURE IS 1.01325 BAR
Info:     OSCILLATION PERIOD IS 50 FS
Info:             DECAY TIME IS 25 FS
Info:     PISTON TEMPERATURE IS 300 K
Info:       PRESSURE CONTROL IS GROUP-BASED
Info:    INITIAL STRAIN RATE IS 0 0 0
Info:       CELL FLUCTUATION IS ISOTROPIC
Info: PARTICLE MESH EWALD (PME) ACTIVE
Info: PME TOLERANCE               1e-06
Info: PME EWALD COEFFICIENT       0.348832
Info: PME INTERPOLATION ORDER     4
Info: PME GRID DIMENSIONS         36 36 40
Info: PME MAXIMUM GRID SPACING    1
Info: FULL ELECTROSTATIC EVALUATION FREQUENCY      2
Info: USING VERLET I (r-RESPA) MTS SCHEME.
Info: C1 SPLITTING OF LONG RANGE ELECTROSTATICS
Info: PLACING ATOMS IN PATCHES BY HYDROGEN GROUPS
Info: RIGID BONDS TO HYDROGEN : ALL
Info:         ERROR TOLERANCE : 1e-08
Info:          MAX ITERATIONS : 100
Info: RIGID WATER USING SETTLE ALGORITHM
Info: RANDOM NUMBER SEED     1743238958
Info: USE HYDROGEN BONDS?    NO
Info: Using AMBER format force field!
Info: AMBER PARM FILE        mobley_2802855.prmtop
Info: COORDINATE PDB         mobley_2802855.pdb
Info: Exclusions will be read from PARM file!
Info: SCNB (VDW SCALING)     2
Info: USING ARITHMETIC MEAN TO COMBINE L-J SIGMA PARAMETERS
Info: BINARY COORDINATES     mobley_2802855_min.coor
Info: SUMMARY OF PARAMETERS:
Info: 6 BONDS
Info: 7 ANGLES
Info:   7 HARMONIC
Info:   0 COSINE-BASED
Info: 8 DIHEDRAL
Info: 0 IMPROPER
Info: 0 CROSSTERM
Info: 0 VDW
Info: 21 VDW_PAIRS
Info: 0 NBTHOLE_PAIRS
Info: STRUCTURE SUMMARY:
Info: 2963 ATOMS
Info: 2962 BONDS
Info: 24 ANGLES
Info: 31 DIHEDRALS
Info: 0 IMPROPERS
Info: 0 CROSSTERMS
Info: 3013 EXCLUSIONS
Info: 2958 RIGID BONDS
Info: 5931 DEGREES OF FREEDOM
Info: 988 HYDROGEN GROUPS
Info: 4 ATOMS IN LARGEST HYDROGEN GROUP
Info: 988 MIGRATION GROUPS
Info: 4 ATOMS IN LARGEST MIGRATION GROUP
Info: TOTAL MASS = 17846.7 amu
Info: TOTAL CHARGE = -9.99887e-05 e
Info: MASS DENSITY = 0.689685 g/cm^3
Info: ATOM DENSITY = 0.0689548 atoms/A^3
Info: ADDED 0 IMPLICIT EXCLUSIONS
Info: NONBONDED TABLE R-SQUARED SPACING: 0.0625
Info: NONBONDED TABLE SIZE: 705 POINTS
Info: REMOVING COM VELOCITY -0.243869 -0.0908572 -0.170699
TCL: Running for 100000 steps
ETITLE: TS BOND ANGLE DIHED IMPRP ELECT VDW BOUNDARY MISC KINETIC TOTAL TEMP POTENTIAL TOTAL3 TEMPAVG PRESSURE GPRESSURE VOLUME PRESSAVG GPRESSAVG
ENERGY: 0 0.0209 0.2805 2.0951 0.0000 -13713.6403 2423.5142 0.0000 0.0000 1811.5934 -9476.1362 307.4137 -11287.7296 -9475.7796 307.4137 496.5100 540.0916 42970.1986 496.5100 540.0916
ENERGY: 100000 0.0797 0.6409 2.0937 0.0000 -14444.4180 2597.8248 0.0000 0.0000 175.9770 -11667.8019 29.8620 -11843.7789 -11667.2632 30.9614 1137.6175 1191.0752 28042.3157 5.4654 5.4372
TCL: Running 100000 steps at 60 kelvin.
TCL: Setting parameter langevinTemp to 60
TCL: Running for 100000 steps
ETITLE: TS BOND ANGLE DIHED IMPRP ELECT VDW BOUNDARY MISC KINETIC TOTAL TEMP POTENTIAL TOTAL3 TEMPAVG PRESSURE GPRESSURE VOLUME PRESSAVG GPRESSAVG
ENERGY: 100000 0.0797 0.6409 2.0937 0.0000 -14444.4180 2597.8248 0.0000 0.0000 175.8887 -11667.8902 29.8470 -11843.7789 -11667.5924 29.8470 1125.9001 1191.2664 28042.3157 1125.9001 1191.2664
ENERGY: 200000 0.2964 1.2843 2.1877 0.0000 -14220.9514 2456.7862 0.0000 0.0000 356.5036 -11403.8933 60.4960 -11760.3969 -11403.3610 59.9190 118.0167 159.1411 28287.4604 3.4223 3.3660
TCL: Running 100000 steps at 90 kelvin.
TCL: Setting parameter langevinTemp to 90
TCL: Running for 100000 steps
ETITLE: TS BOND ANGLE DIHED IMPRP ELECT VDW BOUNDARY MISC KINETIC TOTAL TEMP POTENTIAL TOTAL3 TEMPAVG PRESSURE GPRESSURE VOLUME PRESSAVG GPRESSAVG
ENERGY: 200000 0.2964 1.2843 2.1877 0.0000 -14220.9514 2456.7862 0.0000 0.0000 356.3316 -11404.0652 60.4668 -11760.3969 -11403.1997 60.4668 99.3804 159.0105 28287.4604 99.3804 159.0105
ENERGY: 300000 0.6479 1.4163 2.1216 0.0000 -13872.3442 2243.0613 0.0000 0.0000 532.5412 -11092.5558 90.3682 -11625.0970 -11090.7942 89.8647 -1259.9730 -1216.5253 28781.8776 3.0882 3.0271
TCL: Running 100000 steps at 120 kelvin.
TCL: Setting parameter langevinTemp to 120
TCL: Running for 100000 steps
ETITLE: TS BOND ANGLE DIHED IMPRP ELECT VDW BOUNDARY MISC KINETIC TOTAL TEMP POTENTIAL TOTAL3 TEMPAVG PRESSURE GPRESSURE VOLUME PRESSAVG GPRESSAVG
ENERGY: 300000 0.6479 1.4163 2.1216 0.0000 -13872.3442 2243.0613 0.0000 0.0000 532.2728 -11092.8242 90.3227 -11625.0970 -11091.3403 90.3227 -1273.3803 -1216.2178 28781.8776 -1273.3803 -1216.2178
ENERGY: 400000 1.2270 1.7428 2.1948 0.0000 -13838.3228 2344.1278 0.0000 0.0000 732.7540 -10756.2763 124.3428 -11489.0303 -10754.3133 119.8286 214.9580 245.2386 28668.9032 4.3642 4.3872
TCL: Running 100000 steps at 150 kelvin.
TCL: Setting parameter langevinTemp to 150
TCL: Running for 100000 steps
ETITLE: TS BOND ANGLE DIHED IMPRP ELECT VDW BOUNDARY MISC KINETIC TOTAL TEMP POTENTIAL TOTAL3 TEMPAVG PRESSURE GPRESSURE VOLUME PRESSAVG GPRESSAVG
ENERGY: 400000 1.2270 1.7428 2.1948 0.0000 -13838.3228 2344.1278 0.0000 0.0000 732.3946 -10756.6357 124.2818 -11489.0303 -10755.1411 124.2818 183.7962 245.5794 28668.9032 183.7962 245.5794
ENERGY: 500000 0.2411 2.5719 1.8609 0.0000 -13521.8127 2169.9763 0.0000 0.0000 883.2517 -10463.9109 149.8811 -11347.1626 -10462.1477 149.9331 -786.7920 -753.0498 29042.2851 3.1655 3.0168
TCL: Running 100000 steps at 180 kelvin.
TCL: Setting parameter langevinTemp to 180
TCL: Running for 100000 steps
ETITLE: TS BOND ANGLE DIHED IMPRP ELECT VDW BOUNDARY MISC KINETIC TOTAL TEMP POTENTIAL TOTAL3 TEMPAVG PRESSURE GPRESSURE VOLUME PRESSAVG GPRESSAVG
ENERGY: 500000 0.2411 2.5719 1.8609 0.0000 -13521.8127 2169.9763 0.0000 0.0000 882.7962 -10464.3663 149.8038 -11347.1626 -10462.4008 149.8038 -793.9660 -752.7947 29042.2851 -793.9660 -752.7947
ENERGY: 600000 0.6962 4.2820 2.3622 0.0000 -13182.2136 2148.2246 0.0000 0.0000 1050.9653 -9975.6834 178.3409 -11026.6488 -9973.4147 179.5006 344.5076 407.4497 28820.6483 4.7431 4.6339
TCL: Running 100000 steps at 210 kelvin.
TCL: Setting parameter langevinTemp to 210
TCL: Running for 100000 steps
ETITLE: TS BOND ANGLE DIHED IMPRP ELECT VDW BOUNDARY MISC KINETIC TOTAL TEMP POTENTIAL TOTAL3 TEMPAVG PRESSURE GPRESSURE VOLUME PRESSAVG GPRESSAVG
ENERGY: 600000 0.6962 4.2820 2.3622 0.0000 -13182.2136 2148.2246 0.0000 0.0000 1050.4351 -9976.2137 178.2509 -11026.6488 -9974.1551 178.2509 352.4277 407.9236 28820.6483 352.4277 407.9236
ENERGY: 700000 0.3546 4.2917 1.6903 0.0000 -12587.2435 2022.9420 0.0000 0.0000 1239.0747 -9318.8903 210.2616 -10557.9650 -9315.7278 209.5996 1223.9269 1281.7341 28437.6507 3.3479 3.3777
TCL: Running 100000 steps at 240 kelvin.
TCL: Setting parameter langevinTemp to 240
TCL: Running for 100000 steps
ETITLE: TS BOND ANGLE DIHED IMPRP ELECT VDW BOUNDARY MISC KINETIC TOTAL TEMP POTENTIAL TOTAL3 TEMPAVG PRESSURE GPRESSURE VOLUME PRESSAVG GPRESSAVG
ENERGY: 700000 0.3546 4.2917 1.6903 0.0000 -12587.2435 2022.9420 0.0000 0.0000 1238.4299 -9319.5351 210.1522 -10557.9650 -9317.9107 210.1522 1205.9277 1283.6655 28437.6507 1205.9277 1283.6655
ENERGY: 800000 0.2885 3.9279 2.9368 0.0000 -11893.4388 1736.1492 0.0000 0.0000 1419.1475 -8730.9889 240.8186 -10150.1363 -8728.5024 239.9186 201.1647 376.5743 28789.8210 4.4607 4.4379
TCL: Running 100000 steps at 270 kelvin.
TCL: Setting parameter langevinTemp to 270
TCL: Running for 100000 steps
ETITLE: TS BOND ANGLE DIHED IMPRP ELECT VDW BOUNDARY MISC KINETIC TOTAL TEMP POTENTIAL TOTAL3 TEMPAVG PRESSURE GPRESSURE VOLUME PRESSAVG GPRESSAVG
ENERGY: 800000 0.2885 3.9279 2.9368 0.0000 -11893.4388 1736.1492 0.0000 0.0000 1418.4436 -8731.6928 240.6991 -10150.1363 -8729.4195 240.6991 269.7690 375.1634 28789.8210 269.7690 375.1634
ENERGY: 900000 0.4062 3.9882 3.0465 0.0000 -11331.4665 1635.1734 0.0000 0.0000 1597.8541 -8090.9980 271.1437 -9688.8521 -8088.3025 270.4636 271.4397 389.8693 29970.6398 2.1497 2.0799
TCL: Running 1000000 steps at 300 kelvin.
TCL: Setting parameter langevinTemp to 300
TCL: Running for 1000000 steps
ETITLE: TS BOND ANGLE DIHED IMPRP ELECT VDW BOUNDARY MISC KINETIC TOTAL TEMP POTENTIAL TOTAL3 TEMPAVG PRESSURE GPRESSURE VOLUME PRESSAVG GPRESSAVG
ENERGY: 900000 0.4062 3.9882 3.0465 0.0000 -11331.4665 1635.1734 0.0000 0.0000 1597.0544 -8091.7977 271.0080 -9688.8521 -8089.3846 271.0080 310.1774 388.7603 29970.6398 310.1774 388.7603
ENERGY: 1100000 0.6968 4.4043 2.1863 0.0000 -10787.2108 1464.9964 0.0000 0.0000 1811.7172 -7503.2097 307.4347 -9314.9270 -7499.7156 299.9411 8.3264 58.6028 30798.9555 3.0491 2.9543
ENERGY: 1300000 1.1268 6.8809 2.1488 0.0000 -10728.3483 1464.0007 0.0000 0.0000 1751.7333 -7502.4578 297.2559 -9254.1911 -7496.6749 300.0640 158.9822 297.8199 30561.4764 5.1674 5.0463
ENERGY: 1500000 2.2569 6.3501 2.8249 0.0000 -10757.9372 1488.7205 0.0000 0.0000 1779.0025 -7478.7823 301.8832 -9257.7847 -7474.9174 299.9076 97.1635 105.8198 30977.5292 4.6510 4.5867
ENERGY: 1700000 1.2196 11.4434 4.8378 0.0000 -10860.7405 1549.5435 0.0000 0.0000 1756.1498 -7537.5464 298.0053 -9293.6962 -7531.7161 299.9653 638.1411 724.9308 30614.5611 3.8411 3.9364
ENERGY: 1900000 0.1289 5.7830 2.6115 0.0000 -10781.6805 1484.9135 0.0000 0.0000 1779.2305 -7509.0131 301.9219 -9288.2436 -7504.0013 299.1464 802.3139 831.7713 29981.4424 2.8877 2.7725
TCL: Exiting due to exit command.
