Info: SIMULATION PARAMETERS:
Info: TIMESTEP               2
Info: NUMBER OF STEPS        0
Info: STEPS PER CYCLE        10
Info: PERIODIC CELL BASIS 1  32.955 0 0
Info: PERIODIC CELL BASIS 2  0 33.314 0
Info: PERIODIC CELL BASIS 3  0 0 39.119
Info: PERIODIC CELL CENTER   0 0 0
Info: WRAPPING WATERS AROUND PERIODIC BOUNDARIES ON OUTPUT.
Info: WRAPPING ALL CLUSTERS AROUND PERIODIC BOUNDARIES ON OUTPUT.
Info: FIRST LDB TIMESTEP     50
Info: LAST LDB TIMESTEP     -1
Info: HOM BACKGROUND SCALING 1
Info: PME BACKGROUND SCALING 1
Info: MIN ATOMS PER PATCH    40
Info: EMPTY PATCH LOAD       40 ATOMS
Info: INITIAL TEMPERATURE    300
Info: CENTER OF MASS MOVING INITIALLY? NO
Info: DIELECTRIC             1
Info: EXCLUDE                SCALED ONE-FOUR
Info: 1-4 ELECTROSTATICS SCALED BY 0.833333
Info: MODIFIED 1-4 VDW PARAMETERS WILL BE USED
Info: DCD FILENAME           mobley_4587267_equil.dcd
Info: DCD FREQUENCY          100000
Info: DCD FIRST STEP         100000
Info: DCD FILE WILL CONTAIN UNIT CELL DATA
Info: XST FILENAME           mobley_4587267_equil.xst
Info: XST FREQUENCY          100000
Info: NO VELOCITY DCD OUTPUT
Info: NO FORCE DCD OUTPUT
Info: OUTPUT FILENAME        mobley_4587267_equil
Info: BINARY OUTPUT FILES WILL BE USED
Info: RESTART FILENAME       mobley_4587267_equil.restart
Info: RESTART FREQUENCY      100000
Info: BINARY RESTART FILES WILL BE USED
Info: CUTOFF                 9
Info: PAIRLIST DISTANCE      11
Info: PAIRLIST SHRINK RATE   0.01
Info: PAIRLIST GROW RATE     0.01
Info: PAIRLIST TRIGGER       0.3
Info: PAIRLISTS PER CYCLE    2
Info: PAIRLISTS ENABLED
Info: MARGIN                 8
Info: HYDROGEN GROUP CUTOFF  2.5
Info: PATCH DIMENSION        21.5
Info: ENERGY OUTPUT STEPS    100000
Info: ENERGY EVALUATION STEPS    100000
Info: OUTPUT ENERGY PRECISION 4
Info: CROSSTERM ENERGY INCLUDED IN DIHEDRAL
Info: TIMING OUTPUT STEPS    1000000
Info: PRESSURE OUTPUT STEPS  100000
Info: LANGEVIN DYNAMICS ACTIVE
Info: LANGEVIN TEMPERATURE   30
Info: LANGEVIN USING BBK INTEGRATOR
Info: LANGEVIN DAMPING COEFFICIENT IS 1 INVERSE PS
Info: LANGEVIN DYNAMICS APPLIED TO HYDROGENS
Info: LANGEVIN PISTON PRESSURE CONTROL ACTIVE
Info:        TARGET PRESSURE IS 1.01325 BAR
Info:     OSCILLATION PERIOD IS 50 FS
Info:             DECAY TIME IS 25 FS
Info:     PISTON TEMPERATURE IS 300 K
Info:       PRESSURE CONTROL IS GROUP-BASED
Info:    INITIAL STRAIN RATE IS 0 0 0
Info:       CELL FLUCTUATION IS ISOTROPIC
Info: PARTICLE MESH EWALD (PME) ACTIVE
Info: PME TOLERANCE               1e-06
Info: PME EWALD COEFFICIENT       0.348832
Info: PME INTERPOLATION ORDER     4
Info: PME GRID DIMENSIONS         36 36 40
Info: PME MAXIMUM GRID SPACING    1
Info: FULL ELECTROSTATIC EVALUATION FREQUENCY      2
Info: USING VERLET I (r-RESPA) MTS SCHEME.
Info: C1 SPLITTING OF LONG RANGE ELECTROSTATICS
Info: PLACING ATOMS IN PATCHES BY HYDROGEN GROUPS
Info: RIGID BONDS TO HYDROGEN : ALL
Info:         ERROR TOLERANCE : 1e-08
Info:          MAX ITERATIONS : 100
Info: RIGID WATER USING SETTLE ALGORITHM
Info: RANDOM NUMBER SEED     1743259860
Info: USE HYDROGEN BONDS?    NO
Info: Using AMBER format force field!
Info: AMBER PARM FILE        mobley_4587267.prmtop
Info: COORDINATE PDB         mobley_4587267.pdb
Info: Exclusions will be read from PARM file!
Info: SCNB (VDW SCALING)     2
Info: USING ARITHMETIC MEAN TO COMBINE L-J SIGMA PARAMETERS
Info: BINARY COORDINATES     mobley_4587267_min.coor
Info: SUMMARY OF PARAMETERS:
Info: 6 BONDS
Info: 6 ANGLES
Info:   6 HARMONIC
Info:   0 COSINE-BASED
Info: 10 DIHEDRAL
Info: 0 IMPROPER
Info: 0 CROSSTERM
Info: 0 VDW
Info: 15 VDW_PAIRS
Info: 0 NBTHOLE_PAIRS
Info: STRUCTURE SUMMARY:
Info: 2942 ATOMS
Info: 2941 BONDS
Info: 42 ANGLES
Info: 96 DIHEDRALS
Info: 0 IMPROPERS
Info: 0 CROSSTERMS
Info: 3046 EXCLUSIONS
Info: 2930 RIGID BONDS
Info: 5896 DEGREES OF FREEDOM
Info: 984 HYDROGEN GROUPS
Info: 3 ATOMS IN LARGEST HYDROGEN GROUP
Info: 984 MIGRATION GROUPS
Info: 3 ATOMS IN LARGEST MIGRATION GROUP
Info: TOTAL MASS = 17693.7 amu
Info: TOTAL CHARGE = -1.41561e-07 e
Info: MASS DENSITY = 0.684136 g/cm^3
Info: ATOM DENSITY = 0.0685026 atoms/A^3
Info: ADDED 0 IMPLICIT EXCLUSIONS
Info: NONBONDED TABLE R-SQUARED SPACING: 0.0625
Info: NONBONDED TABLE SIZE: 705 POINTS
Info: REMOVING COM VELOCITY 0.0698598 -0.26087 0.234984
TCL: Running for 100000 steps
ETITLE: TS BOND ANGLE DIHED IMPRP ELECT VDW BOUNDARY MISC KINETIC TOTAL TEMP POTENTIAL TOTAL3 TEMPAVG PRESSURE GPRESSURE VOLUME PRESSAVG GPRESSAVG
ENERGY: 0 0.8178 1.8432 14.8499 0.0000 -13512.3847 2374.1185 0.0000 0.0000 1769.0938 -9351.6615 301.9839 -11120.7553 -9351.2957 301.9839 427.9704 466.0424 42947.2976 427.9704 466.0424
ENERGY: 100000 0.6181 2.3979 16.7239 0.0000 -13950.7114 2295.7168 0.0000 0.0000 174.8386 -11460.4160 29.8449 -11635.2546 -11459.7604 30.9286 -1305.9223 -1250.5799 28696.6298 4.3266 4.3051
TCL: Running 100000 steps at 60 kelvin.
TCL: Setting parameter langevinTemp to 60
TCL: Running for 100000 steps
ETITLE: TS BOND ANGLE DIHED IMPRP ELECT VDW BOUNDARY MISC KINETIC TOTAL TEMP POTENTIAL TOTAL3 TEMPAVG PRESSURE GPRESSURE VOLUME PRESSAVG GPRESSAVG
ENERGY: 100000 0.6181 2.3979 16.7239 0.0000 -13950.7114 2295.7168 0.0000 0.0000 174.7501 -11460.5045 29.8298 -11635.2546 -11460.0331 29.8298 -1310.8273 -1250.4034 28696.6298 -1310.8273 -1250.4034
ENERGY: 200000 1.2513 4.2072 16.1199 0.0000 -14157.9745 2537.1256 0.0000 0.0000 357.1413 -11242.1293 60.9639 -11599.2705 -11241.2533 60.0014 947.7571 968.1214 28230.3481 3.9534 3.8773
TCL: Running 100000 steps at 90 kelvin.
TCL: Setting parameter langevinTemp to 90
TCL: Running for 100000 steps
ETITLE: TS BOND ANGLE DIHED IMPRP ELECT VDW BOUNDARY MISC KINETIC TOTAL TEMP POTENTIAL TOTAL3 TEMPAVG PRESSURE GPRESSURE VOLUME PRESSAVG GPRESSAVG
ENERGY: 200000 1.2513 4.2072 16.1199 0.0000 -14157.9745 2537.1256 0.0000 0.0000 356.9656 -11242.3050 60.9339 -11599.2705 -11241.4134 60.9339 920.5130 967.6120 28230.3481 920.5130 967.6120
ENERGY: 300000 3.4608 3.5862 16.7616 0.0000 -13836.1007 2339.9578 0.0000 0.0000 514.6639 -10957.6704 87.8530 -11472.3342 -10956.1154 89.8759 -464.0794 -401.6705 28599.1940 4.4728 4.5023
TCL: Running 100000 steps at 120 kelvin.
TCL: Setting parameter langevinTemp to 120
TCL: Running for 100000 steps
ETITLE: TS BOND ANGLE DIHED IMPRP ELECT VDW BOUNDARY MISC KINETIC TOTAL TEMP POTENTIAL TOTAL3 TEMPAVG PRESSURE GPRESSURE VOLUME PRESSAVG GPRESSAVG
ENERGY: 300000 3.4608 3.5862 16.7616 0.0000 -13836.1007 2339.9578 0.0000 0.0000 514.4160 -10957.9182 87.8107 -11472.3342 -10956.6588 87.8107 -456.5425 -401.5037 28599.1940 -456.5425 -401.5037
ENERGY: 400000 2.7270 4.4809 16.2026 0.0000 -13687.7892 2309.8049 0.0000 0.0000 713.0980 -10641.4758 121.7257 -11354.5738 -10639.3778 120.1875 -76.5899 -34.0071 28475.8443 3.9190 3.8598
TCL: Running 100000 steps at 150 kelvin.
TCL: Setting parameter langevinTemp to 150
TCL: Running for 100000 steps
ETITLE: TS BOND ANGLE DIHED IMPRP ELECT VDW BOUNDARY MISC KINETIC TOTAL TEMP POTENTIAL TOTAL3 TEMPAVG PRESSURE GPRESSURE VOLUME PRESSAVG GPRESSAVG
ENERGY: 400000 2.7270 4.4809 16.2026 0.0000 -13687.7892 2309.8049 0.0000 0.0000 712.7412 -10641.8326 121.6648 -11354.5738 -10640.3103 121.6648 -83.8501 -33.3180 28475.8443 -83.8501 -33.3180
ENERGY: 500000 1.8123 5.3672 16.0946 0.0000 -13406.4402 2192.4237 0.0000 0.0000 878.9038 -10311.8387 150.0287 -11190.7425 -10308.9352 149.8803 -508.4069 -470.1266 28846.4781 4.4318 4.4946
TCL: Running 100000 steps at 180 kelvin.
TCL: Setting parameter langevinTemp to 180
TCL: Running for 100000 steps
ETITLE: TS BOND ANGLE DIHED IMPRP ELECT VDW BOUNDARY MISC KINETIC TOTAL TEMP POTENTIAL TOTAL3 TEMPAVG PRESSURE GPRESSURE VOLUME PRESSAVG GPRESSAVG
ENERGY: 500000 1.8123 5.3672 16.0946 0.0000 -13406.4402 2192.4237 0.0000 0.0000 878.4637 -10312.2788 149.9535 -11190.7425 -10310.6592 149.9535 -517.9122 -469.2807 28846.4781 -517.9122 -469.2807
ENERGY: 600000 2.2227 7.7207 13.9559 0.0000 -12917.8270 2031.5719 0.0000 0.0000 1033.2433 -9829.1126 176.3744 -10862.3559 -9826.3773 180.0358 -527.2248 -439.7950 28764.4453 4.0556 4.0406
TCL: Running 100000 steps at 210 kelvin.
TCL: Setting parameter langevinTemp to 210
TCL: Running for 100000 steps
ETITLE: TS BOND ANGLE DIHED IMPRP ELECT VDW BOUNDARY MISC KINETIC TOTAL TEMP POTENTIAL TOTAL3 TEMPAVG PRESSURE GPRESSURE VOLUME PRESSAVG GPRESSAVG
ENERGY: 600000 2.2227 7.7207 13.9559 0.0000 -12917.8270 2031.5719 0.0000 0.0000 1032.7357 -9829.6201 176.2877 -10862.3559 -9827.6780 176.2877 -507.4278 -439.4222 28764.4453 -507.4278 -439.4222
ENERGY: 700000 1.8347 8.9444 15.0546 0.0000 -12394.7973 1954.2678 0.0000 0.0000 1223.3979 -9191.2978 208.8337 -10414.6958 -9188.8610 209.5757 157.0733 240.2433 29050.8316 3.5977 3.6493
TCL: Running 100000 steps at 240 kelvin.
TCL: Setting parameter langevinTemp to 240
TCL: Running for 100000 steps
ETITLE: TS BOND ANGLE DIHED IMPRP ELECT VDW BOUNDARY MISC KINETIC TOTAL TEMP POTENTIAL TOTAL3 TEMPAVG PRESSURE GPRESSURE VOLUME PRESSAVG GPRESSAVG
ENERGY: 700000 1.8347 8.9444 15.0546 0.0000 -12394.7973 1954.2678 0.0000 0.0000 1222.7772 -9191.9185 208.7278 -10414.6958 -9189.7399 208.7278 156.4811 239.3204 29050.8316 156.4811 239.3204
ENERGY: 800000 2.6195 8.5432 14.3339 0.0000 -11698.2700 1718.4996 0.0000 0.0000 1404.2957 -8549.9781 239.7129 -9954.2737 -8546.1114 239.8555 -49.6310 76.9781 29124.3236 3.6927 3.6297
TCL: Running 100000 steps at 270 kelvin.
TCL: Setting parameter langevinTemp to 270
TCL: Running for 100000 steps
ETITLE: TS BOND ANGLE DIHED IMPRP ELECT VDW BOUNDARY MISC KINETIC TOTAL TEMP POTENTIAL TOTAL3 TEMPAVG PRESSURE GPRESSURE VOLUME PRESSAVG GPRESSAVG
ENERGY: 800000 2.6195 8.5432 14.3339 0.0000 -11698.2700 1718.4996 0.0000 0.0000 1403.6072 -8550.6665 239.5954 -9954.2737 -8548.6310 239.5954 -6.9904 77.9082 29124.3236 -6.9904 77.9082
ENERGY: 900000 1.1221 10.0195 12.4495 0.0000 -11037.7282 1536.7172 0.0000 0.0000 1574.0984 -7903.3215 268.6982 -9477.4199 -7901.4266 269.9468 54.8469 134.7954 29645.1917 2.7287 2.8949
TCL: Running 1000000 steps at 300 kelvin.
TCL: Setting parameter langevinTemp to 300
TCL: Running for 1000000 steps
ETITLE: TS BOND ANGLE DIHED IMPRP ELECT VDW BOUNDARY MISC KINETIC TOTAL TEMP POTENTIAL TOTAL3 TEMPAVG PRESSURE GPRESSURE VOLUME PRESSAVG GPRESSAVG
ENERGY: 900000 1.1221 10.0195 12.4495 0.0000 -11037.7282 1536.7172 0.0000 0.0000 1573.3050 -7904.1150 268.5628 -9477.4199 -7901.6623 268.5628 54.2161 132.1737 29645.1917 54.2161 132.1737
ENERGY: 1100000 5.4559 16.1883 12.4697 0.0000 -10628.6398 1471.4958 0.0000 0.0000 1768.4945 -7354.5356 301.8816 -9123.0301 -7351.1271 300.5055 123.0520 262.5026 30443.2266 3.1311 2.9997
ENERGY: 1300000 2.4394 13.9024 11.4561 0.0000 -10608.7057 1453.6456 0.0000 0.0000 1715.2951 -7411.9671 292.8005 -9127.2622 -7409.6737 300.3004 157.3928 257.8376 30367.3558 2.6882 2.7091
ENERGY: 1500000 7.6943 11.9628 14.4732 0.0000 -10551.3496 1401.9331 0.0000 0.0000 1749.8203 -7365.4659 298.6939 -9115.2861 -7364.2774 300.1832 -68.7226 24.1537 30022.5810 1.9727 1.9597
ENERGY: 1700000 4.2152 16.6556 10.2784 0.0000 -10715.1212 1473.6431 0.0000 0.0000 1783.6324 -7426.6964 304.4656 -9210.3288 -7422.8812 300.2623 212.0360 277.5765 30125.8976 2.8754 2.9573
ENERGY: 1900000 9.2631 15.1829 14.5762 0.0000 -10683.2949 1486.1585 0.0000 0.0000 1741.6726 -7416.4415 297.3031 -9158.1142 -7413.4338 299.7080 668.5465 732.0085 29697.4609 4.5940 4.5872
TCL: Exiting due to exit command.
