Info: SIMULATION PARAMETERS:
Info: TIMESTEP               2
Info: NUMBER OF STEPS        0
Info: STEPS PER CYCLE        10
Info: PERIODIC CELL BASIS 1  35.89 0 0
Info: PERIODIC CELL BASIS 2  0 34.1 0
Info: PERIODIC CELL BASIS 3  0 0 36.199
Info: PERIODIC CELL CENTER   0 0 0
Info: WRAPPING WATERS AROUND PERIODIC BOUNDARIES ON OUTPUT.
Info: WRAPPING ALL CLUSTERS AROUND PERIODIC BOUNDARIES ON OUTPUT.
Info: FIRST LDB TIMESTEP     50
Info: LAST LDB TIMESTEP     -1
Info: HOM BACKGROUND SCALING 1
Info: PME BACKGROUND SCALING 1
Info: MIN ATOMS PER PATCH    40
Info: EMPTY PATCH LOAD       40 ATOMS
Info: INITIAL TEMPERATURE    300
Info: CENTER OF MASS MOVING INITIALLY? NO
Info: DIELECTRIC             1
Info: EXCLUDE                SCALED ONE-FOUR
Info: 1-4 ELECTROSTATICS SCALED BY 0.833333
Info: MODIFIED 1-4 VDW PARAMETERS WILL BE USED
Info: DCD FILENAME           mobley_1792062_equil.dcd
Info: DCD FREQUENCY          100000
Info: DCD FIRST STEP         100000
Info: DCD FILE WILL CONTAIN UNIT CELL DATA
Info: XST FILENAME           mobley_1792062_equil.xst
Info: XST FREQUENCY          100000
Info: NO VELOCITY DCD OUTPUT
Info: NO FORCE DCD OUTPUT
Info: OUTPUT FILENAME        mobley_1792062_equil
Info: BINARY OUTPUT FILES WILL BE USED
Info: RESTART FILENAME       mobley_1792062_equil.restart
Info: RESTART FREQUENCY      100000
Info: BINARY RESTART FILES WILL BE USED
Info: CUTOFF                 9
Info: PAIRLIST DISTANCE      11
Info: PAIRLIST SHRINK RATE   0.01
Info: PAIRLIST GROW RATE     0.01
Info: PAIRLIST TRIGGER       0.3
Info: PAIRLISTS PER CYCLE    2
Info: PAIRLISTS ENABLED
Info: MARGIN                 8
Info: HYDROGEN GROUP CUTOFF  2.5
Info: PATCH DIMENSION        21.5
Info: ENERGY OUTPUT STEPS    100000
Info: ENERGY EVALUATION STEPS    100000
Info: OUTPUT ENERGY PRECISION 4
Info: CROSSTERM ENERGY INCLUDED IN DIHEDRAL
Info: TIMING OUTPUT STEPS    1000000
Info: PRESSURE OUTPUT STEPS  100000
Info: LANGEVIN DYNAMICS ACTIVE
Info: LANGEVIN TEMPERATURE   30
Info: LANGEVIN USING BBK INTEGRATOR
Info: LANGEVIN DAMPING COEFFICIENT IS 1 INVERSE PS
Info: LANGEVIN DYNAMICS APPLIED TO HYDROGENS
Info: LANGEVIN PISTON PRESSURE CONTROL ACTIVE
Info:        TARGET PRESSURE IS 1.01325 BAR
Info:     OSCILLATION PERIOD IS 50 FS
Info:             DECAY TIME IS 25 FS
Info:     PISTON TEMPERATURE IS 300 K
Info:       PRESSURE CONTROL IS GROUP-BASED
Info:    INITIAL STRAIN RATE IS 0 0 0
Info:       CELL FLUCTUATION IS ISOTROPIC
Info: PARTICLE MESH EWALD (PME) ACTIVE
Info: PME TOLERANCE               1e-06
Info: PME EWALD COEFFICIENT       0.348832
Info: PME INTERPOLATION ORDER     4
Info: PME GRID DIMENSIONS         36 36 40
Info: PME MAXIMUM GRID SPACING    1
Info: FULL ELECTROSTATIC EVALUATION FREQUENCY      2
Info: USING VERLET I (r-RESPA) MTS SCHEME.
Info: C1 SPLITTING OF LONG RANGE ELECTROSTATICS
Info: PLACING ATOMS IN PATCHES BY HYDROGEN GROUPS
Info: RIGID BONDS TO HYDROGEN : ALL
Info:         ERROR TOLERANCE : 1e-08
Info:          MAX ITERATIONS : 100
Info: RIGID WATER USING SETTLE ALGORITHM
Info: RANDOM NUMBER SEED     1743223831
Info: USE HYDROGEN BONDS?    NO
Info: Using AMBER format force field!
Info: AMBER PARM FILE        mobley_1792062.prmtop
Info: COORDINATE PDB         mobley_1792062.pdb
Info: Exclusions will be read from PARM file!
Info: SCNB (VDW SCALING)     2
Info: USING ARITHMETIC MEAN TO COMBINE L-J SIGMA PARAMETERS
Info: BINARY COORDINATES     mobley_1792062_min.coor
Info: SUMMARY OF PARAMETERS:
Info: 5 BONDS
Info: 4 ANGLES
Info:   4 HARMONIC
Info:   0 COSINE-BASED
Info: 4 DIHEDRAL
Info: 0 IMPROPER
Info: 0 CROSSTERM
Info: 0 VDW
Info: 15 VDW_PAIRS
Info: 0 NBTHOLE_PAIRS
Info: STRUCTURE SUMMARY:
Info: 2957 ATOMS
Info: 2956 BONDS
Info: 12 ANGLES
Info: 14 DIHEDRALS
Info: 0 IMPROPERS
Info: 0 CROSSTERMS
Info: 2977 EXCLUSIONS
Info: 2953 RIGID BONDS
Info: 5918 DEGREES OF FREEDOM
Info: 987 HYDROGEN GROUPS
Info: 3 ATOMS IN LARGEST HYDROGEN GROUP
Info: 987 MIGRATION GROUPS
Info: 3 ATOMS IN LARGEST MIGRATION GROUP
Info: TOTAL MASS = 17897.6 amu
Info: TOTAL CHARGE = 0.000200002 e
Info: MASS DENSITY = 0.670856 g/cm^3
Info: ATOM DENSITY = 0.0667463 atoms/A^3
Info: ADDED 0 IMPLICIT EXCLUSIONS
Info: NONBONDED TABLE R-SQUARED SPACING: 0.0625
Info: NONBONDED TABLE SIZE: 705 POINTS
Info: REMOVING COM VELOCITY -0.0807922 -0.123555 -0.275783
TCL: Running for 100000 steps
ETITLE: TS BOND ANGLE DIHED IMPRP ELECT VDW BOUNDARY MISC KINETIC TOTAL TEMP POTENTIAL TOTAL3 TEMPAVG PRESSURE GPRESSURE VOLUME PRESSAVG GPRESSAVG
ENERGY: 0 0.0141 0.4411 1.6021 0.0000 -13795.1399 2428.8561 0.0000 0.0000 1796.7612 -9567.4652 305.5665 -11364.2265 -9567.1284 305.5665 485.6550 526.4607 44302.1100 485.6550 526.4607
ENERGY: 100000 0.1560 0.7980 1.6596 0.0000 -14341.7484 2564.9623 0.0000 0.0000 174.2582 -11599.9142 29.6353 -11774.1724 -11599.8533 30.8767 1046.1654 1132.1332 28312.9442 4.8458 4.8814
TCL: Running 100000 steps at 60 kelvin.
TCL: Setting parameter langevinTemp to 60
TCL: Running for 100000 steps
ETITLE: TS BOND ANGLE DIHED IMPRP ELECT VDW BOUNDARY MISC KINETIC TOTAL TEMP POTENTIAL TOTAL3 TEMPAVG PRESSURE GPRESSURE VOLUME PRESSAVG GPRESSAVG
ENERGY: 100000 0.1560 0.7980 1.6596 0.0000 -14341.7484 2564.9623 0.0000 0.0000 174.1653 -11600.0072 29.6194 -11774.1724 -11599.6609 29.6194 1062.0818 1131.7670 28312.9442 1062.0818 1131.7670
ENERGY: 200000 0.0833 1.1156 1.8063 0.0000 -14112.8015 2393.3658 0.0000 0.0000 344.5300 -11371.9005 58.5926 -11716.4305 -11370.7057 59.8622 -180.3355 -77.3516 28299.3699 2.9006 2.9763
TCL: Running 100000 steps at 90 kelvin.
TCL: Setting parameter langevinTemp to 90
TCL: Running for 100000 steps
ETITLE: TS BOND ANGLE DIHED IMPRP ELECT VDW BOUNDARY MISC KINETIC TOTAL TEMP POTENTIAL TOTAL3 TEMPAVG PRESSURE GPRESSURE VOLUME PRESSAVG GPRESSAVG
ENERGY: 200000 0.0833 1.1156 1.8063 0.0000 -14112.8015 2393.3658 0.0000 0.0000 344.3523 -11372.0782 58.5623 -11716.4305 -11371.3991 58.5623 -152.6114 -76.9230 28299.3699 -152.6114 -76.9230
ENERGY: 300000 0.4114 1.0552 1.7282 0.0000 -14024.9491 2361.1218 0.0000 0.0000 532.3663 -11128.2663 90.5370 -11660.6325 -11126.8757 89.9781 -146.5665 -73.8963 28214.9458 4.8489 4.9412
TCL: Running 100000 steps at 120 kelvin.
TCL: Setting parameter langevinTemp to 120
TCL: Running for 100000 steps
ETITLE: TS BOND ANGLE DIHED IMPRP ELECT VDW BOUNDARY MISC KINETIC TOTAL TEMP POTENTIAL TOTAL3 TEMPAVG PRESSURE GPRESSURE VOLUME PRESSAVG GPRESSAVG
ENERGY: 300000 0.4114 1.0552 1.7282 0.0000 -14024.9491 2361.1218 0.0000 0.0000 532.1019 -11128.5307 90.4920 -11660.6325 -11127.5886 90.4920 -139.2287 -74.2106 28214.9458 -139.2287 -74.2106
ENERGY: 400000 0.1580 1.7372 1.7768 0.0000 -13789.8600 2278.3047 0.0000 0.0000 704.9615 -10802.9218 119.8894 -11507.8834 -10799.8076 119.9418 -518.1993 -515.0675 28809.6695 5.0381 5.0551
TCL: Running 100000 steps at 150 kelvin.
TCL: Setting parameter langevinTemp to 150
TCL: Running for 100000 steps
ETITLE: TS BOND ANGLE DIHED IMPRP ELECT VDW BOUNDARY MISC KINETIC TOTAL TEMP POTENTIAL TOTAL3 TEMPAVG PRESSURE GPRESSURE VOLUME PRESSAVG GPRESSAVG
ENERGY: 400000 0.1580 1.7372 1.7768 0.0000 -13789.8600 2278.3047 0.0000 0.0000 704.6105 -10803.2729 119.8297 -11507.8834 -10801.8982 119.8297 -555.5960 -513.8163 28809.6695 -555.5960 -513.8163
ENERGY: 500000 1.3771 1.7412 1.6805 0.0000 -13586.6374 2260.5654 0.0000 0.0000 870.9253 -10450.3480 148.1141 -11321.2733 -10449.4954 150.1489 58.3805 52.7871 28946.8275 3.2541 3.4019
TCL: Running 100000 steps at 180 kelvin.
TCL: Setting parameter langevinTemp to 180
TCL: Running for 100000 steps
ETITLE: TS BOND ANGLE DIHED IMPRP ELECT VDW BOUNDARY MISC KINETIC TOTAL TEMP POTENTIAL TOTAL3 TEMPAVG PRESSURE GPRESSURE VOLUME PRESSAVG GPRESSAVG
ENERGY: 500000 1.3771 1.7412 1.6805 0.0000 -13586.6374 2260.5654 0.0000 0.0000 870.4899 -10450.7834 148.0400 -11321.2733 -10449.0153 148.0400 -5.3411 50.6656 28946.8275 -5.3411 50.6656
ENERGY: 600000 0.0902 2.7134 1.6891 0.0000 -13199.2317 2114.7452 0.0000 0.0000 1061.3340 -10018.6598 180.4960 -11079.9938 -10016.0280 179.8156 -464.3536 -343.6520 29168.9039 4.6709 4.6225
TCL: Running 100000 steps at 210 kelvin.
TCL: Setting parameter langevinTemp to 210
TCL: Running for 100000 steps
ETITLE: TS BOND ANGLE DIHED IMPRP ELECT VDW BOUNDARY MISC KINETIC TOTAL TEMP POTENTIAL TOTAL3 TEMPAVG PRESSURE GPRESSURE VOLUME PRESSAVG GPRESSAVG
ENERGY: 600000 0.0902 2.7134 1.6891 0.0000 -13199.2317 2114.7452 0.0000 0.0000 1060.7907 -10019.2031 180.4036 -11079.9938 -10016.7362 180.4036 -403.8631 -343.4020 29168.9039 -403.8631 -343.4020
ENERGY: 700000 0.7548 2.0351 1.5661 0.0000 -12457.4072 1876.4757 0.0000 0.0000 1249.6750 -9326.9004 212.5262 -10576.5754 -9324.8365 209.8351 -322.4778 -283.8174 28867.7589 4.0114 4.0939
TCL: Running 100000 steps at 240 kelvin.
TCL: Setting parameter langevinTemp to 240
TCL: Running for 100000 steps
ETITLE: TS BOND ANGLE DIHED IMPRP ELECT VDW BOUNDARY MISC KINETIC TOTAL TEMP POTENTIAL TOTAL3 TEMPAVG PRESSURE GPRESSURE VOLUME PRESSAVG GPRESSAVG
ENERGY: 700000 0.7548 2.0351 1.5661 0.0000 -12457.4072 1876.4757 0.0000 0.0000 1249.0699 -9327.5055 212.4233 -10576.5754 -9325.2949 212.4233 -350.7141 -284.7144 28867.7589 -350.7141 -284.7144
ENERGY: 800000 0.2076 2.1152 1.8383 0.0000 -11851.6896 1734.5336 0.0000 0.0000 1436.5197 -8676.4753 244.3020 -10112.9950 -8673.3090 239.5278 162.5761 314.5681 29000.6944 3.4494 3.3522
TCL: Running 100000 steps at 270 kelvin.
TCL: Setting parameter langevinTemp to 270
TCL: Running for 100000 steps
ETITLE: TS BOND ANGLE DIHED IMPRP ELECT VDW BOUNDARY MISC KINETIC TOTAL TEMP POTENTIAL TOTAL3 TEMPAVG PRESSURE GPRESSURE VOLUME PRESSAVG GPRESSAVG
ENERGY: 800000 0.2076 2.1152 1.8383 0.0000 -11851.6896 1734.5336 0.0000 0.0000 1435.8038 -8677.1912 244.1802 -10112.9950 -8675.7938 244.1802 234.1437 315.0463 29000.6944 234.1437 315.0463
ENERGY: 900000 1.0951 3.8689 1.5970 0.0000 -11181.2857 1561.5610 0.0000 0.0000 1593.2262 -8019.9375 270.9523 -9613.1637 -8017.1768 269.9726 -128.3666 -53.1692 30035.6269 3.7966 3.4521
TCL: Running 1000000 steps at 300 kelvin.
TCL: Setting parameter langevinTemp to 300
TCL: Running for 1000000 steps
ETITLE: TS BOND ANGLE DIHED IMPRP ELECT VDW BOUNDARY MISC KINETIC TOTAL TEMP POTENTIAL TOTAL3 TEMPAVG PRESSURE GPRESSURE VOLUME PRESSAVG GPRESSAVG
ENERGY: 900000 1.0951 3.8689 1.5970 0.0000 -11181.2857 1561.5610 0.0000 0.0000 1592.4374 -8020.7262 270.8182 -9613.1637 -8018.1139 270.8182 -146.3310 -53.9336 30035.6269 -146.3310 -53.9336
ENERGY: 1100000 1.5102 5.4455 1.9250 0.0000 -10851.6839 1524.6640 0.0000 0.0000 1766.5817 -7551.5577 300.4340 -9318.1393 -7548.8614 299.7079 519.6399 567.2964 30635.9706 2.9646 3.0348
ENERGY: 1300000 0.5182 2.0324 3.8773 0.0000 -10778.0523 1441.4391 0.0000 0.0000 1758.2896 -7571.8957 299.0238 -9330.1852 -7569.9740 300.1921 15.3062 71.1291 30264.9070 3.0743 3.1934
ENERGY: 1500000 0.2521 2.9836 2.0568 0.0000 -10787.3063 1449.3424 0.0000 0.0000 1761.5926 -7571.0788 299.5856 -9332.6714 -7568.5986 299.9036 -181.6480 -40.9124 30455.6899 4.3040 4.2651
ENERGY: 1700000 2.6771 3.5625 1.8524 0.0000 -10696.9795 1467.9392 0.0000 0.0000 1793.6049 -7427.3434 305.0298 -9220.9484 -7422.4932 300.4611 588.4962 661.2029 30481.1098 3.6020 3.6152
ENERGY: 1900000 0.7476 2.9731 1.4868 0.0000 -10759.6880 1514.0903 0.0000 0.0000 1734.0327 -7506.3573 294.8986 -9240.3900 -7505.2797 300.1609 611.2209 622.2348 30816.2411 3.0911 3.2447
TCL: Exiting due to exit command.
