Info: SIMULATION PARAMETERS:
Info: TIMESTEP               2
Info: NUMBER OF STEPS        0
Info: STEPS PER CYCLE        10
Info: PERIODIC CELL BASIS 1  36.005 0 0
Info: PERIODIC CELL BASIS 2  0 34.1 0
Info: PERIODIC CELL BASIS 3  0 0 35.897
Info: PERIODIC CELL CENTER   0 0 0
Info: WRAPPING WATERS AROUND PERIODIC BOUNDARIES ON OUTPUT.
Info: WRAPPING ALL CLUSTERS AROUND PERIODIC BOUNDARIES ON OUTPUT.
Info: FIRST LDB TIMESTEP     50
Info: LAST LDB TIMESTEP     -1
Info: HOM BACKGROUND SCALING 1
Info: PME BACKGROUND SCALING 1
Info: MIN ATOMS PER PATCH    40
Info: EMPTY PATCH LOAD       40 ATOMS
Info: INITIAL TEMPERATURE    300
Info: CENTER OF MASS MOVING INITIALLY? NO
Info: DIELECTRIC             1
Info: EXCLUDE                SCALED ONE-FOUR
Info: 1-4 ELECTROSTATICS SCALED BY 0.833333
Info: MODIFIED 1-4 VDW PARAMETERS WILL BE USED
Info: DCD FILENAME           mobley_5063386_equil.dcd
Info: DCD FREQUENCY          100000
Info: DCD FIRST STEP         100000
Info: DCD FILE WILL CONTAIN UNIT CELL DATA
Info: XST FILENAME           mobley_5063386_equil.xst
Info: XST FREQUENCY          100000
Info: NO VELOCITY DCD OUTPUT
Info: NO FORCE DCD OUTPUT
Info: OUTPUT FILENAME        mobley_5063386_equil
Info: BINARY OUTPUT FILES WILL BE USED
Info: RESTART FILENAME       mobley_5063386_equil.restart
Info: RESTART FREQUENCY      100000
Info: BINARY RESTART FILES WILL BE USED
Info: CUTOFF                 9
Info: PAIRLIST DISTANCE      11
Info: PAIRLIST SHRINK RATE   0.01
Info: PAIRLIST GROW RATE     0.01
Info: PAIRLIST TRIGGER       0.3
Info: PAIRLISTS PER CYCLE    2
Info: PAIRLISTS ENABLED
Info: MARGIN                 8
Info: HYDROGEN GROUP CUTOFF  2.5
Info: PATCH DIMENSION        21.5
Info: ENERGY OUTPUT STEPS    100000
Info: ENERGY EVALUATION STEPS    100000
Info: OUTPUT ENERGY PRECISION 4
Info: CROSSTERM ENERGY INCLUDED IN DIHEDRAL
Info: TIMING OUTPUT STEPS    1000000
Info: PRESSURE OUTPUT STEPS  100000
Info: LANGEVIN DYNAMICS ACTIVE
Info: LANGEVIN TEMPERATURE   30
Info: LANGEVIN USING BBK INTEGRATOR
Info: LANGEVIN DAMPING COEFFICIENT IS 1 INVERSE PS
Info: LANGEVIN DYNAMICS APPLIED TO HYDROGENS
Info: LANGEVIN PISTON PRESSURE CONTROL ACTIVE
Info:        TARGET PRESSURE IS 1.01325 BAR
Info:     OSCILLATION PERIOD IS 50 FS
Info:             DECAY TIME IS 25 FS
Info:     PISTON TEMPERATURE IS 300 K
Info:       PRESSURE CONTROL IS GROUP-BASED
Info:    INITIAL STRAIN RATE IS 0 0 0
Info:       CELL FLUCTUATION IS ISOTROPIC
Info: PARTICLE MESH EWALD (PME) ACTIVE
Info: PME TOLERANCE               1e-06
Info: PME EWALD COEFFICIENT       0.348832
Info: PME INTERPOLATION ORDER     4
Info: PME GRID DIMENSIONS         40 36 36
Info: PME MAXIMUM GRID SPACING    1
Info: FULL ELECTROSTATIC EVALUATION FREQUENCY      2
Info: USING VERLET I (r-RESPA) MTS SCHEME.
Info: C1 SPLITTING OF LONG RANGE ELECTROSTATICS
Info: PLACING ATOMS IN PATCHES BY HYDROGEN GROUPS
Info: RIGID BONDS TO HYDROGEN : ALL
Info:         ERROR TOLERANCE : 1e-08
Info:          MAX ITERATIONS : 100
Info: RIGID WATER USING SETTLE ALGORITHM
Info: RANDOM NUMBER SEED     1743228604
Info: USE HYDROGEN BONDS?    NO
Info: Using AMBER format force field!
Info: AMBER PARM FILE        mobley_5063386.prmtop
Info: COORDINATE PDB         mobley_5063386.pdb
Info: Exclusions will be read from PARM file!
Info: SCNB (VDW SCALING)     2
Info: USING ARITHMETIC MEAN TO COMBINE L-J SIGMA PARAMETERS
Info: BINARY COORDINATES     mobley_5063386_min.coor
Info: SUMMARY OF PARAMETERS:
Info: 8 BONDS
Info: 7 ANGLES
Info:   7 HARMONIC
Info:   0 COSINE-BASED
Info: 4 DIHEDRAL
Info: 0 IMPROPER
Info: 0 CROSSTERM
Info: 0 VDW
Info: 28 VDW_PAIRS
Info: 0 NBTHOLE_PAIRS
Info: STRUCTURE SUMMARY:
Info: 2919 ATOMS
Info: 2919 BONDS
Info: 22 ANGLES
Info: 36 DIHEDRALS
Info: 0 IMPROPERS
Info: 0 CROSSTERMS
Info: 2968 EXCLUSIONS
Info: 2909 RIGID BONDS
Info: 5848 DEGREES OF FREEDOM
Info: 978 HYDROGEN GROUPS
Info: 3 ATOMS IN LARGEST HYDROGEN GROUP
Info: 978 MIGRATION GROUPS
Info: 3 ATOMS IN LARGEST MIGRATION GROUP
Info: TOTAL MASS = 17578.6 amu
Info: TOTAL CHARGE = -9.99495e-05 e
Info: MASS DENSITY = 0.66232 g/cm^3
Info: ATOM DENSITY = 0.0662306 atoms/A^3
Info: ADDED 0 IMPLICIT EXCLUSIONS
Info: NONBONDED TABLE R-SQUARED SPACING: 0.0625
Info: NONBONDED TABLE SIZE: 705 POINTS
Info: REMOVING COM VELOCITY -0.023884 0.102305 0.108241
TCL: Running for 100000 steps
ETITLE: TS BOND ANGLE DIHED IMPRP ELECT VDW BOUNDARY MISC KINETIC TOTAL TEMP POTENTIAL TOTAL3 TEMPAVG PRESSURE GPRESSURE VOLUME PRESSAVG GPRESSAVG
ENERGY: 0 0.2015 0.2444 3.0408 0.0000 -13539.8774 2405.3538 0.0000 0.0000 1733.9396 -9397.0973 298.4125 -11131.0369 -9396.7789 298.4125 563.4439 599.5423 44073.2776 563.4439 599.5423
ENERGY: 100000 0.4165 1.0039 1.3548 0.0000 -14182.3680 2535.9620 0.0000 0.0000 176.2491 -11467.3817 30.3326 -11643.6308 -11466.9435 30.8974 705.6812 750.3077 28772.7551 3.9495 3.9740
TCL: Running 100000 steps at 60 kelvin.
TCL: Setting parameter langevinTemp to 60
TCL: Running for 100000 steps
ETITLE: TS BOND ANGLE DIHED IMPRP ELECT VDW BOUNDARY MISC KINETIC TOTAL TEMP POTENTIAL TOTAL3 TEMPAVG PRESSURE GPRESSURE VOLUME PRESSAVG GPRESSAVG
ENERGY: 100000 0.4165 1.0039 1.3548 0.0000 -14182.3680 2535.9620 0.0000 0.0000 176.1628 -11467.4680 30.3178 -11643.6308 -11467.1492 30.3178 706.5328 750.4458 28772.7551 706.5328 750.4458
ENERGY: 200000 1.0022 0.8361 2.3840 0.0000 -13887.6471 2344.5497 0.0000 0.0000 351.5030 -11187.3721 60.4940 -11538.8751 -11186.9277 59.9720 -646.9124 -613.7260 28956.4447 4.6363 4.5041
TCL: Running 100000 steps at 90 kelvin.
TCL: Setting parameter langevinTemp to 90
TCL: Running for 100000 steps
ETITLE: TS BOND ANGLE DIHED IMPRP ELECT VDW BOUNDARY MISC KINETIC TOTAL TEMP POTENTIAL TOTAL3 TEMPAVG PRESSURE GPRESSURE VOLUME PRESSAVG GPRESSAVG
ENERGY: 200000 1.0022 0.8361 2.3840 0.0000 -13887.6471 2344.5497 0.0000 0.0000 351.3359 -11187.5392 60.4652 -11538.8751 -11186.6135 60.4652 -651.2215 -614.3251 28956.4447 -651.2215 -614.3251
ENERGY: 300000 1.1292 2.0448 5.4498 0.0000 -13841.2586 2372.8228 0.0000 0.0000 535.5963 -10924.2156 92.1766 -11459.8119 -10923.1814 89.9410 171.5567 202.7464 28383.0728 4.4900 4.5589
TCL: Running 100000 steps at 120 kelvin.
TCL: Setting parameter langevinTemp to 120
TCL: Running for 100000 steps
ETITLE: TS BOND ANGLE DIHED IMPRP ELECT VDW BOUNDARY MISC KINETIC TOTAL TEMP POTENTIAL TOTAL3 TEMPAVG PRESSURE GPRESSURE VOLUME PRESSAVG GPRESSAVG
ENERGY: 300000 1.1292 2.0448 5.4498 0.0000 -13841.2586 2372.8228 0.0000 0.0000 535.3393 -10924.4726 92.1323 -11459.8119 -10923.6248 92.1323 163.6405 203.5327 28383.0728 163.6405 203.5327
ENERGY: 400000 0.7524 1.1547 5.1882 0.0000 -13589.2873 2269.8076 0.0000 0.0000 705.2174 -10607.1671 121.3685 -11312.3845 -10606.0492 120.0385 -252.3028 -177.8160 28625.2005 5.4736 5.4402
TCL: Running 100000 steps at 150 kelvin.
TCL: Setting parameter langevinTemp to 150
TCL: Running for 100000 steps
ETITLE: TS BOND ANGLE DIHED IMPRP ELECT VDW BOUNDARY MISC KINETIC TOTAL TEMP POTENTIAL TOTAL3 TEMPAVG PRESSURE GPRESSURE VOLUME PRESSAVG GPRESSAVG
ENERGY: 400000 0.7524 1.1547 5.1882 0.0000 -13589.2873 2269.8076 0.0000 0.0000 704.8549 -10607.5295 121.3061 -11312.3845 -10605.8030 121.3061 -222.0410 -178.1980 28625.2005 -222.0410 -178.1980
ENERGY: 500000 1.6709 3.7613 5.0943 0.0000 -13320.5507 2117.9876 0.0000 0.0000 877.8096 -10314.2271 151.0718 -11192.0366 -10311.5652 150.0200 -1226.4342 -1192.1090 28901.9036 3.8766 4.0391
TCL: Running 100000 steps at 180 kelvin.
TCL: Setting parameter langevinTemp to 180
TCL: Running for 100000 steps
ETITLE: TS BOND ANGLE DIHED IMPRP ELECT VDW BOUNDARY MISC KINETIC TOTAL TEMP POTENTIAL TOTAL3 TEMPAVG PRESSURE GPRESSURE VOLUME PRESSAVG GPRESSAVG
ENERGY: 500000 1.6709 3.7613 5.0943 0.0000 -13320.5507 2117.9876 0.0000 0.0000 877.3966 -10314.6400 151.0007 -11192.0366 -10312.6680 151.0007 -1241.1597 -1190.8271 28901.9036 -1241.1597 -1190.8271
ENERGY: 600000 3.5545 2.3909 4.5508 0.0000 -12829.9107 1954.8402 0.0000 0.0000 1046.8979 -9817.6764 180.1720 -10864.5742 -9814.2301 179.9614 -1141.7409 -1110.1124 28665.0358 4.3946 4.3212
TCL: Running 100000 steps at 210 kelvin.
TCL: Setting parameter langevinTemp to 210
TCL: Running for 100000 steps
ETITLE: TS BOND ANGLE DIHED IMPRP ELECT VDW BOUNDARY MISC KINETIC TOTAL TEMP POTENTIAL TOTAL3 TEMPAVG PRESSURE GPRESSURE VOLUME PRESSAVG GPRESSAVG
ENERGY: 600000 3.5545 2.3909 4.5508 0.0000 -12829.9107 1954.8402 0.0000 0.0000 1046.3819 -9818.1923 180.0832 -10864.5742 -9816.0617 180.0832 -1166.5239 -1109.3528 28665.0358 -1166.5239 -1109.3528
ENERGY: 700000 2.2773 1.9912 3.1872 0.0000 -12294.0793 1809.6316 0.0000 0.0000 1196.7744 -9280.2176 205.9659 -10476.9920 -9275.4469 209.7618 -995.6815 -900.2934 28546.7048 3.2885 2.9936
TCL: Running 100000 steps at 240 kelvin.
TCL: Setting parameter langevinTemp to 240
TCL: Running for 100000 steps
ETITLE: TS BOND ANGLE DIHED IMPRP ELECT VDW BOUNDARY MISC KINETIC TOTAL TEMP POTENTIAL TOTAL3 TEMPAVG PRESSURE GPRESSURE VOLUME PRESSAVG GPRESSAVG
ENERGY: 700000 2.2773 1.9912 3.1872 0.0000 -12294.0793 1809.6316 0.0000 0.0000 1196.1718 -9280.8202 205.8622 -10476.9920 -9278.6540 205.8622 -968.4572 -898.0824 28546.7048 -968.4572 -898.0824
ENERGY: 800000 1.7582 3.2875 5.9776 0.0000 -11647.8047 1726.0109 0.0000 0.0000 1425.9511 -8484.8194 245.4074 -9910.7705 -8482.5563 240.1105 55.0457 125.6764 29257.4201 3.6967 3.7413
TCL: Running 100000 steps at 270 kelvin.
TCL: Setting parameter langevinTemp to 270
TCL: Running for 100000 steps
ETITLE: TS BOND ANGLE DIHED IMPRP ELECT VDW BOUNDARY MISC KINETIC TOTAL TEMP POTENTIAL TOTAL3 TEMPAVG PRESSURE GPRESSURE VOLUME PRESSAVG GPRESSAVG
ENERGY: 800000 1.7582 3.2875 5.9776 0.0000 -11647.8047 1726.0109 0.0000 0.0000 1425.2492 -8485.5213 245.2866 -9910.7705 -8483.1953 245.2866 44.7424 125.9929 29257.4201 44.7424 125.9929
ENERGY: 900000 1.5970 2.7320 5.1539 0.0000 -10976.9111 1467.4424 0.0000 0.0000 1564.1554 -7935.8304 269.1925 -9499.9858 -7932.8661 269.6098 -720.2561 -615.6517 29609.8009 3.1218 3.1238
TCL: Running 1000000 steps at 300 kelvin.
TCL: Setting parameter langevinTemp to 300
TCL: Running for 1000000 steps
ETITLE: TS BOND ANGLE DIHED IMPRP ELECT VDW BOUNDARY MISC KINETIC TOTAL TEMP POTENTIAL TOTAL3 TEMPAVG PRESSURE GPRESSURE VOLUME PRESSAVG GPRESSAVG
ENERGY: 900000 1.5970 2.7320 5.1539 0.0000 -10976.9111 1467.4424 0.0000 0.0000 1563.3802 -7936.6056 269.0591 -9499.9858 -7934.0606 269.0591 -690.8137 -614.9486 29609.8009 -690.8137 -614.9486
ENERGY: 1100000 2.5860 2.3963 11.4455 0.0000 -10514.7118 1328.2031 0.0000 0.0000 1747.4940 -7422.5868 300.7452 -9170.0809 -7417.4075 299.9629 -881.2193 -857.2543 30308.7650 3.8256 3.9066
ENERGY: 1300000 2.2091 3.0525 5.2857 0.0000 -10603.8268 1459.0222 0.0000 0.0000 1764.1917 -7370.0657 303.6189 -9134.2574 -7368.4642 300.2396 565.0040 656.4528 29784.5178 2.1676 2.2825
ENERGY: 1500000 2.9631 4.7686 6.1514 0.0000 -10519.6646 1378.0673 0.0000 0.0000 1760.8510 -7366.8632 303.0440 -9127.7142 -7363.0401 300.5788 -397.0063 -210.3356 30531.3706 2.4405 2.4748
ENERGY: 1700000 1.8367 4.9571 3.6536 0.0000 -10557.0892 1449.4317 0.0000 0.0000 1696.7532 -7400.4568 292.0127 -9097.2099 -7396.7290 301.1631 15.8713 118.3654 30707.9562 3.9979 3.9247
ENERGY: 1900000 3.8275 2.0176 5.4577 0.0000 -10712.3337 1466.2351 0.0000 0.0000 1746.2182 -7488.5777 300.5256 -9234.7959 -7481.8231 300.6870 155.6892 216.0174 29932.9406 2.8977 2.8998
TCL: Exiting due to exit command.
