Info: SIMULATION PARAMETERS:
Info: TIMESTEP               2
Info: NUMBER OF STEPS        0
Info: STEPS PER CYCLE        10
Info: PERIODIC CELL BASIS 1  33.943 0 0
Info: PERIODIC CELL BASIS 2  0 33.404 0
Info: PERIODIC CELL BASIS 3  0 0 38.954
Info: PERIODIC CELL CENTER   0 0 0
Info: WRAPPING WATERS AROUND PERIODIC BOUNDARIES ON OUTPUT.
Info: WRAPPING ALL CLUSTERS AROUND PERIODIC BOUNDARIES ON OUTPUT.
Info: FIRST LDB TIMESTEP     50
Info: LAST LDB TIMESTEP     -1
Info: HOM BACKGROUND SCALING 1
Info: PME BACKGROUND SCALING 1
Info: MIN ATOMS PER PATCH    40
Info: EMPTY PATCH LOAD       40 ATOMS
Info: INITIAL TEMPERATURE    300
Info: CENTER OF MASS MOVING INITIALLY? NO
Info: DIELECTRIC             1
Info: EXCLUDE                SCALED ONE-FOUR
Info: 1-4 ELECTROSTATICS SCALED BY 0.833333
Info: MODIFIED 1-4 VDW PARAMETERS WILL BE USED
Info: DCD FILENAME           mobley_632905_equil.dcd
Info: DCD FREQUENCY          100000
Info: DCD FIRST STEP         100000
Info: DCD FILE WILL CONTAIN UNIT CELL DATA
Info: XST FILENAME           mobley_632905_equil.xst
Info: XST FREQUENCY          100000
Info: NO VELOCITY DCD OUTPUT
Info: NO FORCE DCD OUTPUT
Info: OUTPUT FILENAME        mobley_632905_equil
Info: BINARY OUTPUT FILES WILL BE USED
Info: RESTART FILENAME       mobley_632905_equil.restart
Info: RESTART FREQUENCY      100000
Info: BINARY RESTART FILES WILL BE USED
Info: CUTOFF                 9
Info: PAIRLIST DISTANCE      11
Info: PAIRLIST SHRINK RATE   0.01
Info: PAIRLIST GROW RATE     0.01
Info: PAIRLIST TRIGGER       0.3
Info: PAIRLISTS PER CYCLE    2
Info: PAIRLISTS ENABLED
Info: MARGIN                 8
Info: HYDROGEN GROUP CUTOFF  2.5
Info: PATCH DIMENSION        21.5
Info: ENERGY OUTPUT STEPS    100000
Info: ENERGY EVALUATION STEPS    100000
Info: OUTPUT ENERGY PRECISION 4
Info: CROSSTERM ENERGY INCLUDED IN DIHEDRAL
Info: TIMING OUTPUT STEPS    1000000
Info: PRESSURE OUTPUT STEPS  100000
Info: LANGEVIN DYNAMICS ACTIVE
Info: LANGEVIN TEMPERATURE   30
Info: LANGEVIN USING BBK INTEGRATOR
Info: LANGEVIN DAMPING COEFFICIENT IS 1 INVERSE PS
Info: LANGEVIN DYNAMICS APPLIED TO HYDROGENS
Info: LANGEVIN PISTON PRESSURE CONTROL ACTIVE
Info:        TARGET PRESSURE IS 1.01325 BAR
Info:     OSCILLATION PERIOD IS 50 FS
Info:             DECAY TIME IS 25 FS
Info:     PISTON TEMPERATURE IS 300 K
Info:       PRESSURE CONTROL IS GROUP-BASED
Info:    INITIAL STRAIN RATE IS 0 0 0
Info:       CELL FLUCTUATION IS ISOTROPIC
Info: PARTICLE MESH EWALD (PME) ACTIVE
Info: PME TOLERANCE               1e-06
Info: PME EWALD COEFFICIENT       0.348832
Info: PME INTERPOLATION ORDER     4
Info: PME GRID DIMENSIONS         36 36 40
Info: PME MAXIMUM GRID SPACING    1
Info: FULL ELECTROSTATIC EVALUATION FREQUENCY      2
Info: USING VERLET I (r-RESPA) MTS SCHEME.
Info: C1 SPLITTING OF LONG RANGE ELECTROSTATICS
Info: PLACING ATOMS IN PATCHES BY HYDROGEN GROUPS
Info: RIGID BONDS TO HYDROGEN : ALL
Info:         ERROR TOLERANCE : 1e-08
Info:          MAX ITERATIONS : 100
Info: RIGID WATER USING SETTLE ALGORITHM
Info: RANDOM NUMBER SEED     1743245836
Info: USE HYDROGEN BONDS?    NO
Info: Using AMBER format force field!
Info: AMBER PARM FILE        mobley_632905.prmtop
Info: COORDINATE PDB         mobley_632905.pdb
Info: Exclusions will be read from PARM file!
Info: SCNB (VDW SCALING)     2
Info: USING ARITHMETIC MEAN TO COMBINE L-J SIGMA PARAMETERS
Info: BINARY COORDINATES     mobley_632905_min.coor
Info: SUMMARY OF PARAMETERS:
Info: 11 BONDS
Info: 12 ANGLES
Info:   12 HARMONIC
Info:   0 COSINE-BASED
Info: 10 DIHEDRAL
Info: 0 IMPROPER
Info: 0 CROSSTERM
Info: 0 VDW
Info: 45 VDW_PAIRS
Info: 0 NBTHOLE_PAIRS
Info: STRUCTURE SUMMARY:
Info: 2985 ATOMS
Info: 2985 BONDS
Info: 34 ANGLES
Info: 52 DIHEDRALS
Info: 0 IMPROPERS
Info: 0 CROSSTERMS
Info: 3055 EXCLUSIONS
Info: 2974 RIGID BONDS
Info: 5981 DEGREES OF FREEDOM
Info: 999 HYDROGEN GROUPS
Info: 4 ATOMS IN LARGEST HYDROGEN GROUP
Info: 999 MIGRATION GROUPS
Info: 4 ATOMS IN LARGEST MIGRATION GROUP
Info: TOTAL MASS = 17950 amu
Info: TOTAL CHARGE = -0.000200022 e
Info: MASS DENSITY = 0.674874 g/cm^3
Info: ATOM DENSITY = 0.067584 atoms/A^3
Info: ADDED 0 IMPLICIT EXCLUSIONS
Info: NONBONDED TABLE R-SQUARED SPACING: 0.0625
Info: NONBONDED TABLE SIZE: 705 POINTS
Info: REMOVING COM VELOCITY -0.0765974 -0.099523 0.0210483
TCL: Running for 100000 steps
ETITLE: TS BOND ANGLE DIHED IMPRP ELECT VDW BOUNDARY MISC KINETIC TOTAL TEMP POTENTIAL TOTAL3 TEMPAVG PRESSURE GPRESSURE VOLUME PRESSAVG GPRESSAVG
ENERGY: 0 0.3539 1.2357 3.2507 0.0000 -13799.2496 2427.5198 0.0000 0.0000 1804.3946 -9562.4948 303.6324 -11366.8894 -9562.1371 303.6324 441.9878 490.1716 44167.2906 441.9878 490.1716
ENERGY: 100000 0.7595 1.1220 5.8972 0.0000 -14383.1748 2506.8963 0.0000 0.0000 176.2236 -11692.2761 29.6538 -11868.4997 -11691.7517 30.8292 92.4134 151.5082 29225.6160 4.0855 4.0890
TCL: Running 100000 steps at 60 kelvin.
TCL: Setting parameter langevinTemp to 60
TCL: Running for 100000 steps
ETITLE: TS BOND ANGLE DIHED IMPRP ELECT VDW BOUNDARY MISC KINETIC TOTAL TEMP POTENTIAL TOTAL3 TEMPAVG PRESSURE GPRESSURE VOLUME PRESSAVG GPRESSAVG
ENERGY: 100000 0.7595 1.1220 5.8972 0.0000 -14383.1748 2506.8963 0.0000 0.0000 176.1345 -11692.3652 29.6388 -11868.4997 -11691.9570 29.6388 88.6435 151.5194 29225.6160 88.6435 151.5194
ENERGY: 200000 1.2965 2.0250 5.1506 0.0000 -14141.5453 2357.9492 0.0000 0.0000 357.2185 -11417.9056 60.1105 -11775.1241 -11416.5807 59.9200 -884.7963 -793.1973 29389.5486 2.7947 2.9024
TCL: Running 100000 steps at 90 kelvin.
TCL: Setting parameter langevinTemp to 90
TCL: Running for 100000 steps
ETITLE: TS BOND ANGLE DIHED IMPRP ELECT VDW BOUNDARY MISC KINETIC TOTAL TEMP POTENTIAL TOTAL3 TEMPAVG PRESSURE GPRESSURE VOLUME PRESSAVG GPRESSAVG
ENERGY: 200000 1.2965 2.0250 5.1506 0.0000 -14141.5453 2357.9492 0.0000 0.0000 357.0343 -11418.0898 60.0795 -11775.1241 -11417.3094 60.0795 -862.0116 -792.5071 29389.5486 -862.0116 -792.5071
ENERGY: 300000 0.6356 1.7886 7.2141 0.0000 -14163.8817 2459.3384 0.0000 0.0000 523.4293 -11171.4757 88.0795 -11694.9050 -11169.6570 90.0824 455.5928 469.2403 28976.6072 3.1090 3.0941
TCL: Running 100000 steps at 120 kelvin.
TCL: Setting parameter langevinTemp to 120
TCL: Running for 100000 steps
ETITLE: TS BOND ANGLE DIHED IMPRP ELECT VDW BOUNDARY MISC KINETIC TOTAL TEMP POTENTIAL TOTAL3 TEMPAVG PRESSURE GPRESSURE VOLUME PRESSAVG GPRESSAVG
ENERGY: 300000 0.6356 1.7886 7.2141 0.0000 -14163.8817 2459.3384 0.0000 0.0000 523.1687 -11171.7363 88.0356 -11694.9050 -11170.8312 88.0356 416.1152 469.2479 28976.6072 416.1152 469.2479
ENERGY: 400000 1.1455 5.6336 5.4616 0.0000 -14002.6185 2400.9851 0.0000 0.0000 723.4441 -10865.9486 121.7367 -11589.3927 -10864.2699 120.0601 352.6124 342.0310 28980.1088 4.4766 4.5746
TCL: Running 100000 steps at 150 kelvin.
TCL: Setting parameter langevinTemp to 150
TCL: Running for 100000 steps
ETITLE: TS BOND ANGLE DIHED IMPRP ELECT VDW BOUNDARY MISC KINETIC TOTAL TEMP POTENTIAL TOTAL3 TEMPAVG PRESSURE GPRESSURE VOLUME PRESSAVG GPRESSAVG
ENERGY: 400000 1.1455 5.6336 5.4616 0.0000 -14002.6185 2400.9851 0.0000 0.0000 723.0910 -10866.3017 121.6773 -11589.3927 -10865.0289 121.6773 303.8131 342.2787 28980.1088 303.8131 342.2787
ENERGY: 500000 2.7129 8.2478 4.3095 0.0000 -13626.0484 2229.4448 0.0000 0.0000 879.2015 -10502.1321 147.9466 -11381.3335 -10499.3759 149.6639 -513.3826 -427.6729 29301.7665 4.8482 4.7450
TCL: Running 100000 steps at 180 kelvin.
TCL: Setting parameter langevinTemp to 180
TCL: Running for 100000 steps
ETITLE: TS BOND ANGLE DIHED IMPRP ELECT VDW BOUNDARY MISC KINETIC TOTAL TEMP POTENTIAL TOTAL3 TEMPAVG PRESSURE GPRESSURE VOLUME PRESSAVG GPRESSAVG
ENERGY: 500000 2.7129 8.2478 4.3095 0.0000 -13626.0484 2229.4448 0.0000 0.0000 878.7650 -10502.5685 147.8732 -11381.3335 -10500.4656 147.8732 -482.2832 -427.9491 29301.7665 -482.2832 -427.9491
ENERGY: 600000 1.1035 4.5784 4.8765 0.0000 -13220.4566 2114.3224 0.0000 0.0000 1056.4444 -10039.1314 177.7719 -11095.5758 -10036.2228 179.8979 96.9243 139.4529 28984.2181 4.1506 4.0369
TCL: Running 100000 steps at 210 kelvin.
TCL: Setting parameter langevinTemp to 210
TCL: Running for 100000 steps
ETITLE: TS BOND ANGLE DIHED IMPRP ELECT VDW BOUNDARY MISC KINETIC TOTAL TEMP POTENTIAL TOTAL3 TEMPAVG PRESSURE GPRESSURE VOLUME PRESSAVG GPRESSAVG
ENERGY: 600000 1.1035 4.5784 4.8765 0.0000 -13220.4566 2114.3224 0.0000 0.0000 1055.9359 -10039.6398 177.6864 -11095.5758 -10037.6811 177.6864 63.2070 140.2530 28984.2181 63.2070 140.2530
ENERGY: 700000 3.5777 8.2029 5.3519 0.0000 -12607.1571 1952.0472 0.0000 0.0000 1268.1565 -9369.8209 213.3976 -10637.9774 -9368.3343 209.7486 244.4211 290.2321 28979.8940 4.1392 4.0459
TCL: Running 100000 steps at 240 kelvin.
TCL: Setting parameter langevinTemp to 240
TCL: Running for 100000 steps
ETITLE: TS BOND ANGLE DIHED IMPRP ELECT VDW BOUNDARY MISC KINETIC TOTAL TEMP POTENTIAL TOTAL3 TEMPAVG PRESSURE GPRESSURE VOLUME PRESSAVG GPRESSAVG
ENERGY: 700000 3.5777 8.2029 5.3519 0.0000 -12607.1571 1952.0472 0.0000 0.0000 1267.5218 -9370.4556 213.2907 -10637.9774 -9368.4829 213.2907 212.2556 288.2130 28979.8940 212.2556 288.2130
ENERGY: 800000 2.1573 4.1876 6.6015 0.0000 -11861.8332 1672.5378 0.0000 0.0000 1424.1954 -8752.1536 239.6548 -10176.3490 -8748.2560 240.2652 -402.5127 -316.4672 29377.9859 4.4035 4.4335
TCL: Running 100000 steps at 270 kelvin.
TCL: Setting parameter langevinTemp to 270
TCL: Running for 100000 steps
ETITLE: TS BOND ANGLE DIHED IMPRP ELECT VDW BOUNDARY MISC KINETIC TOTAL TEMP POTENTIAL TOTAL3 TEMPAVG PRESSURE GPRESSURE VOLUME PRESSAVG GPRESSAVG
ENERGY: 800000 2.1573 4.1876 6.6015 0.0000 -11861.8332 1672.5378 0.0000 0.0000 1423.4948 -8752.8542 239.5369 -10176.3490 -8750.0271 239.5369 -391.3762 -315.6849 29377.9859 -391.3762 -315.6849
ENERGY: 900000 3.9435 7.1619 5.2117 0.0000 -11448.1095 1632.9650 0.0000 0.0000 1582.2165 -8216.6108 266.2456 -9798.8273 -8213.0036 270.1541 290.0398 390.0724 29772.9073 3.9004 3.6628
TCL: Running 1000000 steps at 300 kelvin.
TCL: Setting parameter langevinTemp to 300
TCL: Running for 1000000 steps
ETITLE: TS BOND ANGLE DIHED IMPRP ELECT VDW BOUNDARY MISC KINETIC TOTAL TEMP POTENTIAL TOTAL3 TEMPAVG PRESSURE GPRESSURE VOLUME PRESSAVG GPRESSAVG
ENERGY: 900000 3.9435 7.1619 5.2117 0.0000 -11448.1095 1632.9650 0.0000 0.0000 1581.4597 -8217.3676 266.1183 -9798.8273 -8215.4396 266.1183 302.4712 390.6182 29772.9073 302.4712 390.6182
ENERGY: 1100000 5.4323 7.2224 7.0540 0.0000 -10844.7736 1421.7468 0.0000 0.0000 1755.3043 -7648.0137 295.3718 -9403.3180 -7642.8676 299.6720 -219.7451 -99.8698 30271.5692 3.4309 3.3407
ENERGY: 1300000 3.1649 8.0197 9.3958 0.0000 -10992.2279 1568.8802 0.0000 0.0000 1767.4037 -7635.3636 297.4078 -9402.7673 -7629.6769 300.5114 761.2398 821.2574 30555.9609 3.5410 3.4761
ENERGY: 1500000 3.1239 7.8698 7.2805 0.0000 -10709.3576 1373.0001 0.0000 0.0000 1842.1843 -7475.8990 309.9914 -9318.0832 -7471.1555 299.9340 -505.4047 -448.4565 30860.7350 3.5111 3.6427
ENERGY: 1700000 1.9997 6.5610 8.3266 0.0000 -10871.5663 1443.2903 0.0000 0.0000 1736.5512 -7674.8374 292.2161 -9411.3886 -7674.1075 299.5925 10.7850 30.3555 30577.3904 3.1472 2.9554
ENERGY: 1900000 2.6724 10.8925 14.8051 0.0000 -10838.3420 1429.0898 0.0000 0.0000 1797.6321 -7583.2502 302.4944 -9380.8823 -7579.4037 299.8655 -245.5289 -167.0438 30525.2370 3.5616 3.6509
TCL: Exiting due to exit command.
