Info: SIMULATION PARAMETERS:
Info: TIMESTEP               2
Info: NUMBER OF STEPS        0
Info: STEPS PER CYCLE        10
Info: PERIODIC CELL BASIS 1  34.986 0 0
Info: PERIODIC CELL BASIS 2  0 33.404 0
Info: PERIODIC CELL BASIS 3  0 0 37.451
Info: PERIODIC CELL CENTER   0 0 0
Info: WRAPPING WATERS AROUND PERIODIC BOUNDARIES ON OUTPUT.
Info: WRAPPING ALL CLUSTERS AROUND PERIODIC BOUNDARIES ON OUTPUT.
Info: FIRST LDB TIMESTEP     50
Info: LAST LDB TIMESTEP     -1
Info: HOM BACKGROUND SCALING 1
Info: PME BACKGROUND SCALING 1
Info: MIN ATOMS PER PATCH    40
Info: EMPTY PATCH LOAD       40 ATOMS
Info: INITIAL TEMPERATURE    300
Info: CENTER OF MASS MOVING INITIALLY? NO
Info: DIELECTRIC             1
Info: EXCLUDE                SCALED ONE-FOUR
Info: 1-4 ELECTROSTATICS SCALED BY 0.833333
Info: MODIFIED 1-4 VDW PARAMETERS WILL BE USED
Info: DCD FILENAME           mobley_4193752_equil.dcd
Info: DCD FREQUENCY          100000
Info: DCD FIRST STEP         100000
Info: DCD FILE WILL CONTAIN UNIT CELL DATA
Info: XST FILENAME           mobley_4193752_equil.xst
Info: XST FREQUENCY          100000
Info: NO VELOCITY DCD OUTPUT
Info: NO FORCE DCD OUTPUT
Info: OUTPUT FILENAME        mobley_4193752_equil
Info: BINARY OUTPUT FILES WILL BE USED
Info: RESTART FILENAME       mobley_4193752_equil.restart
Info: RESTART FREQUENCY      100000
Info: BINARY RESTART FILES WILL BE USED
Info: CUTOFF                 9
Info: PAIRLIST DISTANCE      11
Info: PAIRLIST SHRINK RATE   0.01
Info: PAIRLIST GROW RATE     0.01
Info: PAIRLIST TRIGGER       0.3
Info: PAIRLISTS PER CYCLE    2
Info: PAIRLISTS ENABLED
Info: MARGIN                 8
Info: HYDROGEN GROUP CUTOFF  2.5
Info: PATCH DIMENSION        21.5
Info: ENERGY OUTPUT STEPS    100000
Info: ENERGY EVALUATION STEPS    100000
Info: OUTPUT ENERGY PRECISION 4
Info: CROSSTERM ENERGY INCLUDED IN DIHEDRAL
Info: TIMING OUTPUT STEPS    1000000
Info: PRESSURE OUTPUT STEPS  100000
Info: LANGEVIN DYNAMICS ACTIVE
Info: LANGEVIN TEMPERATURE   30
Info: LANGEVIN USING BBK INTEGRATOR
Info: LANGEVIN DAMPING COEFFICIENT IS 1 INVERSE PS
Info: LANGEVIN DYNAMICS APPLIED TO HYDROGENS
Info: LANGEVIN PISTON PRESSURE CONTROL ACTIVE
Info:        TARGET PRESSURE IS 1.01325 BAR
Info:     OSCILLATION PERIOD IS 50 FS
Info:             DECAY TIME IS 25 FS
Info:     PISTON TEMPERATURE IS 300 K
Info:       PRESSURE CONTROL IS GROUP-BASED
Info:    INITIAL STRAIN RATE IS 0 0 0
Info:       CELL FLUCTUATION IS ISOTROPIC
Info: PARTICLE MESH EWALD (PME) ACTIVE
Info: PME TOLERANCE               1e-06
Info: PME EWALD COEFFICIENT       0.348832
Info: PME INTERPOLATION ORDER     4
Info: PME GRID DIMENSIONS         36 36 40
Info: PME MAXIMUM GRID SPACING    1
Info: FULL ELECTROSTATIC EVALUATION FREQUENCY      2
Info: USING VERLET I (r-RESPA) MTS SCHEME.
Info: C1 SPLITTING OF LONG RANGE ELECTROSTATICS
Info: PLACING ATOMS IN PATCHES BY HYDROGEN GROUPS
Info: RIGID BONDS TO HYDROGEN : ALL
Info:         ERROR TOLERANCE : 1e-08
Info:          MAX ITERATIONS : 100
Info: RIGID WATER USING SETTLE ALGORITHM
Info: RANDOM NUMBER SEED     1743227454
Info: USE HYDROGEN BONDS?    NO
Info: Using AMBER format force field!
Info: AMBER PARM FILE        mobley_4193752.prmtop
Info: COORDINATE PDB         mobley_4193752.pdb
Info: Exclusions will be read from PARM file!
Info: SCNB (VDW SCALING)     2
Info: USING ARITHMETIC MEAN TO COMBINE L-J SIGMA PARAMETERS
Info: BINARY COORDINATES     mobley_4193752_min.coor
Info: SUMMARY OF PARAMETERS:
Info: 6 BONDS
Info: 5 ANGLES
Info:   5 HARMONIC
Info:   0 COSINE-BASED
Info: 3 DIHEDRAL
Info: 0 IMPROPER
Info: 0 CROSSTERM
Info: 0 VDW
Info: 21 VDW_PAIRS
Info: 0 NBTHOLE_PAIRS
Info: STRUCTURE SUMMARY:
Info: 2999 ATOMS
Info: 2999 BONDS
Info: 21 ANGLES
Info: 34 DIHEDRALS
Info: 0 IMPROPERS
Info: 0 CROSSTERMS
Info: 3045 EXCLUSIONS
Info: 2990 RIGID BONDS
Info: 6007 DEGREES OF FREEDOM
Info: 1004 HYDROGEN GROUPS
Info: 3 ATOMS IN LARGEST HYDROGEN GROUP
Info: 1004 MIGRATION GROUPS
Info: 3 ATOMS IN LARGEST MIGRATION GROUP
Info: TOTAL MASS = 18049 amu
Info: TOTAL CHARGE = 7.45058e-09 e
Info: MASS DENSITY = 0.684789 g/cm^3
Info: ATOM DENSITY = 0.0685205 atoms/A^3
Info: ADDED 0 IMPLICIT EXCLUSIONS
Info: NONBONDED TABLE R-SQUARED SPACING: 0.0625
Info: NONBONDED TABLE SIZE: 705 POINTS
Info: REMOVING COM VELOCITY -0.139069 0.0877513 0.0196792
TCL: Running for 100000 steps
ETITLE: TS BOND ANGLE DIHED IMPRP ELECT VDW BOUNDARY MISC KINETIC TOTAL TEMP POTENTIAL TOTAL3 TEMPAVG PRESSURE GPRESSURE VOLUME PRESSAVG GPRESSAVG
ENERGY: 0 0.4049 0.2537 0.0435 0.0000 -13835.9654 2448.5295 0.0000 0.0000 1740.1428 -9646.5909 291.5531 -11386.7337 -9646.2595 291.5531 519.6044 553.0715 43767.9480 519.6044 553.0715
ENERGY: 100000 0.7519 0.6388 0.7221 0.0000 -14354.6955 2432.5288 0.0000 0.0000 178.2378 -11741.8162 29.8629 -11920.0540 -11741.3342 31.0147 -574.2259 -524.4257 29124.9663 4.1816 4.2286
TCL: Running 100000 steps at 60 kelvin.
TCL: Setting parameter langevinTemp to 60
TCL: Running for 100000 steps
ETITLE: TS BOND ANGLE DIHED IMPRP ELECT VDW BOUNDARY MISC KINETIC TOTAL TEMP POTENTIAL TOTAL3 TEMPAVG PRESSURE GPRESSURE VOLUME PRESSAVG GPRESSAVG
ENERGY: 100000 0.7519 0.6388 0.7221 0.0000 -14354.6955 2432.5288 0.0000 0.0000 178.1492 -11741.9048 29.8481 -11920.0540 -11741.4699 29.8481 -582.4335 -524.2548 29124.9663 -582.4335 -524.2548
ENERGY: 200000 1.0433 0.9298 1.4058 0.0000 -14325.4924 2498.3220 0.0000 0.0000 370.0090 -11453.7826 61.9933 -11823.7915 -11452.9819 59.8647 406.3312 439.0216 29018.3817 2.8270 2.8304
TCL: Running 100000 steps at 90 kelvin.
TCL: Setting parameter langevinTemp to 90
TCL: Running for 100000 steps
ETITLE: TS BOND ANGLE DIHED IMPRP ELECT VDW BOUNDARY MISC KINETIC TOTAL TEMP POTENTIAL TOTAL3 TEMPAVG PRESSURE GPRESSURE VOLUME PRESSAVG GPRESSAVG
ENERGY: 200000 1.0433 0.9298 1.4058 0.0000 -14325.4924 2498.3220 0.0000 0.0000 369.8248 -11453.9667 61.9625 -11823.7915 -11453.0625 61.9625 379.6951 438.5375 29018.3817 379.6951 438.5375
ENERGY: 300000 0.9273 1.7225 0.9489 0.0000 -14253.8603 2475.0034 0.0000 0.0000 528.1181 -11247.1402 88.4838 -11775.2583 -11246.5537 89.8208 291.3775 279.4437 29179.1157 4.3856 4.4221
TCL: Running 100000 steps at 120 kelvin.
TCL: Setting parameter langevinTemp to 120
TCL: Running for 100000 steps
ETITLE: TS BOND ANGLE DIHED IMPRP ELECT VDW BOUNDARY MISC KINETIC TOTAL TEMP POTENTIAL TOTAL3 TEMPAVG PRESSURE GPRESSURE VOLUME PRESSAVG GPRESSAVG
ENERGY: 300000 0.9273 1.7225 0.9489 0.0000 -14253.8603 2475.0034 0.0000 0.0000 527.8476 -11247.4107 88.4385 -11775.2583 -11246.1696 88.4385 232.3416 278.7933 29179.1157 232.3416 278.7933
ENERGY: 400000 1.3452 0.7147 1.3586 0.0000 -13978.5534 2335.3938 0.0000 0.0000 705.4719 -10934.2692 118.1986 -11639.7411 -10933.1383 119.8519 -386.1260 -302.2894 29304.6226 4.2860 4.3221
TCL: Running 100000 steps at 150 kelvin.
TCL: Setting parameter langevinTemp to 150
TCL: Running for 100000 steps
ETITLE: TS BOND ANGLE DIHED IMPRP ELECT VDW BOUNDARY MISC KINETIC TOTAL TEMP POTENTIAL TOTAL3 TEMPAVG PRESSURE GPRESSURE VOLUME PRESSAVG GPRESSAVG
ENERGY: 400000 1.3452 0.7147 1.3586 0.0000 -13978.5534 2335.3938 0.0000 0.0000 705.1171 -10934.6240 118.1392 -11639.7411 -10933.1633 118.1392 -359.2535 -303.0630 29304.6226 -359.2535 -303.0630
ENERGY: 500000 0.9523 1.9558 1.6107 0.0000 -13708.3414 2257.8559 0.0000 0.0000 899.7509 -10546.2158 150.7492 -11445.9668 -10543.8096 149.6037 -89.6906 -12.4497 29141.8729 4.8160 4.8435
TCL: Running 100000 steps at 180 kelvin.
TCL: Setting parameter langevinTemp to 180
TCL: Running for 100000 steps
ETITLE: TS BOND ANGLE DIHED IMPRP ELECT VDW BOUNDARY MISC KINETIC TOTAL TEMP POTENTIAL TOTAL3 TEMPAVG PRESSURE GPRESSURE VOLUME PRESSAVG GPRESSAVG
ENERGY: 500000 0.9523 1.9558 1.6107 0.0000 -13708.3414 2257.8559 0.0000 0.0000 899.2886 -10546.6782 150.6717 -11445.9668 -10544.9718 150.6717 -64.7410 -12.5618 29141.8729 -64.7410 -12.5618
ENERGY: 600000 3.1191 3.0684 2.4885 0.0000 -13248.1872 2108.5564 0.0000 0.0000 1063.9103 -10067.0445 178.2534 -11130.9548 -10064.3580 180.1083 -143.4892 -70.4654 29247.8963 3.6373 3.7592
TCL: Running 100000 steps at 210 kelvin.
TCL: Setting parameter langevinTemp to 210
TCL: Running for 100000 steps
ETITLE: TS BOND ANGLE DIHED IMPRP ELECT VDW BOUNDARY MISC KINETIC TOTAL TEMP POTENTIAL TOTAL3 TEMPAVG PRESSURE GPRESSURE VOLUME PRESSAVG GPRESSAVG
ENERGY: 600000 3.1191 3.0684 2.4885 0.0000 -13248.1872 2108.5564 0.0000 0.0000 1063.3875 -10067.5673 178.1658 -11130.9548 -10065.1161 178.1658 -123.9449 -68.9469 29247.8963 -123.9449 -68.9469
ENERGY: 700000 3.9831 2.2477 2.1116 0.0000 -12578.2380 1890.6982 0.0000 0.0000 1277.6942 -9401.5032 214.0719 -10679.1973 -9399.4200 209.9226 -169.6520 -145.9539 29060.5241 4.0150 4.0413
TCL: Running 100000 steps at 240 kelvin.
TCL: Setting parameter langevinTemp to 240
TCL: Running for 100000 steps
ETITLE: TS BOND ANGLE DIHED IMPRP ELECT VDW BOUNDARY MISC KINETIC TOTAL TEMP POTENTIAL TOTAL3 TEMPAVG PRESSURE GPRESSURE VOLUME PRESSAVG GPRESSAVG
ENERGY: 700000 3.9831 2.2477 2.1116 0.0000 -12578.2380 1890.6982 0.0000 0.0000 1277.0900 -9402.1073 213.9707 -10679.1973 -9399.7890 213.9707 -200.2660 -146.8591 29060.5241 -200.2660 -146.8591
ENERGY: 800000 1.3649 3.0320 1.9768 0.0000 -11987.4939 1716.6481 0.0000 0.0000 1422.7159 -8841.7562 238.3696 -10264.4721 -8839.9331 240.0793 -437.6011 -313.6468 29529.8059 2.1231 1.9498
TCL: Running 100000 steps at 270 kelvin.
TCL: Setting parameter langevinTemp to 270
TCL: Running for 100000 steps
ETITLE: TS BOND ANGLE DIHED IMPRP ELECT VDW BOUNDARY MISC KINETIC TOTAL TEMP POTENTIAL TOTAL3 TEMPAVG PRESSURE GPRESSURE VOLUME PRESSAVG GPRESSAVG
ENERGY: 800000 1.3649 3.0320 1.9768 0.0000 -11987.4939 1716.6481 0.0000 0.0000 1421.9837 -8842.4884 238.2470 -10264.4721 -8839.5048 238.2470 -396.9701 -314.6193 29529.8059 -396.9701 -314.6193
ENERGY: 900000 2.5392 5.8728 2.9193 0.0000 -11349.7237 1524.4615 0.0000 0.0000 1631.9910 -8181.9399 273.4327 -9813.9308 -8178.6439 269.8037 -644.8387 -538.9421 30252.0005 4.9513 5.1308
TCL: Running 1000000 steps at 300 kelvin.
TCL: Setting parameter langevinTemp to 300
TCL: Running for 1000000 steps
ETITLE: TS BOND ANGLE DIHED IMPRP ELECT VDW BOUNDARY MISC KINETIC TOTAL TEMP POTENTIAL TOTAL3 TEMPAVG PRESSURE GPRESSURE VOLUME PRESSAVG GPRESSAVG
ENERGY: 900000 2.5392 5.8728 2.9193 0.0000 -11349.7237 1524.4615 0.0000 0.0000 1631.2075 -8182.7234 273.3015 -9813.9308 -8180.0673 273.3015 -632.7936 -539.3784 30252.0005 -632.7936 -539.3784
ENERGY: 1100000 2.9571 2.8592 1.5575 0.0000 -10795.0498 1397.8838 0.0000 0.0000 1799.1425 -7590.6497 301.4382 -9389.7922 -7587.5758 300.6238 -485.3515 -400.9470 30755.0406 4.3194 4.3235
ENERGY: 1300000 2.4841 4.0954 5.5060 0.0000 -10781.4526 1380.3834 0.0000 0.0000 1755.4417 -7633.5420 294.1163 -9388.9837 -7630.5476 300.0011 -1047.4541 -884.5965 31506.8240 2.2558 2.3340
ENERGY: 1500000 1.7791 4.0338 1.4367 0.0000 -10925.6097 1521.8985 0.0000 0.0000 1774.3269 -7622.1346 297.2805 -9396.4615 -7619.0956 300.6616 367.5206 484.8725 31017.8796 2.6294 2.6782
ENERGY: 1700000 5.7100 2.5042 3.1764 0.0000 -10786.9826 1410.7999 0.0000 0.0000 1748.3184 -7616.4737 292.9229 -9364.7921 -7612.3582 300.2253 -363.4350 -338.0202 31188.5563 3.3279 3.2363
ENERGY: 1900000 3.8059 7.0883 1.6445 0.0000 -10898.0742 1420.3578 0.0000 0.0000 1800.9686 -7664.2090 301.7442 -9465.1776 -7662.3478 300.1568 -535.1152 -427.9775 30795.7724 1.4374 1.5289
TCL: Exiting due to exit command.
