Info: SIMULATION PARAMETERS:
Info: TIMESTEP               2
Info: NUMBER OF STEPS        0
Info: STEPS PER CYCLE        10
Info: PERIODIC CELL BASIS 1  30.9357 0 0
Info: PERIODIC CELL BASIS 2  0 31.3115 0
Info: PERIODIC CELL BASIS 3  0 0 31.5175
Info: PERIODIC CELL CENTER   0 0 0
Info: WRAPPING WATERS AROUND PERIODIC BOUNDARIES ON OUTPUT.
Info: WRAPPING ALL CLUSTERS AROUND PERIODIC BOUNDARIES ON OUTPUT.
Info: FIRST LDB TIMESTEP     50
Info: LAST LDB TIMESTEP     -1
Info: HOM BACKGROUND SCALING 1
Info: PME BACKGROUND SCALING 1
Info: MIN ATOMS PER PATCH    40
Info: EMPTY PATCH LOAD       40 ATOMS
Info: VELOCITY FILE          mobley_9055303_equil.vel
Info: CENTER OF MASS MOVING INITIALLY? NO
Info: DIELECTRIC             1
Info: EXCLUDE                SCALED ONE-FOUR
Info: 1-4 ELECTROSTATICS SCALED BY 0.833333
Info: MODIFIED 1-4 VDW PARAMETERS WILL BE USED
Info: DCD FILENAME           mobley_9055303_prod.dcd
Info: DCD FREQUENCY          100000
Info: DCD FIRST STEP         100000
Info: DCD FILE WILL CONTAIN UNIT CELL DATA
Info: XST FILENAME           mobley_9055303_prod.xst
Info: XST FREQUENCY          100000
Info: NO VELOCITY DCD OUTPUT
Info: NO FORCE DCD OUTPUT
Info: OUTPUT FILENAME        mobley_9055303_prod
Info: BINARY OUTPUT FILES WILL BE USED
Info: RESTART FILENAME       mobley_9055303_prod.restart
Info: RESTART FREQUENCY      100000
Info: BINARY RESTART FILES WILL BE USED
Info: CUTOFF                 9
Info: PAIRLIST DISTANCE      11
Info: PAIRLIST SHRINK RATE   0.01
Info: PAIRLIST GROW RATE     0.01
Info: PAIRLIST TRIGGER       0.3
Info: PAIRLISTS PER CYCLE    2
Info: PAIRLISTS ENABLED
Info: MARGIN                 2
Info: HYDROGEN GROUP CUTOFF  2.5
Info: PATCH DIMENSION        15.5
Info: ENERGY OUTPUT STEPS    100000
Info: ENERGY EVALUATION STEPS    100000
Info: OUTPUT ENERGY PRECISION 4
Info: CROSSTERM ENERGY INCLUDED IN DIHEDRAL
Info: TIMING OUTPUT STEPS    1000000
Info: PRESSURE OUTPUT STEPS  100000
Info: ALCHEMICAL FEP ON
Info: FEP CURRENT LAMBDA VALUE     1
Info: FEP COMPARISON LAMBDA VALUE  0.95
Info: FEP INTRA-ALCHEMICAL NON-BONDED INTERACTIONS WILL BE RETAINED
Info: FEP INTRA-ALCHEMICAL BONDED INTERACTIONS WILL BE RETAINED
Info: FEP VDW SHIFTING COEFFICIENT 5
Info: FEP ELEC. ACTIVE FOR ANNIHILATED PARTICLES BETWEEN LAMBDA = 0 AND LAMBDA = 0.5
Info: FEP ELEC. ACTIVE FOR EXNIHILATED PARTICLES BETWEEN LAMBDA = 0.5 AND LAMBDA = 1
Info: FEP VDW ACTIVE FOR ANNIHILATED PARTICLES BETWEEN LAMBDA = 0 AND LAMBDA = 1
Info: FEP VDW ACTIVE FOR EXNIHILATED PARTICLES BETWEEN LAMBDA = 0 AND LAMBDA = 1
Info: FEP BOND ACTIVE FOR ANNIHILATED PARTICLES BETWEEN LAMBDA = 1 AND LAMBDA = 1
Info: FEP BOND ACTIVE FOR EXNIHILATED PARTICLES BETWEEN LAMBDA = 0 AND LAMBDA = 0
Info: LANGEVIN DYNAMICS ACTIVE
Info: LANGEVIN TEMPERATURE   300
Info: LANGEVIN USING BBK INTEGRATOR
Info: LANGEVIN DAMPING COEFFICIENT IS 1 INVERSE PS
Info: LANGEVIN DYNAMICS APPLIED TO HYDROGENS
Info: LANGEVIN PISTON PRESSURE CONTROL ACTIVE
Info:        TARGET PRESSURE IS 1.01325 BAR
Info:     OSCILLATION PERIOD IS 50 FS
Info:             DECAY TIME IS 25 FS
Info:     PISTON TEMPERATURE IS 300 K
Info:       PRESSURE CONTROL IS GROUP-BASED
Info:    INITIAL STRAIN RATE IS 0.000355574 0.000355574 0.000355574
Info:       CELL FLUCTUATION IS ISOTROPIC
Info: PARTICLE MESH EWALD (PME) ACTIVE
Info: PME TOLERANCE               1e-06
Info: PME EWALD COEFFICIENT       0.348832
Info: PME INTERPOLATION ORDER     4
Info: PME GRID DIMENSIONS         32 32 32
Info: PME MAXIMUM GRID SPACING    1
Info: PME CALCULATION WILL BE PERFORMED ON GPU
Info: FULL ELECTROSTATIC EVALUATION FREQUENCY      2
Info: USING VERLET I (r-RESPA) MTS SCHEME.
Info: C1 SPLITTING OF LONG RANGE ELECTROSTATICS
Info: PLACING ATOMS IN PATCHES BY HYDROGEN GROUPS
Info: RIGID BONDS TO HYDROGEN : ALL
Info:         ERROR TOLERANCE : 1e-08
Info:          MAX ITERATIONS : 100
Info: RIGID WATER USING SETTLE ALGORITHM
Info: RANDOM NUMBER SEED     1743482795
Info: USE HYDROGEN BONDS?    NO
Info: Using AMBER format force field!
Info: AMBER PARM FILE        mobley_9055303.prmtop
Info: COORDINATE PDB         mobley_9055303.pdb
Info: Exclusions will be read from PARM file!
Info: SCNB (VDW SCALING)     2
Info: USING ARITHMETIC MEAN TO COMBINE L-J SIGMA PARAMETERS
Info: BINARY COORDINATES     mobley_9055303_equil.coor
Info: SUMMARY OF PARAMETERS:
Info: 3 BONDS
Info: 1 ANGLES
Info:   1 HARMONIC
Info:   0 COSINE-BASED
Info: 0 DIHEDRAL
Info: 0 IMPROPER
Info: 0 CROSSTERM
Info: 0 VDW
Info: 10 VDW_PAIRS
Info: 0 NBTHOLE_PAIRS
Info: To read alchdata from file: mobley_9055303.pdb
Info: To read alchflag data from column: 5
Info: STRUCTURE SUMMARY:
Info: 2960 ATOMS
Info: 2959 BONDS
Info: 6 ANGLES
Info: 0 DIHEDRALS
Info: 0 IMPROPERS
Info: 0 CROSSTERMS
Info: 2965 EXCLUSIONS
Info: 2959 RIGID BONDS
Info: ALCH: 0 ATOMS TO DISAPPEAR IN FINAL STATE
Info: ALCH: 5 ATOMS TO APPEAR IN FINAL STATE
Info: 5921 DEGREES OF FREEDOM
Info: 986 HYDROGEN GROUPS
Info: 5 ATOMS IN LARGEST HYDROGEN GROUP
Info: 986 MIGRATION GROUPS
Info: 5 ATOMS IN LARGEST MIGRATION GROUP
Info: TOTAL MASS = 17761.8 amu
Info: TOTAL CHARGE = 0.000100002 e
Info: MASS DENSITY = 0.966118 g/cm^3
Info: ATOM DENSITY = 0.0969562 atoms/A^3
Info: ADDED 0 IMPLICIT EXCLUSIONS
Info: NONBONDED TABLE R-SQUARED SPACING: 0.0625
Info: NONBONDED TABLE SIZE: 705 POINTS
Info: REMOVING COM VELOCITY 0.0413171 0.0242815 0.299225
Info: Use 3D box decompostion in PME FFT.
Info: Updated CUDA force table with 4096 elements.
Info: Updated CUDA LJ table with 4 x 4 elements.
Info: Found 8 unique exclusion lists needing 8 bytes
TCL: Running for 1500000 steps
ETITLE: TS BOND ANGLE DIHED IMPRP ELECT VDW BOUNDARY MISC KINETIC TOTAL TEMP POTENTIAL TOTALAVG TEMPAVG PRESSURE GPRESSURE VOLUME PRESSAVG GPRESSAVG
ENERGY: 0 0.0000 2.1617 0.0000 0.0000 -10668.4287 1402.3011 0.0000 0.0000 1756.3444 -7507.6215 298.5417 -9263.9659 -7507.6215 298.5417 -371.6989 -285.1954 30529.2419 -371.6989 -285.1954
ENERGY: 300000 0.0000 1.9009 0.0000 0.0000 -10729.7130 1392.2838 0.0000 0.0000 1763.8881 -7571.6401 299.8240 -9335.5282 -7507.4502 302.2496 -358.3360 -314.9101 30220.6239 -89.2606 -20.4712
ENERGY: 600000 0.0000 2.0824 0.0000 0.0000 -10862.6766 1490.6612 0.0000 0.0000 1756.9045 -7613.0285 298.6369 -9369.9330 -7531.5543 300.9181 321.3375 406.1244 29933.6879 -98.7203 -26.2308
ENERGY: 900000 0.0000 2.4889 0.0000 0.0000 -10706.3934 1395.4454 0.0000 0.0000 1725.8663 -7582.5928 293.3611 -9308.4591 -7535.1023 300.8456 -474.3228 -466.1711 30771.2452 -187.1252 -126.0115
ENERGY: 1200000 0.0000 0.7108 0.0000 0.0000 -10839.1175 1438.4044 0.0000 0.0000 1754.6545 -7645.3478 298.2545 -9400.0023 -7553.1595 300.0158 -189.7317 -157.0863 30114.3767 -222.7326 -164.2146
ENERGY: 1500000 0.0000 1.8010 0.0000 0.0000 -10620.0976 1403.3630 0.0000 0.0000 1697.3200 -7517.6137 288.5088 -9214.9337 -7544.8996 300.3137 -118.4814 -117.9313 30602.6370 -210.2191 -154.3226
TCL: Running FEP window   2: Lambda1 0.95   Lambda2 0.8999999999999999 [dLambda -0.050000000000000044]
TCL: Setting parameter firsttimestep to 0
TCL: Setting parameter alchLambda to 0.95
Info: NONBONDED TABLE R-SQUARED SPACING: 0.0625
Info: NONBONDED TABLE SIZE: 705 POINTS
TCL: Setting parameter alchLambda2 to 0.8999999999999999
Info: NONBONDED TABLE R-SQUARED SPACING: 0.0625
Info: NONBONDED TABLE SIZE: 705 POINTS
TCL: Running for 1500000 steps
ETITLE: TS BOND ANGLE DIHED IMPRP ELECT VDW BOUNDARY MISC KINETIC TOTAL TEMP POTENTIAL TOTALAVG TEMPAVG PRESSURE GPRESSURE VOLUME PRESSAVG GPRESSAVG
ENERGY: 0 0.0000 1.8010 0.0000 0.0000 -10620.0989 1402.8127 0.0000 0.0000 1696.4213 -7519.0639 288.3560 -9215.4852 -7519.0639 288.3560 -202.1111 -131.9798 30602.6370 -202.1111 -131.9798
ENERGY: 300000 0.0000 1.7541 0.0000 0.0000 -10571.0707 1320.6033 0.0000 0.0000 1751.0322 -7497.6812 297.6387 -9248.7133 -7578.2331 293.5487 -861.1466 -784.1009 30453.3769 -459.7568 -364.2327
ENERGY: 600000 0.0000 1.6044 0.0000 0.0000 -10718.1821 1434.0114 0.0000 0.0000 1705.3068 -7577.2596 289.8664 -9282.5664 -7572.4596 295.3665 -263.7267 -172.6991 30721.8989 -441.9000 -377.0443
ENERGY: 900000 0.0000 3.7834 0.0000 0.0000 -10743.2539 1455.4249 0.0000 0.0000 1819.8817 -7464.1640 309.3417 -9284.0457 -7564.0000 296.1574 37.4698 30.6756 30658.5927 -343.8337 -286.5911
ENERGY: 1200000 0.0000 3.0335 0.0000 0.0000 -10809.4953 1510.1785 0.0000 0.0000 1757.0921 -7539.1911 298.6688 -9296.2832 -7551.9618 297.7308 284.6349 417.5190 30449.1398 -303.0713 -242.6468
ENERGY: 1500000 0.0000 1.7475 0.0000 0.0000 -10563.3016 1348.3224 0.0000 0.0000 1759.3046 -7453.9271 299.0449 -9213.2317 -7550.1834 297.4858 -343.1977 -279.8535 30154.8969 -279.0020 -217.5279
TCL: Running FEP window   3: Lambda1 0.8999999999999999 Lambda2 0.8499999999999999 [dLambda -0.050000000000000044]
TCL: Setting parameter firsttimestep to 0
TCL: Setting parameter alchLambda to 0.8999999999999999
Info: NONBONDED TABLE R-SQUARED SPACING: 0.0625
Info: NONBONDED TABLE SIZE: 705 POINTS
TCL: Setting parameter alchLambda2 to 0.8499999999999999
Info: NONBONDED TABLE R-SQUARED SPACING: 0.0625
Info: NONBONDED TABLE SIZE: 705 POINTS
TCL: Running for 1500000 steps
ETITLE: TS BOND ANGLE DIHED IMPRP ELECT VDW BOUNDARY MISC KINETIC TOTAL TEMP POTENTIAL TOTALAVG TEMPAVG PRESSURE GPRESSURE VOLUME PRESSAVG GPRESSAVG
ENERGY: 0 0.0000 1.7475 0.0000 0.0000 -10563.3048 1348.3455 0.0000 0.0000 1758.4116 -7454.8002 298.8931 -9213.2118 -7454.8002 298.8931 -377.0514 -285.6400 30154.8969 -377.0514 -285.6400
ENERGY: 300000 0.0000 3.2173 0.0000 0.0000 -10664.4953 1363.3164 0.0000 0.0000 1778.2012 -7519.7605 302.2569 -9297.9617 -7499.0793 303.9827 -874.6992 -901.7348 31492.5207 -733.2991 -669.5720
ENERGY: 600000 0.0000 2.3981 0.0000 0.0000 -10801.1878 1494.0518 0.0000 0.0000 1814.5089 -7490.2290 308.4285 -9304.7379 -7544.3770 300.4567 376.4648 491.1543 30362.5242 -573.8436 -498.8218
ENERGY: 900000 0.0000 1.1522 0.0000 0.0000 -10883.6802 1557.9639 0.0000 0.0000 1832.9659 -7491.5982 311.5658 -9324.5641 -7540.2901 302.8483 925.0893 969.5081 30161.5203 -263.2106 -203.4111
ENERGY: 1200000 0.0000 1.2947 0.0000 0.0000 -10746.5190 1482.5305 0.0000 0.0000 1767.5189 -7495.1749 300.4411 -9262.6938 -7545.1048 301.8368 375.5651 432.2803 30573.3487 -174.6080 -112.1575
ENERGY: 1500000 0.0000 3.6897 0.0000 0.0000 -10765.7153 1430.5232 0.0000 0.0000 1697.0757 -7634.4267 288.4673 -9331.5024 -7551.3572 300.2973 9.2106 28.7124 30275.2620 -188.8221 -126.6323
TCL: Running FEP window   4: Lambda1 0.8499999999999999 Lambda2 0.7999999999999998 [dLambda -0.050000000000000044]
TCL: Setting parameter firsttimestep to 0
TCL: Setting parameter alchLambda to 0.8499999999999999
Info: NONBONDED TABLE R-SQUARED SPACING: 0.0625
Info: NONBONDED TABLE SIZE: 705 POINTS
TCL: Setting parameter alchLambda2 to 0.7999999999999998
Info: NONBONDED TABLE R-SQUARED SPACING: 0.0625
Info: NONBONDED TABLE SIZE: 705 POINTS
TCL: Running for 1500000 steps
ETITLE: TS BOND ANGLE DIHED IMPRP ELECT VDW BOUNDARY MISC KINETIC TOTAL TEMP POTENTIAL TOTALAVG TEMPAVG PRESSURE GPRESSURE VOLUME PRESSAVG GPRESSAVG
ENERGY: 0 0.0000 3.6897 0.0000 0.0000 -10765.7142 1430.7123 0.0000 0.0000 1696.2157 -7635.0964 288.3211 -9331.3122 -7635.0964 288.3211 -52.5305 28.1077 30275.2620 -52.5305 28.1077
ENERGY: 300000 0.0000 3.7863 0.0000 0.0000 -10789.4502 1479.4835 0.0000 0.0000 1743.1673 -7563.0132 296.3019 -9306.1805 -7569.6873 294.4459 -44.7237 14.9950 30817.2522 -251.3891 -176.3435
ENERGY: 600000 0.0000 2.6603 0.0000 0.0000 -10720.8647 1391.2148 0.0000 0.0000 1709.5214 -7617.4683 290.5828 -9326.9897 -7567.1677 295.2885 -709.9756 -593.6587 30557.0987 -255.3631 -176.1031
ENERGY: 900000 0.0000 1.1054 0.0000 0.0000 -10963.4910 1575.9703 0.0000 0.0000 1735.5459 -7650.8694 295.0064 -9386.4153 -7572.1172 297.8915 701.9734 752.5556 30479.5432 -145.2052 -80.6548
ENERGY: 1200000 0.0000 5.2954 0.0000 0.0000 -10542.7779 1353.3742 0.0000 0.0000 1802.8637 -7381.2445 306.4490 -9184.1082 -7544.0289 299.5231 -427.0311 -344.3778 30688.5696 -236.7402 -175.0861
ENERGY: 1500000 0.0000 0.5978 0.0000 0.0000 -10616.3064 1301.5704 0.0000 0.0000 1707.4506 -7606.6876 290.2308 -9314.1382 -7551.3359 298.8286 -1189.5886 -1132.8153 30531.7082 -338.1766 -273.1339
TCL: Running FEP window   5: Lambda1 0.7999999999999998 Lambda2 0.7499999999999998 [dLambda -0.050000000000000044]
TCL: Setting parameter firsttimestep to 0
TCL: Setting parameter alchLambda to 0.7999999999999998
Info: NONBONDED TABLE R-SQUARED SPACING: 0.0625
Info: NONBONDED TABLE SIZE: 705 POINTS
TCL: Setting parameter alchLambda2 to 0.7499999999999998
Info: NONBONDED TABLE R-SQUARED SPACING: 0.0625
Info: NONBONDED TABLE SIZE: 705 POINTS
TCL: Running for 1500000 steps
ETITLE: TS BOND ANGLE DIHED IMPRP ELECT VDW BOUNDARY MISC KINETIC TOTAL TEMP POTENTIAL TOTALAVG TEMPAVG PRESSURE GPRESSURE VOLUME PRESSAVG GPRESSAVG
ENERGY: 0 0.0000 0.5978 0.0000 0.0000 -10616.2991 1301.7947 0.0000 0.0000 1706.5581 -7607.3485 290.0791 -9313.9066 -7607.3485 290.0791 -1220.8375 -1131.6992 30531.7082 -1220.8375 -1131.6992
ENERGY: 300000 0.0000 1.6371 0.0000 0.0000 -10753.9374 1372.5586 0.0000 0.0000 1752.7117 -7627.0300 297.9242 -9379.7417 -7553.0744 301.1914 -683.9708 -576.4572 30133.4685 -539.8123 -463.1272
ENERGY: 600000 0.0000 2.4012 0.0000 0.0000 -10873.4435 1541.5026 0.0000 0.0000 1743.3429 -7586.1968 296.3317 -9329.5397 -7565.2681 302.5405 852.0707 868.4375 30067.3504 -174.9617 -121.8316
ENERGY: 900000 0.0000 3.3128 0.0000 0.0000 -10711.3502 1389.7654 0.0000 0.0000 1825.3015 -7492.9704 310.2630 -9318.2719 -7550.1280 302.9648 -546.0486 -447.1424 30471.9499 -185.1519 -126.0492
ENERGY: 1200000 0.0000 2.9253 0.0000 0.0000 -10769.4993 1468.8872 0.0000 0.0000 1776.5939 -7521.0929 301.9837 -9297.6868 -7544.7819 303.0972 309.4518 356.5950 30303.0746 -78.2222 -21.2480
ENERGY: 1500000 0.0000 1.9612 0.0000 0.0000 -10927.8744 1562.3437 0.0000 0.0000 1807.0790 -7556.4904 307.1655 -9363.5694 -7543.1848 303.0374 948.5562 957.7687 30186.4619 38.0688 89.3346
TCL: Running FEP window   6: Lambda1 0.7499999999999998 Lambda2 0.6999999999999997 [dLambda -0.050000000000000044]
TCL: Setting parameter firsttimestep to 0
TCL: Setting parameter alchLambda to 0.7499999999999998
Info: NONBONDED TABLE R-SQUARED SPACING: 0.0625
Info: NONBONDED TABLE SIZE: 705 POINTS
TCL: Setting parameter alchLambda2 to 0.6999999999999997
Info: NONBONDED TABLE R-SQUARED SPACING: 0.0625
Info: NONBONDED TABLE SIZE: 705 POINTS
TCL: Running for 1500000 steps
ETITLE: TS BOND ANGLE DIHED IMPRP ELECT VDW BOUNDARY MISC KINETIC TOTAL TEMP POTENTIAL TOTALAVG TEMPAVG PRESSURE GPRESSURE VOLUME PRESSAVG GPRESSAVG
ENERGY: 0 0.0000 1.9612 0.0000 0.0000 -10927.8682 1562.4180 0.0000 0.0000 1806.2154 -7557.2737 307.0187 -9363.4890 -7557.2737 307.0187 892.2485 956.9544 30186.4619 892.2485 956.9544
ENERGY: 300000 0.0000 1.8315 0.0000 0.0000 -10534.2041 1265.9777 0.0000 0.0000 1729.8397 -7536.5553 294.0365 -9266.3950 -7539.3311 300.3342 -1650.3435 -1629.1568 31186.6805 -488.3350 -416.3885
ENERGY: 600000 0.0000 3.6845 0.0000 0.0000 -10764.4282 1437.0733 0.0000 0.0000 1789.2759 -7534.3945 304.1394 -9323.6704 -7526.7758 299.9656 163.1958 184.1706 30077.4316 -84.0545 -21.0128
ENERGY: 900000 0.0000 0.7465 0.0000 0.0000 -10751.3158 1438.4799 0.0000 0.0000 1766.9916 -7545.0979 300.3515 -9312.0895 -7533.9158 299.5649 -84.1558 -73.8984 30606.4778 -99.1722 -41.9367
ENERGY: 1200000 0.0000 1.8648 0.0000 0.0000 -10819.0727 1502.3309 0.0000 0.0000 1719.4663 -7595.4107 292.2732 -9314.8770 -7543.8511 298.8222 629.9419 639.7308 30105.6542 -150.0352 -95.1293
ENERGY: 1500000 0.0000 1.7931 0.0000 0.0000 -10848.1375 1552.0745 0.0000 0.0000 1773.1025 -7521.1674 301.3902 -9294.2699 -7539.1460 298.8745 753.4824 821.5651 30482.6520 -31.2723 25.7095
TCL: Running FEP window   7: Lambda1 0.6999999999999997 Lambda2 0.6499999999999997 [dLambda -0.050000000000000044]
TCL: Setting parameter firsttimestep to 0
TCL: Setting parameter alchLambda to 0.6999999999999997
Info: NONBONDED TABLE R-SQUARED SPACING: 0.0625
Info: NONBONDED TABLE SIZE: 705 POINTS
TCL: Setting parameter alchLambda2 to 0.6499999999999997
Info: NONBONDED TABLE R-SQUARED SPACING: 0.0625
Info: NONBONDED TABLE SIZE: 705 POINTS
TCL: Running for 1500000 steps
ETITLE: TS BOND ANGLE DIHED IMPRP ELECT VDW BOUNDARY MISC KINETIC TOTAL TEMP POTENTIAL TOTALAVG TEMPAVG PRESSURE GPRESSURE VOLUME PRESSAVG GPRESSAVG
ENERGY: 0 0.0000 1.7931 0.0000 0.0000 -10848.1382 1552.2044 0.0000 0.0000 1772.1678 -7521.9730 301.2313 -9294.1408 -7521.9730 301.2313 737.5558 819.3801 30482.6520 737.5558 819.3801
ENERGY: 300000 0.0000 1.8972 0.0000 0.0000 -10668.5579 1411.3544 0.0000 0.0000 1766.1834 -7489.1230 300.2141 -9255.3063 -7523.2652 298.5919 -26.1337 -1.2663 30221.0941 201.8969 254.6080
ENERGY: 600000 0.0000 2.0216 0.0000 0.0000 -10536.9981 1374.0052 0.0000 0.0000 1730.3406 -7430.6307 294.1216 -9160.9714 -7512.1981 299.0025 -125.5558 -43.0506 30619.8260 20.8088 88.1664
ENERGY: 900000 0.0000 1.6191 0.0000 0.0000 -10803.1998 1464.2325 0.0000 0.0000 1722.1982 -7615.1500 292.7376 -9337.3482 -7531.3694 298.4727 -29.5517 16.5736 30507.4880 -1.5342 62.3604
ENERGY: 1200000 0.0000 2.1695 0.0000 0.0000 -10849.5745 1516.6518 0.0000 0.0000 1775.4026 -7555.3507 301.7812 -9330.7532 -7529.2623 299.3459 450.0990 542.3015 30498.5923 -73.3328 -10.3915
ENERGY: 1500000 0.0000 1.3865 0.0000 0.0000 -10827.4122 1483.5592 0.0000 0.0000 1805.6008 -7536.8658 306.9143 -9342.4666 -7530.6550 300.2329 46.0056 84.7207 30657.8521 -129.2464 -71.3580
TCL: Running FEP window   8: Lambda1 0.6499999999999997 Lambda2 0.5999999999999996 [dLambda -0.050000000000000044]
TCL: Setting parameter firsttimestep to 0
TCL: Setting parameter alchLambda to 0.6499999999999997
Info: NONBONDED TABLE R-SQUARED SPACING: 0.0625
Info: NONBONDED TABLE SIZE: 705 POINTS
TCL: Setting parameter alchLambda2 to 0.5999999999999996
Info: NONBONDED TABLE R-SQUARED SPACING: 0.0625
Info: NONBONDED TABLE SIZE: 705 POINTS
TCL: Running for 1500000 steps
ETITLE: TS BOND ANGLE DIHED IMPRP ELECT VDW BOUNDARY MISC KINETIC TOTAL TEMP POTENTIAL TOTALAVG TEMPAVG PRESSURE GPRESSURE VOLUME PRESSAVG GPRESSAVG
ENERGY: 0 0.0000 1.3865 0.0000 0.0000 -10827.4228 1483.5266 0.0000 0.0000 1804.6793 -7537.8304 306.7576 -9342.5097 -7537.8304 306.7576 -3.3852 80.6636 30657.8521 -3.3852 80.6636
ENERGY: 300000 0.0000 1.2097 0.0000 0.0000 -10549.9889 1366.1780 0.0000 0.0000 1805.8767 -7376.7246 306.9611 -9182.6012 -7488.1791 304.7011 -547.6460 -456.9803 30987.2181 -117.9955 -62.1881
ENERGY: 600000 0.0000 0.7369 0.0000 0.0000 -10729.7582 1434.9987 0.0000 0.0000 1799.6209 -7494.4017 305.8978 -9294.0225 -7515.9996 302.9858 -152.3191 -130.3829 30828.6081 -106.1139 -46.4502
ENERGY: 900000 0.0000 2.7198 0.0000 0.0000 -10788.6469 1456.0772 0.0000 0.0000 1799.2995 -7530.5503 305.8432 -9329.8499 -7524.5783 301.3647 -5.7302 14.7667 30667.7908 -148.8742 -93.5274
ENERGY: 1200000 0.0000 2.2605 0.0000 0.0000 -10771.7048 1455.1435 0.0000 0.0000 1804.4943 -7509.8065 306.7262 -9314.3007 -7524.4234 301.5987 269.5859 405.0212 29914.8676 -28.0647 30.9995
ENERGY: 1500000 0.0000 0.5024 0.0000 0.0000 -10622.8671 1394.7779 0.0000 0.0000 1749.4661 -7478.1207 297.3725 -9227.5868 -7523.5680 301.1562 -368.4392 -311.0598 30967.5189 -87.6647 -34.5640
TCL: Running FEP window   9: Lambda1 0.5999999999999996 Lambda2 0.5499999999999996 [dLambda -0.050000000000000044]
TCL: Setting parameter firsttimestep to 0
TCL: Setting parameter alchLambda to 0.5999999999999996
Info: NONBONDED TABLE R-SQUARED SPACING: 0.0625
Info: NONBONDED TABLE SIZE: 705 POINTS
TCL: Setting parameter alchLambda2 to 0.5499999999999996
Info: NONBONDED TABLE R-SQUARED SPACING: 0.0625
Info: NONBONDED TABLE SIZE: 705 POINTS
TCL: Running for 1500000 steps
ETITLE: TS BOND ANGLE DIHED IMPRP ELECT VDW BOUNDARY MISC KINETIC TOTAL TEMP POTENTIAL TOTALAVG TEMPAVG PRESSURE GPRESSURE VOLUME PRESSAVG GPRESSAVG
ENERGY: 0 0.0000 0.5024 0.0000 0.0000 -10622.8635 1394.8913 0.0000 0.0000 1748.6020 -7478.8679 297.2257 -9227.4699 -7478.8679 297.2257 -392.2200 -314.0318 30967.5189 -392.2200 -314.0318
ENERGY: 300000 0.0000 0.5506 0.0000 0.0000 -10595.8109 1349.2258 0.0000 0.0000 1816.1550 -7429.8795 308.7082 -9246.0345 -7497.7491 298.4917 -731.9695 -616.5106 30591.7826 -521.3229 -446.3221
ENERGY: 600000 0.0000 1.2703 0.0000 0.0000 -10995.0990 1461.7096 0.0000 0.0000 1683.5590 -7848.5600 286.1697 -9532.1190 -7566.0515 295.7696 -365.5816 -258.3673 29704.2895 -535.3286 -456.1717
ENERGY: 900000 0.0000 1.6246 0.0000 0.0000 -10663.7682 1407.3719 0.0000 0.0000 1729.8913 -7524.8804 294.0452 -9254.7717 -7559.2539 296.9338 -171.2213 -110.1350 30465.6747 -366.1626 -300.7369
ENERGY: 1200000 0.0000 3.2655 0.0000 0.0000 -10752.7033 1440.4717 0.0000 0.0000 1768.4222 -7540.5440 300.5947 -9308.9662 -7552.8077 297.6835 -180.9975 -121.0851 30710.6799 -353.5149 -288.8298
ENERGY: 1500000 0.0000 0.4899 0.0000 0.0000 -10736.8215 1442.9613 0.0000 0.0000 1687.7047 -7605.6656 286.8744 -9293.3703 -7555.9949 297.2928 -280.5555 -211.3185 30778.1053 -327.7665 -263.1593
TCL: Running FEP window  10: Lambda1 0.5499999999999996 Lambda2 0.4999999999999996 [dLambda -0.04999999999999999]
TCL: Setting parameter firsttimestep to 0
TCL: Setting parameter alchLambda to 0.5499999999999996
Info: NONBONDED TABLE R-SQUARED SPACING: 0.0625
Info: NONBONDED TABLE SIZE: 705 POINTS
TCL: Setting parameter alchLambda2 to 0.4999999999999996
Info: NONBONDED TABLE R-SQUARED SPACING: 0.0625
Info: NONBONDED TABLE SIZE: 705 POINTS
TCL: Running for 1500000 steps
ETITLE: TS BOND ANGLE DIHED IMPRP ELECT VDW BOUNDARY MISC KINETIC TOTAL TEMP POTENTIAL TOTALAVG TEMPAVG PRESSURE GPRESSURE VOLUME PRESSAVG GPRESSAVG
ENERGY: 0 0.0000 0.4899 0.0000 0.0000 -10736.8262 1442.5479 0.0000 0.0000 1686.8664 -7606.9220 286.7319 -9293.7884 -7606.9220 286.7319 -303.0946 -217.2921 30778.1053 -303.0946 -217.2921
ENERGY: 300000 0.0000 2.3026 0.0000 0.0000 -10706.4859 1450.0932 0.0000 0.0000 1810.5347 -7443.5554 307.7529 -9254.0901 -7520.2223 296.7640 -10.8232 26.5102 30929.8697 -359.2181 -298.8600
ENERGY: 600000 0.0000 0.5696 0.0000 0.0000 -10993.1734 1557.8062 0.0000 0.0000 1783.7661 -7651.0314 303.2028 -9434.7976 -7563.8716 298.9580 768.5009 800.8824 29861.1099 -172.9214 -133.2845
ENERGY: 900000 0.0000 3.5849 0.0000 0.0000 -10896.0686 1558.0577 0.0000 0.0000 1811.2593 -7523.1667 307.8761 -9334.4260 -7554.2542 300.5295 964.0539 1016.8993 30005.7920 -24.0656 16.6909
ENERGY: 1200000 0.0000 1.3580 0.0000 0.0000 -10645.9112 1398.1941 0.0000 0.0000 1795.5562 -7450.8029 305.2069 -9246.3591 -7540.9840 300.9223 -94.3170 5.5430 30350.5781 -11.0926 42.9118
ENERGY: 1500000 0.0000 3.5628 0.0000 0.0000 -10623.0551 1332.6747 0.0000 0.0000 1759.6038 -7527.2139 299.0957 -9286.8177 -7545.1872 300.1392 -969.2116 -898.5559 30943.3236 -99.4855 -37.8477
TCL: Running FEP window  11: Lambda1 0.4999999999999996 Lambda2 0.4499999999999996 [dLambda -0.04999999999999999]
TCL: Setting parameter firsttimestep to 0
TCL: Setting parameter alchLambda to 0.4999999999999996
Info: NONBONDED TABLE R-SQUARED SPACING: 0.0625
Info: NONBONDED TABLE SIZE: 705 POINTS
TCL: Setting parameter alchLambda2 to 0.4499999999999996
Info: NONBONDED TABLE R-SQUARED SPACING: 0.0625
Info: NONBONDED TABLE SIZE: 705 POINTS
TCL: Running for 1500000 steps
ETITLE: TS BOND ANGLE DIHED IMPRP ELECT VDW BOUNDARY MISC KINETIC TOTAL TEMP POTENTIAL TOTALAVG TEMPAVG PRESSURE GPRESSURE VOLUME PRESSAVG GPRESSAVG
ENERGY: 0 0.0000 3.5628 0.0000 0.0000 -10623.0547 1332.7333 0.0000 0.0000 1758.6906 -7528.0681 298.9405 -9286.7587 -7528.0681 298.9405 -973.4527 -899.3525 30943.3236 -973.4527 -899.3525
ENERGY: 300000 0.0000 1.3157 0.0000 0.0000 -10760.1203 1425.2491 0.0000 0.0000 1838.4861 -7495.0694 312.5041 -9333.5556 -7587.4957 299.0133 -275.5169 -223.2807 30431.8996 -202.8837 -148.5293
ENERGY: 600000 0.0000 1.6615 0.0000 0.0000 -10778.8199 1500.8707 0.0000 0.0000 1813.4636 -7462.8241 308.2508 -9276.2877 -7538.6249 303.4673 400.1736 462.8156 30552.0388 23.5389 76.6545
ENERGY: 900000 0.0000 1.0984 0.0000 0.0000 -10632.9151 1400.3141 0.0000 0.0000 1771.6976 -7459.8049 301.1514 -9231.5025 -7531.5129 301.7306 -291.0083 -216.1792 30703.0613 -98.0671 -36.2575
ENERGY: 1200000 0.0000 1.3139 0.0000 0.0000 -10719.8167 1422.0092 0.0000 0.0000 1741.5916 -7554.9020 296.0340 -9296.4936 -7542.3038 299.7524 -320.3264 -311.6378 30715.1958 -89.3698 -30.2348
ENERGY: 1500000 0.0000 2.3666 0.0000 0.0000 -10785.8500 1510.5207 0.0000 0.0000 1720.2977 -7552.6649 292.4145 -9272.9627 -7546.6733 299.2906 702.0689 742.8300 30151.9406 -56.9533 1.6284
TCL: Running FEP window  12: Lambda1 0.4499999999999996 Lambda2 0.39999999999999963 [dLambda -0.04999999999999999]
TCL: Setting parameter firsttimestep to 0
TCL: Setting parameter alchLambda to 0.4499999999999996
Info: NONBONDED TABLE R-SQUARED SPACING: 0.0625
Info: NONBONDED TABLE SIZE: 705 POINTS
TCL: Setting parameter alchLambda2 to 0.39999999999999963
Info: NONBONDED TABLE R-SQUARED SPACING: 0.0625
Info: NONBONDED TABLE SIZE: 705 POINTS
TCL: Running for 1500000 steps
ETITLE: TS BOND ANGLE DIHED IMPRP ELECT VDW BOUNDARY MISC KINETIC TOTAL TEMP POTENTIAL TOTALAVG TEMPAVG PRESSURE GPRESSURE VOLUME PRESSAVG GPRESSAVG
ENERGY: 0 0.0000 2.3666 0.0000 0.0000 -10785.8503 1510.5585 0.0000 0.0000 1719.4178 -7553.5074 292.2649 -9272.9252 -7553.5074 292.2649 658.5884 741.8858 30151.9406 658.5884 741.8858
ENERGY: 300000 0.0000 3.6979 0.0000 0.0000 -10840.0961 1464.8017 0.0000 0.0000 1735.8663 -7635.7302 295.0609 -9371.5965 -7575.1230 299.6749 -199.6210 -91.9499 30418.8608 157.1817 238.1367
ENERGY: 600000 0.0000 1.9174 0.0000 0.0000 -10726.0690 1470.1041 0.0000 0.0000 1787.1537 -7466.8939 303.7786 -9254.0476 -7539.8996 300.8898 196.4778 240.4023 30557.0061 157.8729 232.9946
ENERGY: 900000 0.0000 2.9196 0.0000 0.0000 -10626.4228 1377.5500 0.0000 0.0000 1745.1599 -7500.7933 296.6406 -9245.9533 -7539.4342 299.6382 -453.6985 -392.8577 30517.1771 21.9383 84.6232
ENERGY: 1200000 0.0000 3.7516 0.0000 0.0000 -10874.2342 1505.2632 0.0000 0.0000 1793.6471 -7571.5723 304.8824 -9365.2194 -7541.7331 299.4233 462.5467 505.9631 30161.3522 -11.5205 46.2066
ENERGY: 1500000 0.0000 1.1722 0.0000 0.0000 -10626.5633 1414.1855 0.0000 0.0000 1856.8989 -7354.3067 315.6339 -9211.2056 -7526.9659 301.2740 96.3580 70.0700 30593.2674 18.0657 66.8604
TCL: Running FEP window  13: Lambda1 0.39999999999999963 Lambda2 0.34999999999999964 [dLambda -0.04999999999999999]
TCL: Setting parameter firsttimestep to 0
TCL: Setting parameter alchLambda to 0.39999999999999963
Info: NONBONDED TABLE R-SQUARED SPACING: 0.0625
Info: NONBONDED TABLE SIZE: 705 POINTS
TCL: Setting parameter alchLambda2 to 0.34999999999999964
Info: NONBONDED TABLE R-SQUARED SPACING: 0.0625
Info: NONBONDED TABLE SIZE: 705 POINTS
TCL: Running for 1500000 steps
ETITLE: TS BOND ANGLE DIHED IMPRP ELECT VDW BOUNDARY MISC KINETIC TOTAL TEMP POTENTIAL TOTALAVG TEMPAVG PRESSURE GPRESSURE VOLUME PRESSAVG GPRESSAVG
ENERGY: 0 0.0000 1.1722 0.0000 0.0000 -10626.5627 1414.0976 0.0000 0.0000 1855.9773 -7355.3156 315.4772 -9211.2929 -7355.3156 315.4772 -4.9261 67.9983 30593.2674 -4.9261 67.9983
ENERGY: 300000 0.0000 1.9238 0.0000 0.0000 -10619.1160 1361.8754 0.0000 0.0000 1765.4974 -7489.8194 300.0975 -9255.3168 -7477.7409 306.0166 -689.1358 -632.8328 30814.9786 -393.5087 -321.5583
ENERGY: 600000 0.0000 1.2537 0.0000 0.0000 -10777.4891 1496.3800 0.0000 0.0000 1724.8722 -7554.9831 293.1921 -9279.8554 -7506.3268 303.1012 305.0677 356.5850 30605.7669 -245.9329 -157.2388
ENERGY: 900000 0.0000 1.6689 0.0000 0.0000 -10627.5479 1366.2506 0.0000 0.0000 1696.0588 -7563.5695 288.2944 -9259.6284 -7517.4925 301.1194 -800.5646 -726.6381 30783.7997 -170.3067 -92.1356
ENERGY: 1200000 0.0000 3.4109 0.0000 0.0000 -10683.9036 1375.9289 0.0000 0.0000 1815.7964 -7488.7674 308.6473 -9304.5638 -7516.5698 301.8406 -772.7136 -708.2264 30960.5047 -263.3453 -180.6225
ENERGY: 1500000 0.0000 1.2215 0.0000 0.0000 -10733.8445 1400.3999 0.0000 0.0000 1737.5204 -7594.7026 295.3420 -9332.2230 -7520.4129 301.4205 -497.5162 -444.5599 30545.5891 -270.8084 -197.6192
TCL: Running FEP window  14: Lambda1 0.34999999999999964 Lambda2 0.29999999999999966 [dLambda -0.04999999999999999]
TCL: Setting parameter firsttimestep to 0
TCL: Setting parameter alchLambda to 0.34999999999999964
Info: NONBONDED TABLE R-SQUARED SPACING: 0.0625
Info: NONBONDED TABLE SIZE: 705 POINTS
TCL: Setting parameter alchLambda2 to 0.29999999999999966
Info: NONBONDED TABLE R-SQUARED SPACING: 0.0625
Info: NONBONDED TABLE SIZE: 705 POINTS
TCL: Running for 1500000 steps
ETITLE: TS BOND ANGLE DIHED IMPRP ELECT VDW BOUNDARY MISC KINETIC TOTAL TEMP POTENTIAL TOTALAVG TEMPAVG PRESSURE GPRESSURE VOLUME PRESSAVG GPRESSAVG
ENERGY: 0 0.0000 1.2215 0.0000 0.0000 -10733.8439 1400.2314 0.0000 0.0000 1736.6294 -7595.7617 295.1906 -9332.3910 -7595.7617 295.1906 -528.8343 -447.0995 30545.5891 -528.8343 -447.0995
ENERGY: 300000 0.0000 1.8129 0.0000 0.0000 -10671.6620 1363.2047 0.0000 0.0000 1780.9597 -7525.6848 302.7258 -9306.6445 -7540.2106 299.9621 -543.6715 -520.1727 30471.1601 -234.5686 -176.2684
ENERGY: 600000 0.0000 2.4906 0.0000 0.0000 -10725.9397 1468.7634 0.0000 0.0000 1797.9651 -7456.7207 305.6163 -9254.6858 -7515.9485 301.6029 170.5863 262.3834 30629.7447 -102.1534 -50.0312
ENERGY: 900000 0.0000 1.6704 0.0000 0.0000 -10558.2283 1343.9844 0.0000 0.0000 1733.8967 -7478.6768 294.7261 -9212.5735 -7517.6043 301.6151 -757.4267 -714.0607 31128.2679 -85.3179 -34.8180
ENERGY: 1200000 0.0000 1.2771 0.0000 0.0000 -10689.5372 1380.3973 0.0000 0.0000 1794.7855 -7513.0773 305.0759 -9307.8627 -7525.0680 301.5178 -637.5412 -492.6449 30597.9426 -106.0516 -46.9181
ENERGY: 1500000 0.0000 1.6164 0.0000 0.0000 -10904.2498 1507.2552 0.0000 0.0000 1778.7493 -7616.6289 302.3501 -9395.3782 -7539.6833 301.3220 419.3363 431.3003 30352.0217 -42.4163 14.9679
TCL: Running FEP window  15: Lambda1 0.29999999999999966 Lambda2 0.24999999999999967 [dLambda -0.04999999999999999]
TCL: Setting parameter firsttimestep to 0
TCL: Setting parameter alchLambda to 0.29999999999999966
Info: NONBONDED TABLE R-SQUARED SPACING: 0.0625
Info: NONBONDED TABLE SIZE: 705 POINTS
TCL: Setting parameter alchLambda2 to 0.24999999999999967
Info: NONBONDED TABLE R-SQUARED SPACING: 0.0625
Info: NONBONDED TABLE SIZE: 705 POINTS
TCL: Running for 1500000 steps
ETITLE: TS BOND ANGLE DIHED IMPRP ELECT VDW BOUNDARY MISC KINETIC TOTAL TEMP POTENTIAL TOTALAVG TEMPAVG PRESSURE GPRESSURE VOLUME PRESSAVG GPRESSAVG
ENERGY: 0 0.0000 1.6164 0.0000 0.0000 -10904.2497 1507.4052 0.0000 0.0000 1777.8373 -7617.3908 302.1950 -9395.2281 -7617.3908 302.1950 352.1348 432.4944 30352.0217 352.1348 432.4944
ENERGY: 300000 0.0000 2.9212 0.0000 0.0000 -10697.6513 1424.4655 0.0000 0.0000 1761.2968 -7508.9678 299.3835 -9270.2646 -7549.0414 302.1631 -22.4181 96.7699 30177.6305 -38.9894 35.2937
ENERGY: 600000 0.0000 1.6407 0.0000 0.0000 -10840.2571 1478.9651 0.0000 0.0000 1742.4098 -7617.2416 296.1731 -9359.6514 -7562.3809 300.8504 -61.1999 -14.2333 30588.4091 -127.7481 -70.1699
ENERGY: 900000 0.0000 0.5289 0.0000 0.0000 -10845.7632 1546.1667 0.0000 0.0000 1762.5040 -7536.5636 299.5887 -9299.0676 -7570.8312 298.9030 650.5308 656.1017 30520.5848 -170.7856 -111.5140
ENERGY: 1200000 0.0000 3.4759 0.0000 0.0000 -10708.5941 1392.2137 0.0000 0.0000 1796.1467 -7516.7578 305.3073 -9312.9045 -7562.8608 299.4443 -574.7008 -519.2825 30695.3454 -233.6967 -171.8349
ENERGY: 1500000 0.0000 1.6441 0.0000 0.0000 -10722.1568 1424.3206 0.0000 0.0000 1796.0706 -7500.1215 305.2943 -9296.1921 -7554.0167 300.6063 -42.3478 72.9747 30258.6375 -225.2917 -161.3101
TCL: Running FEP window  16: Lambda1 0.24999999999999967 Lambda2 0.19999999999999968 [dLambda -0.04999999999999999]
TCL: Setting parameter firsttimestep to 0
TCL: Setting parameter alchLambda to 0.24999999999999967
Info: NONBONDED TABLE R-SQUARED SPACING: 0.0625
Info: NONBONDED TABLE SIZE: 705 POINTS
TCL: Setting parameter alchLambda2 to 0.19999999999999968
Info: NONBONDED TABLE R-SQUARED SPACING: 0.0625
Info: NONBONDED TABLE SIZE: 705 POINTS
TCL: Running for 1500000 steps
ETITLE: TS BOND ANGLE DIHED IMPRP ELECT VDW BOUNDARY MISC KINETIC TOTAL TEMP POTENTIAL TOTALAVG TEMPAVG PRESSURE GPRESSURE VOLUME PRESSAVG GPRESSAVG
ENERGY: 0 0.0000 1.6441 0.0000 0.0000 -10722.1567 1424.1881 0.0000 0.0000 1795.1784 -7501.1461 305.1427 -9296.3245 -7501.1461 305.1427 -14.9710 71.3310 30258.6375 -14.9710 71.3310
ENERGY: 300000 0.0000 2.4026 0.0000 0.0000 -10667.4642 1448.5880 0.0000 0.0000 1729.1558 -7487.3178 293.9202 -9216.4736 -7497.8273 300.0523 -6.4039 137.8624 30652.1729 -162.2464 -99.6620
ENERGY: 600000 0.0000 2.6456 0.0000 0.0000 -10814.5737 1445.2280 0.0000 0.0000 1741.1677 -7625.5324 295.9620 -9366.7001 -7510.0768 299.2841 -186.6083 -83.7945 30400.4410 -243.9103 -195.5296
ENERGY: 900000 0.0000 3.1738 0.0000 0.0000 -10609.8776 1360.6977 0.0000 0.0000 1785.7485 -7460.2577 303.5398 -9246.0062 -7515.5483 300.3323 -702.1366 -599.7508 30893.5208 -231.4790 -167.4934
ENERGY: 1200000 0.0000 1.3814 0.0000 0.0000 -10803.4260 1432.1430 0.0000 0.0000 1776.8208 -7593.0809 302.0223 -9369.9017 -7534.7334 300.8930 -210.7617 -165.6828 30052.5993 -189.6462 -122.8257
ENERGY: 1500000 0.0000 0.5463 0.0000 0.0000 -10684.2308 1446.7838 0.0000 0.0000 1777.1831 -7459.7176 302.0838 -9236.9007 -7528.6667 301.7002 54.9317 141.6999 30641.7438 -120.1550 -49.5302
TCL: Running FEP window  17: Lambda1 0.19999999999999968 Lambda2 0.1499999999999997 [dLambda -0.04999999999999999]
TCL: Setting parameter firsttimestep to 0
TCL: Setting parameter alchLambda to 0.19999999999999968
Info: NONBONDED TABLE R-SQUARED SPACING: 0.0625
Info: NONBONDED TABLE SIZE: 705 POINTS
TCL: Setting parameter alchLambda2 to 0.1499999999999997
Info: NONBONDED TABLE R-SQUARED SPACING: 0.0625
Info: NONBONDED TABLE SIZE: 705 POINTS
TCL: Running for 1500000 steps
ETITLE: TS BOND ANGLE DIHED IMPRP ELECT VDW BOUNDARY MISC KINETIC TOTAL TEMP POTENTIAL TOTALAVG TEMPAVG PRESSURE GPRESSURE VOLUME PRESSAVG GPRESSAVG
ENERGY: 0 0.0000 0.5463 0.0000 0.0000 -10684.2300 1446.4044 0.0000 0.0000 1776.3194 -7460.9599 301.9370 -9237.2793 -7460.9599 301.9370 40.9910 140.2633 30641.7438 40.9910 140.2633
ENERGY: 300000 0.0000 1.2066 0.0000 0.0000 -10884.8345 1483.4314 0.0000 0.0000 1737.8217 -7662.3748 295.3932 -9400.1965 -7524.0462 303.5084 -110.6158 -27.1476 30144.9600 -279.1129 -190.0870
ENERGY: 600000 0.0000 3.5226 0.0000 0.0000 -10825.8388 1511.9341 0.0000 0.0000 1747.2611 -7563.1210 296.9977 -9310.3821 -7525.7848 302.5150 591.4417 631.4633 30182.5647 -1.6453 68.2273
ENERGY: 900000 0.0000 1.5692 0.0000 0.0000 -10670.9774 1470.1964 0.0000 0.0000 1735.4536 -7463.7582 294.9907 -9199.2118 -7507.9324 302.4032 197.2052 263.3481 30985.1140 -8.6447 55.0055
ENERGY: 1200000 0.0000 1.2907 0.0000 0.0000 -10771.0398 1490.9220 0.0000 0.0000 1760.6089 -7518.2182 299.2666 -9278.8272 -7523.2973 301.5946 569.3398 604.4948 30054.3791 103.3485 157.1003
ENERGY: 1500000 0.0000 1.6840 0.0000 0.0000 -10869.5115 1540.9690 0.0000 0.0000 1741.0382 -7585.8203 295.9400 -9326.8586 -7521.9416 301.4002 684.2960 763.4526 30196.6607 67.1317 123.7516
TCL: Running FEP window  18: Lambda1 0.1499999999999997 Lambda2 0.09999999999999969 [dLambda -0.05 ]
TCL: Setting parameter firsttimestep to 0
TCL: Setting parameter alchLambda to 0.1499999999999997
Info: NONBONDED TABLE R-SQUARED SPACING: 0.0625
Info: NONBONDED TABLE SIZE: 705 POINTS
TCL: Setting parameter alchLambda2 to 0.09999999999999969
Info: NONBONDED TABLE R-SQUARED SPACING: 0.0625
Info: NONBONDED TABLE SIZE: 705 POINTS
TCL: Running for 1500000 steps
ETITLE: TS BOND ANGLE DIHED IMPRP ELECT VDW BOUNDARY MISC KINETIC TOTAL TEMP POTENTIAL TOTALAVG TEMPAVG PRESSURE GPRESSURE VOLUME PRESSAVG GPRESSAVG
ENERGY: 0 0.0000 1.6840 0.0000 0.0000 -10869.5114 1540.8483 0.0000 0.0000 1740.1542 -7586.8250 295.7897 -9326.9791 -7586.8250 295.7897 674.0144 760.7017 30196.6607 674.0144 760.7017
ENERGY: 300000 0.0000 2.0201 0.0000 0.0000 -10776.4413 1502.0479 0.0000 0.0000 1786.9221 -7485.4513 303.7393 -9272.3734 -7565.6245 298.3134 484.8231 618.1924 30191.4879 557.5161 645.6853
ENERGY: 600000 0.0000 6.7536 0.0000 0.0000 -10702.9713 1394.1916 0.0000 0.0000 1796.1588 -7505.8674 305.3093 -9302.0262 -7557.7063 299.5995 -386.5942 -342.1432 30292.8759 182.2801 255.3495
ENERGY: 900000 0.0000 1.7159 0.0000 0.0000 -10797.8174 1400.3454 0.0000 0.0000 1766.8999 -7628.8561 300.3359 -9395.7560 -7560.8402 299.2153 -600.9729 -484.7929 30315.1846 131.8226 212.4273
ENERGY: 1200000 0.0000 1.2902 0.0000 0.0000 -10791.4329 1465.6887 0.0000 0.0000 1803.6701 -7520.7839 306.5861 -9324.4540 -7554.0857 300.1116 442.6828 505.4862 29789.2527 233.7253 305.1478
ENERGY: 1500000 0.0000 1.8990 0.0000 0.0000 -10852.7705 1481.8344 0.0000 0.0000 1791.8713 -7577.1658 304.5805 -9369.0371 -7558.3970 300.3518 271.5240 229.9277 30302.7149 227.1315 285.0505
TCL: Running FEP window  19: Lambda1 0.09999999999999969 Lambda2 0.049999999999999684 [dLambda -0.05 ]
TCL: Setting parameter firsttimestep to 0
TCL: Setting parameter alchLambda to 0.09999999999999969
Info: NONBONDED TABLE R-SQUARED SPACING: 0.0625
Info: NONBONDED TABLE SIZE: 705 POINTS
TCL: Setting parameter alchLambda2 to 0.049999999999999684
Info: NONBONDED TABLE R-SQUARED SPACING: 0.0625
Info: NONBONDED TABLE SIZE: 705 POINTS
TCL: Running for 1500000 steps
ETITLE: TS BOND ANGLE DIHED IMPRP ELECT VDW BOUNDARY MISC KINETIC TOTAL TEMP POTENTIAL TOTALAVG TEMPAVG PRESSURE GPRESSURE VOLUME PRESSAVG GPRESSAVG
ENERGY: 0 0.0000 1.8990 0.0000 0.0000 -10852.7695 1481.9135 0.0000 0.0000 1790.9765 -7577.9805 304.4284 -9368.9570 -7577.9805 304.4284 154.7842 227.4987 30302.7149 154.7842 227.4987
ENERGY: 300000 0.0000 3.0941 0.0000 0.0000 -10896.8243 1469.4360 0.0000 0.0000 1726.6997 -7697.5945 293.5027 -9424.2941 -7581.4333 300.5832 -380.6629 -311.2458 30669.5985 -15.6771 54.9882
ENERGY: 600000 0.0000 2.2413 0.0000 0.0000 -10791.8810 1429.4200 0.0000 0.0000 1719.3744 -7640.8454 292.2576 -9360.2197 -7584.7099 299.2732 -538.3486 -452.6488 30823.4445 196.0880 256.3746
ENERGY: 900000 0.0000 3.8908 0.0000 0.0000 -10758.8492 1458.8448 0.0000 0.0000 1745.0834 -7551.0301 296.6276 -9296.1135 -7583.4557 298.9631 107.5392 168.8570 30540.9538 71.0711 135.1156
ENERGY: 1200000 0.0000 1.8284 0.0000 0.0000 -10785.9486 1480.5354 0.0000 0.0000 1753.1628 -7550.4220 298.0009 -9303.5848 -7577.5132 298.9312 138.5378 217.9867 30678.1075 23.4611 91.7784
ENERGY: 1500000 0.0000 1.5782 0.0000 0.0000 -10640.7153 1357.5852 0.0000 0.0000 1796.6815 -7484.8704 305.3982 -9281.5519 -7569.6376 299.1419 -578.7771 -478.0963 30378.9146 -117.9493 -47.5091
TCL: Running FEP window  20: Lambda1 0.049999999999999684 Lambda2 0.0    [dLambda -0.049999999999999684]
TCL: Setting parameter firsttimestep to 0
TCL: Setting parameter alchLambda to 0.049999999999999684
Info: NONBONDED TABLE R-SQUARED SPACING: 0.0625
Info: NONBONDED TABLE SIZE: 705 POINTS
TCL: Setting parameter alchLambda2 to 0.0
Info: NONBONDED TABLE R-SQUARED SPACING: 0.0625
Info: NONBONDED TABLE SIZE: 705 POINTS
TCL: Running for 1500000 steps
ETITLE: TS BOND ANGLE DIHED IMPRP ELECT VDW BOUNDARY MISC KINETIC TOTAL TEMP POTENTIAL TOTALAVG TEMPAVG PRESSURE GPRESSURE VOLUME PRESSAVG GPRESSAVG
ENERGY: 0 0.0000 1.5782 0.0000 0.0000 -10640.7165 1356.4147 0.0000 0.0000 1795.7820 -7486.9417 305.2453 -9282.7236 -7486.9417 305.2453 -557.7405 -480.9290 30378.9146 -557.7405 -480.9290
ENERGY: 300000 0.0000 1.4894 0.0000 0.0000 -10611.1990 1372.3349 0.0000 0.0000 1767.9213 -7469.4534 300.5095 -9237.3747 -7471.6594 301.3640 -137.9976 -107.5954 29969.8295 -9.5784 73.9879
ENERGY: 600000 0.0000 3.2724 0.0000 0.0000 -10557.5474 1343.9203 0.0000 0.0000 1755.0355 -7455.3193 298.3192 -9210.3548 -7485.7058 299.9649 -486.3879 -321.4844 30088.7059 -194.2104 -118.3465
ENERGY: 900000 0.0000 1.5548 0.0000 0.0000 -10739.9784 1388.0913 0.0000 0.0000 1747.3091 -7603.0232 297.0059 -9350.3323 -7501.1992 300.5905 -892.8768 -801.7049 30776.2167 -141.0198 -61.0143
ENERGY: 1200000 0.0000 1.9662 0.0000 0.0000 -10706.5968 1404.5684 0.0000 0.0000 1720.6874 -7579.3747 292.4808 -9300.0622 -7506.6422 300.0295 -550.4253 -487.2388 30884.8994 -155.0816 -79.6346
ENERGY: 1500000 0.0000 2.5983 0.0000 0.0000 -10731.1601 1459.5338 0.0000 0.0000 1784.0588 -7484.9692 303.2526 -9269.0280 -7510.7197 300.8950 113.3788 207.1259 30443.8955 -88.0072 -12.8116
TCL: Exiting due to exit command.
