Info: SIMULATION PARAMETERS:
Info: TIMESTEP               2
Info: NUMBER OF STEPS        0
Info: STEPS PER CYCLE        10
Info: PERIODIC CELL BASIS 1  36.005 0 0
Info: PERIODIC CELL BASIS 2  0 33.542 0
Info: PERIODIC CELL BASIS 3  0 0 36.199
Info: PERIODIC CELL CENTER   0 0 0
Info: WRAPPING WATERS AROUND PERIODIC BOUNDARIES ON OUTPUT.
Info: WRAPPING ALL CLUSTERS AROUND PERIODIC BOUNDARIES ON OUTPUT.
Info: FIRST LDB TIMESTEP     50
Info: LAST LDB TIMESTEP     -1
Info: HOM BACKGROUND SCALING 1
Info: PME BACKGROUND SCALING 1
Info: MIN ATOMS PER PATCH    40
Info: EMPTY PATCH LOAD       40 ATOMS
Info: INITIAL TEMPERATURE    300
Info: CENTER OF MASS MOVING INITIALLY? NO
Info: DIELECTRIC             1
Info: EXCLUDE                SCALED ONE-FOUR
Info: 1-4 ELECTROSTATICS SCALED BY 0.833333
Info: MODIFIED 1-4 VDW PARAMETERS WILL BE USED
Info: DCD FILENAME           mobley_5917842_equil.dcd
Info: DCD FREQUENCY          100000
Info: DCD FIRST STEP         100000
Info: DCD FILE WILL CONTAIN UNIT CELL DATA
Info: XST FILENAME           mobley_5917842_equil.xst
Info: XST FREQUENCY          100000
Info: NO VELOCITY DCD OUTPUT
Info: NO FORCE DCD OUTPUT
Info: OUTPUT FILENAME        mobley_5917842_equil
Info: BINARY OUTPUT FILES WILL BE USED
Info: RESTART FILENAME       mobley_5917842_equil.restart
Info: RESTART FREQUENCY      100000
Info: BINARY RESTART FILES WILL BE USED
Info: CUTOFF                 9
Info: PAIRLIST DISTANCE      11
Info: PAIRLIST SHRINK RATE   0.01
Info: PAIRLIST GROW RATE     0.01
Info: PAIRLIST TRIGGER       0.3
Info: PAIRLISTS PER CYCLE    2
Info: PAIRLISTS ENABLED
Info: MARGIN                 8
Info: HYDROGEN GROUP CUTOFF  2.5
Info: PATCH DIMENSION        21.5
Info: ENERGY OUTPUT STEPS    100000
Info: ENERGY EVALUATION STEPS    100000
Info: OUTPUT ENERGY PRECISION 4
Info: CROSSTERM ENERGY INCLUDED IN DIHEDRAL
Info: TIMING OUTPUT STEPS    1000000
Info: PRESSURE OUTPUT STEPS  100000
Info: LANGEVIN DYNAMICS ACTIVE
Info: LANGEVIN TEMPERATURE   30
Info: LANGEVIN USING BBK INTEGRATOR
Info: LANGEVIN DAMPING COEFFICIENT IS 1 INVERSE PS
Info: LANGEVIN DYNAMICS APPLIED TO HYDROGENS
Info: LANGEVIN PISTON PRESSURE CONTROL ACTIVE
Info:        TARGET PRESSURE IS 1.01325 BAR
Info:     OSCILLATION PERIOD IS 50 FS
Info:             DECAY TIME IS 25 FS
Info:     PISTON TEMPERATURE IS 300 K
Info:       PRESSURE CONTROL IS GROUP-BASED
Info:    INITIAL STRAIN RATE IS 0 0 0
Info:       CELL FLUCTUATION IS ISOTROPIC
Info: PARTICLE MESH EWALD (PME) ACTIVE
Info: PME TOLERANCE               1e-06
Info: PME EWALD COEFFICIENT       0.348832
Info: PME INTERPOLATION ORDER     4
Info: PME GRID DIMENSIONS         40 36 40
Info: PME MAXIMUM GRID SPACING    1
Info: FULL ELECTROSTATIC EVALUATION FREQUENCY      2
Info: USING VERLET I (r-RESPA) MTS SCHEME.
Info: C1 SPLITTING OF LONG RANGE ELECTROSTATICS
Info: PLACING ATOMS IN PATCHES BY HYDROGEN GROUPS
Info: RIGID BONDS TO HYDROGEN : ALL
Info:         ERROR TOLERANCE : 1e-08
Info:          MAX ITERATIONS : 100
Info: RIGID WATER USING SETTLE ALGORITHM
Info: RANDOM NUMBER SEED     1743233837
Info: USE HYDROGEN BONDS?    NO
Info: Using AMBER format force field!
Info: AMBER PARM FILE        mobley_5917842.prmtop
Info: COORDINATE PDB         mobley_5917842.pdb
Info: Exclusions will be read from PARM file!
Info: SCNB (VDW SCALING)     2
Info: USING ARITHMETIC MEAN TO COMBINE L-J SIGMA PARAMETERS
Info: BINARY COORDINATES     mobley_5917842_min.coor
Info: SUMMARY OF PARAMETERS:
Info: 11 BONDS
Info: 11 ANGLES
Info:   11 HARMONIC
Info:   0 COSINE-BASED
Info: 5 DIHEDRAL
Info: 0 IMPROPER
Info: 0 CROSSTERM
Info: 0 VDW
Info: 45 VDW_PAIRS
Info: 0 NBTHOLE_PAIRS
Info: STRUCTURE SUMMARY:
Info: 2936 ATOMS
Info: 2936 BONDS
Info: 32 ANGLES
Info: 43 DIHEDRALS
Info: 0 IMPROPERS
Info: 0 CROSSTERMS
Info: 3002 EXCLUSIONS
Info: 2926 RIGID BONDS
Info: 5882 DEGREES OF FREEDOM
Info: 982 HYDROGEN GROUPS
Info: 4 ATOMS IN LARGEST HYDROGEN GROUP
Info: 982 MIGRATION GROUPS
Info: 4 ATOMS IN LARGEST MIGRATION GROUP
Info: TOTAL MASS = 17649.7 amu
Info: TOTAL CHARGE = -1.49012e-08 e
Info: MASS DENSITY = 0.670422 g/cm^3
Info: ATOM DENSITY = 0.0671595 atoms/A^3
Info: ADDED 0 IMPLICIT EXCLUSIONS
Info: NONBONDED TABLE R-SQUARED SPACING: 0.0625
Info: NONBONDED TABLE SIZE: 705 POINTS
Info: REMOVING COM VELOCITY -0.212151 0.179508 -0.0427874
TCL: Running for 100000 steps
ETITLE: TS BOND ANGLE DIHED IMPRP ELECT VDW BOUNDARY MISC KINETIC TOTAL TEMP POTENTIAL TOTAL3 TEMPAVG PRESSURE GPRESSURE VOLUME PRESSAVG GPRESSAVG
ENERGY: 0 0.2055 0.3861 2.5733 0.0000 -13511.5724 2391.6170 0.0000 0.0000 1765.0057 -9351.7849 302.0031 -11116.7906 -9351.4049 302.0031 672.1763 710.6134 43716.7978 672.1763 710.6134
ENERGY: 100000 0.3905 1.0341 2.6864 0.0000 -14152.4501 2436.4023 0.0000 0.0000 173.8009 -11538.1358 29.7384 -11711.9367 -11537.6023 31.0026 -61.1246 2.9674 27987.6864 3.5928 3.6570
TCL: Running 100000 steps at 60 kelvin.
TCL: Setting parameter langevinTemp to 60
TCL: Running for 100000 steps
ETITLE: TS BOND ANGLE DIHED IMPRP ELECT VDW BOUNDARY MISC KINETIC TOTAL TEMP POTENTIAL TOTAL3 TEMPAVG PRESSURE GPRESSURE VOLUME PRESSAVG GPRESSAVG
ENERGY: 100000 0.3905 1.0341 2.6864 0.0000 -14152.4501 2436.4023 0.0000 0.0000 173.7151 -11538.2216 29.7237 -11711.9367 -11537.8817 29.7237 -51.9425 3.3534 27987.6864 -51.9425 3.3534
ENERGY: 200000 1.4938 1.9007 1.3259 0.0000 -13905.7935 2302.0826 0.0000 0.0000 353.1008 -11245.8896 60.4177 -11598.9904 -11245.4876 59.9116 -926.9669 -876.4501 28237.1992 2.7719 2.8544
TCL: Running 100000 steps at 90 kelvin.
TCL: Setting parameter langevinTemp to 90
TCL: Running for 100000 steps
ETITLE: TS BOND ANGLE DIHED IMPRP ELECT VDW BOUNDARY MISC KINETIC TOTAL TEMP POTENTIAL TOTAL3 TEMPAVG PRESSURE GPRESSURE VOLUME PRESSAVG GPRESSAVG
ENERGY: 200000 1.4938 1.9007 1.3259 0.0000 -13905.7935 2302.0826 0.0000 0.0000 352.9311 -11246.0593 60.3886 -11598.9904 -11245.2235 60.3886 -934.1788 -876.8076 28237.1992 -934.1788 -876.8076
ENERGY: 300000 1.0424 1.1746 4.0325 0.0000 -13649.3498 2131.2146 0.0000 0.0000 529.1373 -10982.7484 90.5386 -11511.8857 -10981.0281 90.0483 -2010.3108 -1940.0258 28741.1514 3.7526 3.6566
TCL: Running 100000 steps at 120 kelvin.
TCL: Setting parameter langevinTemp to 120
TCL: Running for 100000 steps
ETITLE: TS BOND ANGLE DIHED IMPRP ELECT VDW BOUNDARY MISC KINETIC TOTAL TEMP POTENTIAL TOTAL3 TEMPAVG PRESSURE GPRESSURE VOLUME PRESSAVG GPRESSAVG
ENERGY: 300000 1.0424 1.1746 4.0325 0.0000 -13649.3498 2131.2146 0.0000 0.0000 528.8780 -10983.0077 90.4942 -11511.8857 -10981.6425 90.4942 -2019.7038 -1940.3629 28741.1514 -2019.7038 -1940.3629
ENERGY: 400000 1.6763 2.1580 4.8617 0.0000 -13498.8357 2135.5707 0.0000 0.0000 684.4149 -10670.1540 117.1075 -11354.5690 -10668.0262 120.0519 -1672.8287 -1599.9179 28965.7868 4.8640 4.9607
TCL: Running 100000 steps at 150 kelvin.
TCL: Setting parameter langevinTemp to 150
TCL: Running for 100000 steps
ETITLE: TS BOND ANGLE DIHED IMPRP ELECT VDW BOUNDARY MISC KINETIC TOTAL TEMP POTENTIAL TOTAL3 TEMPAVG PRESSURE GPRESSURE VOLUME PRESSAVG GPRESSAVG
ENERGY: 400000 1.6763 2.1580 4.8617 0.0000 -13498.8357 2135.5707 0.0000 0.0000 684.0564 -10670.5126 117.0462 -11354.5690 -10668.9921 117.0462 -1665.3549 -1599.7971 28965.7868 -1665.3549 -1599.7971
ENERGY: 500000 0.6851 4.5846 5.9993 0.0000 -13321.8165 2118.6509 0.0000 0.0000 877.3213 -10314.5753 150.1150 -11191.8966 -10312.5405 150.1397 -950.1216 -865.4319 28829.9716 3.4424 3.4951
TCL: Running 100000 steps at 180 kelvin.
TCL: Setting parameter langevinTemp to 180
TCL: Running for 100000 steps
ETITLE: TS BOND ANGLE DIHED IMPRP ELECT VDW BOUNDARY MISC KINETIC TOTAL TEMP POTENTIAL TOTAL3 TEMPAVG PRESSURE GPRESSURE VOLUME PRESSAVG GPRESSAVG
ENERGY: 500000 0.6851 4.5846 5.9993 0.0000 -13321.8165 2118.6509 0.0000 0.0000 876.8873 -10315.0092 150.0407 -11191.8966 -10313.2619 150.0407 -913.6369 -865.7145 28829.9716 -913.6369 -865.7145
ENERGY: 600000 1.1224 4.0427 3.6238 0.0000 -13152.2663 2205.8178 0.0000 0.0000 1034.4391 -9903.2206 176.9988 -10937.6597 -9901.5622 180.1615 877.9006 975.8237 28459.1817 3.1580 3.0658
TCL: Running 100000 steps at 210 kelvin.
TCL: Setting parameter langevinTemp to 210
TCL: Running for 100000 steps
ETITLE: TS BOND ANGLE DIHED IMPRP ELECT VDW BOUNDARY MISC KINETIC TOTAL TEMP POTENTIAL TOTAL3 TEMPAVG PRESSURE GPRESSURE VOLUME PRESSAVG GPRESSAVG
ENERGY: 600000 1.1224 4.0427 3.6238 0.0000 -13152.2663 2205.8178 0.0000 0.0000 1033.9364 -9903.7233 176.9128 -10937.6597 -9901.8423 176.9128 927.1269 975.8345 28459.1817 927.1269 975.8345
ENERGY: 700000 0.4472 4.3294 2.6584 0.0000 -12490.3996 2035.3503 0.0000 0.0000 1236.3257 -9211.2885 211.5428 -10447.6142 -9208.2482 209.8347 1354.0137 1438.3032 28530.1221 4.0194 3.9788
TCL: Running 100000 steps at 240 kelvin.
TCL: Setting parameter langevinTemp to 240
TCL: Running for 100000 steps
ETITLE: TS BOND ANGLE DIHED IMPRP ELECT VDW BOUNDARY MISC KINETIC TOTAL TEMP POTENTIAL TOTAL3 TEMPAVG PRESSURE GPRESSURE VOLUME PRESSAVG GPRESSAVG
ENERGY: 700000 0.4472 4.3294 2.6584 0.0000 -12490.3996 2035.3503 0.0000 0.0000 1235.7387 -9211.8755 211.4424 -10447.6142 -9209.5863 211.4424 1372.7954 1437.9450 28530.1221 1372.7954 1437.9450
ENERGY: 800000 2.8803 6.4981 3.9569 0.0000 -11810.1707 1779.9334 0.0000 0.0000 1431.0491 -8585.8529 244.8612 -10016.9020 -8585.3391 239.9943 289.1590 407.3623 29287.5772 4.0134 3.8483
TCL: Running 100000 steps at 270 kelvin.
TCL: Setting parameter langevinTemp to 270
TCL: Running for 100000 steps
ETITLE: TS BOND ANGLE DIHED IMPRP ELECT VDW BOUNDARY MISC KINETIC TOTAL TEMP POTENTIAL TOTAL3 TEMPAVG PRESSURE GPRESSURE VOLUME PRESSAVG GPRESSAVG
ENERGY: 800000 2.8803 6.4981 3.9569 0.0000 -11810.1707 1779.9334 0.0000 0.0000 1430.3632 -8586.5389 244.7438 -10016.9020 -8584.6681 244.7438 313.7637 403.9181 29287.5772 313.7637 403.9181
ENERGY: 900000 2.7714 4.2568 6.6645 0.0000 -11205.1939 1542.4638 0.0000 0.0000 1568.1188 -8080.9187 268.3146 -9649.0374 -8077.3611 269.8374 -410.1427 -325.3864 29628.0010 3.1660 2.9954
TCL: Running 1000000 steps at 300 kelvin.
TCL: Setting parameter langevinTemp to 300
TCL: Running for 1000000 steps
ETITLE: TS BOND ANGLE DIHED IMPRP ELECT VDW BOUNDARY MISC KINETIC TOTAL TEMP POTENTIAL TOTAL3 TEMPAVG PRESSURE GPRESSURE VOLUME PRESSAVG GPRESSAVG
ENERGY: 900000 2.7714 4.2568 6.6645 0.0000 -11205.1939 1542.4638 0.0000 0.0000 1567.3402 -8081.6972 268.1814 -9649.0374 -8079.1357 268.1814 -407.9598 -324.7652 29628.0010 -407.9598 -324.7652
ENERGY: 1100000 4.7544 6.7477 11.1612 0.0000 -10771.9416 1476.0174 0.0000 0.0000 1746.4107 -7526.8502 298.8214 -9273.2608 -7524.6887 300.0292 92.7662 132.3605 30256.8674 2.9090 2.9336
ENERGY: 1300000 5.9361 7.5291 3.4561 0.0000 -10723.7297 1489.3740 0.0000 0.0000 1786.2122 -7431.2221 305.6317 -9217.4343 -7428.7139 300.6057 445.6113 591.5013 29945.6015 3.1814 3.2134
ENERGY: 1500000 5.0023 3.3622 4.6200 0.0000 -10720.8070 1443.8051 0.0000 0.0000 1743.4249 -7520.5926 298.3105 -9264.0174 -7516.6506 300.5273 -74.0286 29.0324 29708.1647 3.4666 3.2831
ENERGY: 1700000 2.0934 11.7428 3.9855 0.0000 -10615.3123 1426.2632 0.0000 0.0000 1836.1207 -7335.1067 314.1714 -9171.2274 -7330.8063 300.0438 -1.1273 51.8291 30218.8880 3.5930 3.7193
ENERGY: 1900000 3.6284 4.0448 2.7164 0.0000 -10719.2292 1485.7458 0.0000 0.0000 1817.7127 -7405.3810 311.0216 -9223.0937 -7398.5619 300.1039 434.5126 560.6253 30029.2767 1.9536 2.2407
TCL: Exiting due to exit command.
