Info: SIMULATION PARAMETERS:
Info: TIMESTEP               2
Info: NUMBER OF STEPS        0
Info: STEPS PER CYCLE        10
Info: PERIODIC CELL BASIS 1  36.281 0 0
Info: PERIODIC CELL BASIS 2  0 35.411 0
Info: PERIODIC CELL BASIS 3  0 0 34.954
Info: PERIODIC CELL CENTER   0 0 0
Info: WRAPPING WATERS AROUND PERIODIC BOUNDARIES ON OUTPUT.
Info: WRAPPING ALL CLUSTERS AROUND PERIODIC BOUNDARIES ON OUTPUT.
Info: FIRST LDB TIMESTEP     50
Info: LAST LDB TIMESTEP     -1
Info: HOM BACKGROUND SCALING 1
Info: PME BACKGROUND SCALING 1
Info: MIN ATOMS PER PATCH    40
Info: EMPTY PATCH LOAD       40 ATOMS
Info: INITIAL TEMPERATURE    300
Info: CENTER OF MASS MOVING INITIALLY? NO
Info: DIELECTRIC             1
Info: EXCLUDE                SCALED ONE-FOUR
Info: 1-4 ELECTROSTATICS SCALED BY 0.833333
Info: MODIFIED 1-4 VDW PARAMETERS WILL BE USED
Info: DCD FILENAME           mobley_7017274_equil.dcd
Info: DCD FREQUENCY          100000
Info: DCD FIRST STEP         100000
Info: DCD FILE WILL CONTAIN UNIT CELL DATA
Info: XST FILENAME           mobley_7017274_equil.xst
Info: XST FREQUENCY          100000
Info: NO VELOCITY DCD OUTPUT
Info: NO FORCE DCD OUTPUT
Info: OUTPUT FILENAME        mobley_7017274_equil
Info: BINARY OUTPUT FILES WILL BE USED
Info: RESTART FILENAME       mobley_7017274_equil.restart
Info: RESTART FREQUENCY      100000
Info: BINARY RESTART FILES WILL BE USED
Info: CUTOFF                 9
Info: PAIRLIST DISTANCE      11
Info: PAIRLIST SHRINK RATE   0.01
Info: PAIRLIST GROW RATE     0.01
Info: PAIRLIST TRIGGER       0.3
Info: PAIRLISTS PER CYCLE    2
Info: PAIRLISTS ENABLED
Info: MARGIN                 8
Info: HYDROGEN GROUP CUTOFF  2.5
Info: PATCH DIMENSION        21.5
Info: ENERGY OUTPUT STEPS    100000
Info: ENERGY EVALUATION STEPS    100000
Info: OUTPUT ENERGY PRECISION 4
Info: CROSSTERM ENERGY INCLUDED IN DIHEDRAL
Info: TIMING OUTPUT STEPS    1000000
Info: PRESSURE OUTPUT STEPS  100000
Info: LANGEVIN DYNAMICS ACTIVE
Info: LANGEVIN TEMPERATURE   30
Info: LANGEVIN USING BBK INTEGRATOR
Info: LANGEVIN DAMPING COEFFICIENT IS 1 INVERSE PS
Info: LANGEVIN DYNAMICS APPLIED TO HYDROGENS
Info: LANGEVIN PISTON PRESSURE CONTROL ACTIVE
Info:        TARGET PRESSURE IS 1.01325 BAR
Info:     OSCILLATION PERIOD IS 50 FS
Info:             DECAY TIME IS 25 FS
Info:     PISTON TEMPERATURE IS 300 K
Info:       PRESSURE CONTROL IS GROUP-BASED
Info:    INITIAL STRAIN RATE IS 0 0 0
Info:       CELL FLUCTUATION IS ISOTROPIC
Info: PARTICLE MESH EWALD (PME) ACTIVE
Info: PME TOLERANCE               1e-06
Info: PME EWALD COEFFICIENT       0.348832
Info: PME INTERPOLATION ORDER     4
Info: PME GRID DIMENSIONS         40 36 36
Info: PME MAXIMUM GRID SPACING    1
Info: FULL ELECTROSTATIC EVALUATION FREQUENCY      2
Info: USING VERLET I (r-RESPA) MTS SCHEME.
Info: C1 SPLITTING OF LONG RANGE ELECTROSTATICS
Info: PLACING ATOMS IN PATCHES BY HYDROGEN GROUPS
Info: RIGID BONDS TO HYDROGEN : ALL
Info:         ERROR TOLERANCE : 1e-08
Info:          MAX ITERATIONS : 100
Info: RIGID WATER USING SETTLE ALGORITHM
Info: RANDOM NUMBER SEED     1743222596
Info: USE HYDROGEN BONDS?    NO
Info: Using AMBER format force field!
Info: AMBER PARM FILE        mobley_7017274.prmtop
Info: COORDINATE PDB         mobley_7017274.pdb
Info: Exclusions will be read from PARM file!
Info: SCNB (VDW SCALING)     2
Info: USING ARITHMETIC MEAN TO COMBINE L-J SIGMA PARAMETERS
Info: BINARY COORDINATES     mobley_7017274_min.coor
Info: SUMMARY OF PARAMETERS:
Info: 4 BONDS
Info: 2 ANGLES
Info:   2 HARMONIC
Info:   0 COSINE-BASED
Info: 2 DIHEDRAL
Info: 0 IMPROPER
Info: 0 CROSSTERM
Info: 0 VDW
Info: 10 VDW_PAIRS
Info: 0 NBTHOLE_PAIRS
Info: STRUCTURE SUMMARY:
Info: 2928 ATOMS
Info: 2930 BONDS
Info: 42 ANGLES
Info: 78 DIHEDRALS
Info: 0 IMPROPERS
Info: 0 CROSSTERMS
Info: 3027 EXCLUSIONS
Info: 2914 RIGID BONDS
Info: 5870 DEGREES OF FREEDOM
Info: 982 HYDROGEN GROUPS
Info: 3 ATOMS IN LARGEST HYDROGEN GROUP
Info: 982 MIGRATION GROUPS
Info: 3 ATOMS IN LARGEST MIGRATION GROUP
Info: TOTAL MASS = 17617.7 amu
Info: TOTAL CHARGE = -0.000199988 e
Info: MASS DENSITY = 0.65147 g/cm^3
Info: ATOM DENSITY = 0.0652014 atoms/A^3
Info: ADDED 0 IMPLICIT EXCLUSIONS
Info: NONBONDED TABLE R-SQUARED SPACING: 0.0625
Info: NONBONDED TABLE SIZE: 705 POINTS
Info: REMOVING COM VELOCITY -0.236646 -0.0208149 -0.170832
TCL: Running for 100000 steps
ETITLE: TS BOND ANGLE DIHED IMPRP ELECT VDW BOUNDARY MISC KINETIC TOTAL TEMP POTENTIAL TOTAL3 TEMPAVG PRESSURE GPRESSURE VOLUME PRESSAVG GPRESSAVG
ENERGY: 0 1.0196 1.0612 0.2602 0.0000 -13494.7677 2400.7713 0.0000 0.0000 1756.8675 -9334.7879 301.2252 -11091.6554 -9334.4474 301.2252 558.6658 595.6091 44907.0288 558.6658 595.6091
ENERGY: 100000 1.0397 1.6194 1.4157 0.0000 -13974.1742 2376.8026 0.0000 0.0000 178.2803 -11415.0163 30.5672 -11593.2967 -11414.4686 30.9818 -558.1015 -516.6690 29043.4645 5.0750 5.0496
TCL: Running 100000 steps at 60 kelvin.
TCL: Setting parameter langevinTemp to 60
TCL: Running for 100000 steps
ETITLE: TS BOND ANGLE DIHED IMPRP ELECT VDW BOUNDARY MISC KINETIC TOTAL TEMP POTENTIAL TOTAL3 TEMPAVG PRESSURE GPRESSURE VOLUME PRESSAVG GPRESSAVG
ENERGY: 100000 1.0397 1.6194 1.4157 0.0000 -13974.1742 2376.8026 0.0000 0.0000 178.1914 -11415.1053 30.5520 -11593.2967 -11414.7364 30.5520 -567.4462 -516.5052 29043.4645 -567.4462 -516.5052
ENERGY: 200000 2.5160 2.9581 1.2640 0.0000 -13799.6658 2306.3120 0.0000 0.0000 339.9785 -11146.6371 58.2913 -11486.6156 -11145.6940 59.8950 -746.0226 -679.7603 28991.3556 4.4077 4.4282
TCL: Running 100000 steps at 90 kelvin.
TCL: Setting parameter langevinTemp to 90
TCL: Running for 100000 steps
ETITLE: TS BOND ANGLE DIHED IMPRP ELECT VDW BOUNDARY MISC KINETIC TOTAL TEMP POTENTIAL TOTAL3 TEMPAVG PRESSURE GPRESSURE VOLUME PRESSAVG GPRESSAVG
ENERGY: 200000 2.5160 2.9581 1.2640 0.0000 -13799.6658 2306.3120 0.0000 0.0000 339.8079 -11146.8077 58.2620 -11486.6156 -11146.0863 58.2620 -726.9492 -679.6661 28991.3556 -726.9492 -679.6661
ENERGY: 300000 2.9884 2.8843 1.4277 0.0000 -13746.6858 2328.8805 0.0000 0.0000 513.8684 -10896.6366 88.1057 -11410.5050 -10895.5815 90.0391 -212.6144 -155.5148 28737.2816 2.4996 2.4694
TCL: Running 100000 steps at 120 kelvin.
TCL: Setting parameter langevinTemp to 120
TCL: Running for 100000 steps
ETITLE: TS BOND ANGLE DIHED IMPRP ELECT VDW BOUNDARY MISC KINETIC TOTAL TEMP POTENTIAL TOTAL3 TEMPAVG PRESSURE GPRESSURE VOLUME PRESSAVG GPRESSAVG
ENERGY: 300000 2.9884 2.8843 1.4277 0.0000 -13746.6858 2328.8805 0.0000 0.0000 513.6127 -10896.8923 88.0619 -11410.5050 -10895.6529 88.0619 -209.1230 -155.8355 28737.2816 -209.1230 -155.8355
ENERGY: 400000 3.2277 3.4214 1.8296 0.0000 -13648.1807 2335.7039 0.0000 0.0000 701.8252 -10602.1730 120.3320 -11303.9982 -10600.6869 119.8445 48.8093 108.9203 28845.8553 3.9299 3.8567
TCL: Running 100000 steps at 150 kelvin.
TCL: Setting parameter langevinTemp to 150
TCL: Running for 100000 steps
ETITLE: TS BOND ANGLE DIHED IMPRP ELECT VDW BOUNDARY MISC KINETIC TOTAL TEMP POTENTIAL TOTAL3 TEMPAVG PRESSURE GPRESSURE VOLUME PRESSAVG GPRESSAVG
ENERGY: 400000 3.2277 3.4214 1.8296 0.0000 -13648.1807 2335.7039 0.0000 0.0000 701.4833 -10602.5148 120.2734 -11303.9982 -10601.1694 120.2734 55.0020 108.6990 28845.8553 55.0020 108.6990
ENERGY: 500000 4.0242 3.6205 7.4238 0.0000 -13335.0590 2205.4802 0.0000 0.0000 872.1717 -10242.3387 149.5389 -11114.5104 -10240.7862 150.0268 -401.3861 -362.9403 28779.6240 4.3692 4.3846
TCL: Running 100000 steps at 180 kelvin.
TCL: Setting parameter langevinTemp to 180
TCL: Running for 100000 steps
ETITLE: TS BOND ANGLE DIHED IMPRP ELECT VDW BOUNDARY MISC KINETIC TOTAL TEMP POTENTIAL TOTAL3 TEMPAVG PRESSURE GPRESSURE VOLUME PRESSAVG GPRESSAVG
ENERGY: 500000 4.0242 3.6205 7.4238 0.0000 -13335.0590 2205.4802 0.0000 0.0000 871.7602 -10242.7502 149.4684 -11114.5104 -10240.8125 149.4684 -431.1327 -363.7043 28779.6240 -431.1327 -363.7043
ENERGY: 600000 3.8778 3.8118 2.7608 0.0000 -13011.5512 2165.3398 0.0000 0.0000 1042.4144 -9793.3465 178.7280 -10835.7609 -9790.5346 180.1562 384.3618 514.4008 28768.8148 4.9662 5.0048
TCL: Running 100000 steps at 210 kelvin.
TCL: Setting parameter langevinTemp to 210
TCL: Running for 100000 steps
ETITLE: TS BOND ANGLE DIHED IMPRP ELECT VDW BOUNDARY MISC KINETIC TOTAL TEMP POTENTIAL TOTAL3 TEMPAVG PRESSURE GPRESSURE VOLUME PRESSAVG GPRESSAVG
ENERGY: 600000 3.8778 3.8118 2.7608 0.0000 -13011.5512 2165.3398 0.0000 0.0000 1041.8801 -9793.8808 178.6364 -10835.7609 -9791.4146 178.6364 449.9954 513.9977 28768.8148 449.9954 513.9977
ENERGY: 700000 4.0614 2.9600 5.1909 0.0000 -12272.0458 1904.4303 0.0000 0.0000 1208.0560 -9147.3473 207.1283 -10355.4033 -9142.7675 209.5045 378.3981 448.1442 28562.7864 3.9509 3.7959
TCL: Running 100000 steps at 240 kelvin.
TCL: Setting parameter langevinTemp to 240
TCL: Running for 100000 steps
ETITLE: TS BOND ANGLE DIHED IMPRP ELECT VDW BOUNDARY MISC KINETIC TOTAL TEMP POTENTIAL TOTAL3 TEMPAVG PRESSURE GPRESSURE VOLUME PRESSAVG GPRESSAVG
ENERGY: 700000 4.0614 2.9600 5.1909 0.0000 -12272.0458 1904.4303 0.0000 0.0000 1207.4043 -9147.9990 207.0165 -10355.4033 -9145.9657 207.0165 377.1388 447.9662 28562.7864 377.1388 447.9662
ENERGY: 800000 6.6817 6.9914 3.4788 0.0000 -11817.2735 1816.2101 0.0000 0.0000 1418.9555 -8564.9560 243.2882 -9983.9115 -8562.4108 239.3039 665.2988 737.6946 28808.0557 4.0993 4.0082
TCL: Running 100000 steps at 270 kelvin.
TCL: Setting parameter langevinTemp to 270
TCL: Running for 100000 steps
ETITLE: TS BOND ANGLE DIHED IMPRP ELECT VDW BOUNDARY MISC KINETIC TOTAL TEMP POTENTIAL TOTAL3 TEMPAVG PRESSURE GPRESSURE VOLUME PRESSAVG GPRESSAVG
ENERGY: 800000 6.6817 6.9914 3.4788 0.0000 -11817.2735 1816.2101 0.0000 0.0000 1418.2740 -8565.6374 243.1714 -9983.9115 -8563.2403 243.1714 663.8505 736.1983 28808.0557 663.8505 736.1983
ENERGY: 900000 6.5016 4.7787 6.6222 0.0000 -11036.9548 1496.0251 0.0000 0.0000 1587.7172 -7935.3099 272.2234 -9523.0271 -7934.4768 269.8347 -741.7377 -637.5580 29760.3924 3.6610 3.7339
TCL: Running 1000000 steps at 300 kelvin.
TCL: Setting parameter langevinTemp to 300
TCL: Running for 1000000 steps
ETITLE: TS BOND ANGLE DIHED IMPRP ELECT VDW BOUNDARY MISC KINETIC TOTAL TEMP POTENTIAL TOTAL3 TEMPAVG PRESSURE GPRESSURE VOLUME PRESSAVG GPRESSAVG
ENERGY: 900000 6.5016 4.7787 6.6222 0.0000 -11036.9548 1496.0251 0.0000 0.0000 1586.9382 -7936.0889 272.0898 -9523.0271 -7933.4370 272.0898 -725.8304 -639.3577 29760.3924 -725.8304 -639.3577
ENERGY: 1100000 3.7083 8.5340 7.1819 0.0000 -10495.8455 1387.4913 0.0000 0.0000 1752.9643 -7335.9657 300.5560 -9088.9300 -7334.4849 300.1992 -91.5602 -57.5858 29859.8400 3.9251 3.6818
ENERGY: 1300000 3.1696 6.8334 10.1358 0.0000 -10423.8576 1273.0086 0.0000 0.0000 1751.1535 -7379.5568 300.2455 -9130.7102 -7375.7469 300.0997 -1315.9194 -1217.5764 30447.6154 4.0530 4.2308
ENERGY: 1500000 2.8296 7.5326 4.2560 0.0000 -10389.4332 1297.6248 0.0000 0.0000 1792.3982 -7284.7920 307.3171 -9077.1901 -7280.3656 300.7110 -898.6784 -746.6783 30405.6080 2.9134 2.9876
ENERGY: 1700000 5.1054 8.5313 10.1134 0.0000 -10648.7988 1484.5484 0.0000 0.0000 1736.0287 -7404.4716 297.6523 -9140.5003 -7399.4515 299.7464 660.7622 815.0144 29711.6555 2.2543 2.2803
ENERGY: 1900000 5.8009 10.8028 4.1114 0.0000 -10588.7933 1444.4221 0.0000 0.0000 1829.2810 -7294.3751 313.6409 -9123.6561 -7291.3958 301.0822 167.8168 222.7492 30431.7776 1.1669 1.3565
TCL: Exiting due to exit command.
