Info: SIMULATION PARAMETERS:
Info: TIMESTEP               2
Info: NUMBER OF STEPS        0
Info: STEPS PER CYCLE        10
Info: PERIODIC CELL BASIS 1  35.01 0 0
Info: PERIODIC CELL BASIS 2  0 37.835 0
Info: PERIODIC CELL BASIS 3  0 0 33.27
Info: PERIODIC CELL CENTER   0 0 0
Info: WRAPPING WATERS AROUND PERIODIC BOUNDARIES ON OUTPUT.
Info: WRAPPING ALL CLUSTERS AROUND PERIODIC BOUNDARIES ON OUTPUT.
Info: FIRST LDB TIMESTEP     50
Info: LAST LDB TIMESTEP     -1
Info: HOM BACKGROUND SCALING 1
Info: PME BACKGROUND SCALING 1
Info: MIN ATOMS PER PATCH    40
Info: EMPTY PATCH LOAD       40 ATOMS
Info: INITIAL TEMPERATURE    300
Info: CENTER OF MASS MOVING INITIALLY? NO
Info: DIELECTRIC             1
Info: EXCLUDE                SCALED ONE-FOUR
Info: 1-4 ELECTROSTATICS SCALED BY 0.833333
Info: MODIFIED 1-4 VDW PARAMETERS WILL BE USED
Info: DCD FILENAME           mobley_6620221_equil.dcd
Info: DCD FREQUENCY          100000
Info: DCD FIRST STEP         100000
Info: DCD FILE WILL CONTAIN UNIT CELL DATA
Info: XST FILENAME           mobley_6620221_equil.xst
Info: XST FREQUENCY          100000
Info: NO VELOCITY DCD OUTPUT
Info: NO FORCE DCD OUTPUT
Info: OUTPUT FILENAME        mobley_6620221_equil
Info: BINARY OUTPUT FILES WILL BE USED
Info: RESTART FILENAME       mobley_6620221_equil.restart
Info: RESTART FREQUENCY      100000
Info: BINARY RESTART FILES WILL BE USED
Info: CUTOFF                 9
Info: PAIRLIST DISTANCE      11
Info: PAIRLIST SHRINK RATE   0.01
Info: PAIRLIST GROW RATE     0.01
Info: PAIRLIST TRIGGER       0.3
Info: PAIRLISTS PER CYCLE    2
Info: PAIRLISTS ENABLED
Info: MARGIN                 8
Info: HYDROGEN GROUP CUTOFF  2.5
Info: PATCH DIMENSION        21.5
Info: ENERGY OUTPUT STEPS    100000
Info: ENERGY EVALUATION STEPS    100000
Info: OUTPUT ENERGY PRECISION 4
Info: CROSSTERM ENERGY INCLUDED IN DIHEDRAL
Info: TIMING OUTPUT STEPS    1000000
Info: PRESSURE OUTPUT STEPS  100000
Info: LANGEVIN DYNAMICS ACTIVE
Info: LANGEVIN TEMPERATURE   30
Info: LANGEVIN USING BBK INTEGRATOR
Info: LANGEVIN DAMPING COEFFICIENT IS 1 INVERSE PS
Info: LANGEVIN DYNAMICS APPLIED TO HYDROGENS
Info: LANGEVIN PISTON PRESSURE CONTROL ACTIVE
Info:        TARGET PRESSURE IS 1.01325 BAR
Info:     OSCILLATION PERIOD IS 50 FS
Info:             DECAY TIME IS 25 FS
Info:     PISTON TEMPERATURE IS 300 K
Info:       PRESSURE CONTROL IS GROUP-BASED
Info:    INITIAL STRAIN RATE IS 0 0 0
Info:       CELL FLUCTUATION IS ISOTROPIC
Info: PARTICLE MESH EWALD (PME) ACTIVE
Info: PME TOLERANCE               1e-06
Info: PME EWALD COEFFICIENT       0.348832
Info: PME INTERPOLATION ORDER     4
Info: PME GRID DIMENSIONS         36 40 36
Info: PME MAXIMUM GRID SPACING    1
Info: FULL ELECTROSTATIC EVALUATION FREQUENCY      2
Info: USING VERLET I (r-RESPA) MTS SCHEME.
Info: C1 SPLITTING OF LONG RANGE ELECTROSTATICS
Info: PLACING ATOMS IN PATCHES BY HYDROGEN GROUPS
Info: RIGID BONDS TO HYDROGEN : ALL
Info:         ERROR TOLERANCE : 1e-08
Info:          MAX ITERATIONS : 100
Info: RIGID WATER USING SETTLE ALGORITHM
Info: RANDOM NUMBER SEED     1743237845
Info: USE HYDROGEN BONDS?    NO
Info: Using AMBER format force field!
Info: AMBER PARM FILE        mobley_6620221.prmtop
Info: COORDINATE PDB         mobley_6620221.pdb
Info: Exclusions will be read from PARM file!
Info: SCNB (VDW SCALING)     2
Info: USING ARITHMETIC MEAN TO COMBINE L-J SIGMA PARAMETERS
Info: BINARY COORDINATES     mobley_6620221_min.coor
Info: SUMMARY OF PARAMETERS:
Info: 15 BONDS
Info: 20 ANGLES
Info:   20 HARMONIC
Info:   0 COSINE-BASED
Info: 12 DIHEDRAL
Info: 0 IMPROPER
Info: 0 CROSSTERM
Info: 0 VDW
Info: 66 VDW_PAIRS
Info: 0 NBTHOLE_PAIRS
Info: STRUCTURE SUMMARY:
Info: 2929 ATOMS
Info: 2930 BONDS
Info: 56 ANGLES
Info: 93 DIHEDRALS
Info: 0 IMPROPERS
Info: 0 CROSSTERMS
Info: 3054 EXCLUSIONS
Info: 2913 RIGID BONDS
Info: 5874 DEGREES OF FREEDOM
Info: 982 HYDROGEN GROUPS
Info: 4 ATOMS IN LARGEST HYDROGEN GROUP
Info: 982 MIGRATION GROUPS
Info: 4 ATOMS IN LARGEST MIGRATION GROUP
Info: TOTAL MASS = 17624.7 amu
Info: TOTAL CHARGE = -0.000300046 e
Info: MASS DENSITY = 0.664114 g/cm^3
Info: ATOM DENSITY = 0.0664631 atoms/A^3
Info: ADDED 0 IMPLICIT EXCLUSIONS
Info: NONBONDED TABLE R-SQUARED SPACING: 0.0625
Info: NONBONDED TABLE SIZE: 705 POINTS
Info: REMOVING COM VELOCITY 0.0542192 0.0552113 -0.11997
TCL: Running for 100000 steps
ETITLE: TS BOND ANGLE DIHED IMPRP ELECT VDW BOUNDARY MISC KINETIC TOTAL TEMP POTENTIAL TOTAL3 TEMPAVG PRESSURE GPRESSURE VOLUME PRESSAVG GPRESSAVG
ENERGY: 0 0.9021 10.2989 8.8866 0.0000 -13494.7589 2372.3509 0.0000 0.0000 1764.8311 -9337.4893 302.3845 -11102.3204 -9337.1589 302.3845 509.3728 542.7786 44069.5535 509.3728 542.7786
ENERGY: 100000 1.9921 12.5471 8.1202 0.0000 -14035.7825 2386.3255 0.0000 0.0000 173.7386 -11453.0592 29.7682 -11626.7977 -11452.4909 30.9350 -475.6892 -421.8301 28828.9953 4.8370 4.7897
TCL: Running 100000 steps at 60 kelvin.
TCL: Setting parameter langevinTemp to 60
TCL: Running for 100000 steps
ETITLE: TS BOND ANGLE DIHED IMPRP ELECT VDW BOUNDARY MISC KINETIC TOTAL TEMP POTENTIAL TOTAL3 TEMPAVG PRESSURE GPRESSURE VOLUME PRESSAVG GPRESSAVG
ENERGY: 100000 1.9921 12.5471 8.1202 0.0000 -14035.7825 2386.3255 0.0000 0.0000 173.6505 -11453.1473 29.7531 -11626.7977 -11452.6904 29.7531 -468.6764 -421.9207 28828.9953 -468.6764 -421.9207
ENERGY: 200000 2.6267 13.3548 9.2017 0.0000 -13889.3029 2320.1248 0.0000 0.0000 339.6199 -11204.3749 58.1902 -11543.9948 -11203.0327 59.9177 -644.2576 -593.5135 28740.5948 5.4487 5.3160
TCL: Running 100000 steps at 90 kelvin.
TCL: Setting parameter langevinTemp to 90
TCL: Running for 100000 steps
ETITLE: TS BOND ANGLE DIHED IMPRP ELECT VDW BOUNDARY MISC KINETIC TOTAL TEMP POTENTIAL TOTAL3 TEMPAVG PRESSURE GPRESSURE VOLUME PRESSAVG GPRESSAVG
ENERGY: 200000 2.6267 13.3548 9.2017 0.0000 -13889.3029 2320.1248 0.0000 0.0000 339.4448 -11204.5500 58.1602 -11543.9948 -11203.7287 58.1602 -645.0350 -593.4240 28740.5948 -645.0350 -593.4240
ENERGY: 300000 3.6858 13.2762 8.8623 0.0000 -13671.4982 2184.2597 0.0000 0.0000 512.8138 -10948.6004 87.8650 -11461.4142 -10946.4370 89.8694 -1587.6742 -1537.5833 28804.1099 4.4286 4.4397
TCL: Running 100000 steps at 120 kelvin.
TCL: Setting parameter langevinTemp to 120
TCL: Running for 100000 steps
ETITLE: TS BOND ANGLE DIHED IMPRP ELECT VDW BOUNDARY MISC KINETIC TOTAL TEMP POTENTIAL TOTAL3 TEMPAVG PRESSURE GPRESSURE VOLUME PRESSAVG GPRESSAVG
ENERGY: 300000 3.6858 13.2762 8.8623 0.0000 -13671.4982 2184.2597 0.0000 0.0000 512.5647 -10948.8495 87.8224 -11461.4142 -10947.6861 87.8224 -1587.6935 -1536.8334 28804.1099 -1587.6935 -1536.8334
ENERGY: 400000 3.9228 15.3025 10.2502 0.0000 -13625.5244 2267.9522 0.0000 0.0000 703.8225 -10624.2741 120.5923 -11328.0966 -10622.9882 119.9937 -424.8973 -364.3200 28829.7600 4.2157 4.2418
TCL: Running 100000 steps at 150 kelvin.
TCL: Setting parameter langevinTemp to 150
TCL: Running for 100000 steps
ETITLE: TS BOND ANGLE DIHED IMPRP ELECT VDW BOUNDARY MISC KINETIC TOTAL TEMP POTENTIAL TOTAL3 TEMPAVG PRESSURE GPRESSURE VOLUME PRESSAVG GPRESSAVG
ENERGY: 400000 3.9228 15.3025 10.2502 0.0000 -13625.5244 2267.9522 0.0000 0.0000 703.4627 -10624.6339 120.5307 -11328.0966 -10623.0264 120.5307 -405.4255 -364.5955 28829.7600 -405.4255 -364.5955
ENERGY: 500000 3.4977 18.0451 9.4161 0.0000 -13381.5693 2172.4629 0.0000 0.0000 885.1789 -10292.9687 151.6657 -11178.1476 -10290.6482 150.2206 -666.0075 -651.1930 28870.0888 3.4524 3.4535
TCL: Running 100000 steps at 180 kelvin.
TCL: Setting parameter langevinTemp to 180
TCL: Running for 100000 steps
ETITLE: TS BOND ANGLE DIHED IMPRP ELECT VDW BOUNDARY MISC KINETIC TOTAL TEMP POTENTIAL TOTAL3 TEMPAVG PRESSURE GPRESSURE VOLUME PRESSAVG GPRESSAVG
ENERGY: 500000 3.4977 18.0451 9.4161 0.0000 -13381.5693 2172.4629 0.0000 0.0000 884.7394 -10293.4082 151.5904 -11178.1476 -10291.1205 151.5904 -699.0533 -650.7387 28870.0888 -699.0533 -650.7387
ENERGY: 600000 4.3315 18.1150 10.6546 0.0000 -12992.8478 2079.5477 0.0000 0.0000 1046.4194 -9833.7796 179.2925 -10880.1989 -9831.0142 180.6690 -172.9973 -155.1318 28766.6631 3.1034 3.0865
TCL: Running 100000 steps at 210 kelvin.
TCL: Setting parameter langevinTemp to 210
TCL: Running for 100000 steps
ETITLE: TS BOND ANGLE DIHED IMPRP ELECT VDW BOUNDARY MISC KINETIC TOTAL TEMP POTENTIAL TOTAL3 TEMPAVG PRESSURE GPRESSURE VOLUME PRESSAVG GPRESSAVG
ENERGY: 600000 4.3315 18.1150 10.6546 0.0000 -12992.8478 2079.5477 0.0000 0.0000 1045.9077 -9834.2913 179.2049 -10880.1989 -9832.7150 179.2049 -223.8788 -154.9217 28766.6631 -223.8788 -154.9217
ENERGY: 700000 3.6096 20.3873 10.5207 0.0000 -12160.5182 1731.8521 0.0000 0.0000 1232.0090 -9162.1394 211.0913 -10394.1484 -9159.5238 209.7465 -968.5505 -855.9873 28535.8346 4.8663 4.8403
TCL: Running 100000 steps at 240 kelvin.
TCL: Setting parameter langevinTemp to 240
TCL: Running for 100000 steps
ETITLE: TS BOND ANGLE DIHED IMPRP ELECT VDW BOUNDARY MISC KINETIC TOTAL TEMP POTENTIAL TOTAL3 TEMPAVG PRESSURE GPRESSURE VOLUME PRESSAVG GPRESSAVG
ENERGY: 700000 3.6096 20.3873 10.5207 0.0000 -12160.5182 1731.8521 0.0000 0.0000 1231.3752 -9162.7732 210.9827 -10394.1484 -9160.7876 210.9827 -923.0543 -856.3200 28535.8346 -923.0543 -856.3200
ENERGY: 800000 2.6774 16.2707 14.2277 0.0000 -11700.3276 1692.4186 0.0000 0.0000 1423.8737 -8550.8595 243.9652 -9974.7332 -8545.9773 239.9825 528.3751 624.3606 28443.3844 4.5056 4.3923
TCL: Running 100000 steps at 270 kelvin.
TCL: Setting parameter langevinTemp to 270
TCL: Running for 100000 steps
ETITLE: TS BOND ANGLE DIHED IMPRP ELECT VDW BOUNDARY MISC KINETIC TOTAL TEMP POTENTIAL TOTAL3 TEMPAVG PRESSURE GPRESSURE VOLUME PRESSAVG GPRESSAVG
ENERGY: 800000 2.6774 16.2707 14.2277 0.0000 -11700.3276 1692.4186 0.0000 0.0000 1423.1742 -8551.5590 243.8454 -9974.7332 -8549.5383 243.8454 534.8886 624.7476 28443.3844 534.8886 624.7476
ENERGY: 900000 5.4240 19.5781 9.5788 0.0000 -11118.8166 1518.5233 0.0000 0.0000 1542.5350 -8023.1774 264.2965 -9565.7124 -8018.1436 270.1377 -61.9135 42.6372 29349.7213 3.6687 3.6503
TCL: Running 1000000 steps at 300 kelvin.
TCL: Setting parameter langevinTemp to 300
TCL: Running for 1000000 steps
ETITLE: TS BOND ANGLE DIHED IMPRP ELECT VDW BOUNDARY MISC KINETIC TOTAL TEMP POTENTIAL TOTAL3 TEMPAVG PRESSURE GPRESSURE VOLUME PRESSAVG GPRESSAVG
ENERGY: 900000 5.4240 19.5781 9.5788 0.0000 -11118.8166 1518.5233 0.0000 0.0000 1541.7759 -8023.9365 264.1665 -9565.7124 -8021.3235 264.1665 -52.2671 43.8761 29349.7213 -52.2671 43.8761
ENERGY: 1100000 2.3694 21.5117 14.8568 0.0000 -10530.4233 1349.1502 0.0000 0.0000 1774.6880 -7367.8473 304.0734 -9142.5353 -7362.4717 300.0559 -583.3055 -501.4719 30292.1140 4.8759 4.9246
ENERGY: 1300000 9.7251 25.1976 15.4321 0.0000 -10635.0061 1427.6146 0.0000 0.0000 1764.3776 -7392.6591 302.3068 -9157.0368 -7390.2634 299.9730 -101.8691 -56.9875 30180.3265 4.5147 4.4741
ENERGY: 1500000 9.9487 27.7380 14.1882 0.0000 -10558.0437 1373.9182 0.0000 0.0000 1728.7561 -7403.4946 296.2035 -9132.2507 -7401.5139 299.7298 -274.3640 -250.7751 30175.6626 1.9574 2.0060
ENERGY: 1700000 5.1661 27.3606 13.5673 0.0000 -10475.7508 1250.2762 0.0000 0.0000 1721.6720 -7457.7087 294.9897 -9179.3806 -7453.4644 299.7652 -1441.4870 -1408.4209 30644.8073 2.4890 2.3617
ENERGY: 1900000 5.5472 23.6368 9.5542 0.0000 -10663.5351 1458.2162 0.0000 0.0000 1740.8289 -7425.7519 298.2720 -9166.5808 -7423.0206 300.1613 384.7765 506.0057 29961.6502 4.4263 4.4727
TCL: Exiting due to exit command.
