Info: SIMULATION PARAMETERS:
Info: TIMESTEP               2
Info: NUMBER OF STEPS        0
Info: STEPS PER CYCLE        10
Info: PERIODIC CELL BASIS 1  39.546 0 0
Info: PERIODIC CELL BASIS 2  0 34.1 0
Info: PERIODIC CELL BASIS 3  0 0 33.27
Info: PERIODIC CELL CENTER   0 0 0
Info: WRAPPING WATERS AROUND PERIODIC BOUNDARIES ON OUTPUT.
Info: WRAPPING ALL CLUSTERS AROUND PERIODIC BOUNDARIES ON OUTPUT.
Info: FIRST LDB TIMESTEP     50
Info: LAST LDB TIMESTEP     -1
Info: HOM BACKGROUND SCALING 1
Info: PME BACKGROUND SCALING 1
Info: MIN ATOMS PER PATCH    40
Info: EMPTY PATCH LOAD       40 ATOMS
Info: INITIAL TEMPERATURE    300
Info: CENTER OF MASS MOVING INITIALLY? NO
Info: DIELECTRIC             1
Info: EXCLUDE                SCALED ONE-FOUR
Info: 1-4 ELECTROSTATICS SCALED BY 0.833333
Info: MODIFIED 1-4 VDW PARAMETERS WILL BE USED
Info: DCD FILENAME           mobley_9015240_equil.dcd
Info: DCD FREQUENCY          100000
Info: DCD FIRST STEP         100000
Info: DCD FILE WILL CONTAIN UNIT CELL DATA
Info: XST FILENAME           mobley_9015240_equil.xst
Info: XST FREQUENCY          100000
Info: NO VELOCITY DCD OUTPUT
Info: NO FORCE DCD OUTPUT
Info: OUTPUT FILENAME        mobley_9015240_equil
Info: BINARY OUTPUT FILES WILL BE USED
Info: RESTART FILENAME       mobley_9015240_equil.restart
Info: RESTART FREQUENCY      100000
Info: BINARY RESTART FILES WILL BE USED
Info: CUTOFF                 9
Info: PAIRLIST DISTANCE      11
Info: PAIRLIST SHRINK RATE   0.01
Info: PAIRLIST GROW RATE     0.01
Info: PAIRLIST TRIGGER       0.3
Info: PAIRLISTS PER CYCLE    2
Info: PAIRLISTS ENABLED
Info: MARGIN                 8
Info: HYDROGEN GROUP CUTOFF  2.5
Info: PATCH DIMENSION        21.5
Info: ENERGY OUTPUT STEPS    100000
Info: ENERGY EVALUATION STEPS    100000
Info: OUTPUT ENERGY PRECISION 4
Info: CROSSTERM ENERGY INCLUDED IN DIHEDRAL
Info: TIMING OUTPUT STEPS    1000000
Info: PRESSURE OUTPUT STEPS  100000
Info: LANGEVIN DYNAMICS ACTIVE
Info: LANGEVIN TEMPERATURE   30
Info: LANGEVIN USING BBK INTEGRATOR
Info: LANGEVIN DAMPING COEFFICIENT IS 1 INVERSE PS
Info: LANGEVIN DYNAMICS APPLIED TO HYDROGENS
Info: LANGEVIN PISTON PRESSURE CONTROL ACTIVE
Info:        TARGET PRESSURE IS 1.01325 BAR
Info:     OSCILLATION PERIOD IS 50 FS
Info:             DECAY TIME IS 25 FS
Info:     PISTON TEMPERATURE IS 300 K
Info:       PRESSURE CONTROL IS GROUP-BASED
Info:    INITIAL STRAIN RATE IS 0 0 0
Info:       CELL FLUCTUATION IS ISOTROPIC
Info: PARTICLE MESH EWALD (PME) ACTIVE
Info: PME TOLERANCE               1e-06
Info: PME EWALD COEFFICIENT       0.348832
Info: PME INTERPOLATION ORDER     4
Info: PME GRID DIMENSIONS         40 36 36
Info: PME MAXIMUM GRID SPACING    1
Info: FULL ELECTROSTATIC EVALUATION FREQUENCY      2
Info: USING VERLET I (r-RESPA) MTS SCHEME.
Info: C1 SPLITTING OF LONG RANGE ELECTROSTATICS
Info: PLACING ATOMS IN PATCHES BY HYDROGEN GROUPS
Info: RIGID BONDS TO HYDROGEN : ALL
Info:         ERROR TOLERANCE : 1e-08
Info:          MAX ITERATIONS : 100
Info: RIGID WATER USING SETTLE ALGORITHM
Info: RANDOM NUMBER SEED     1743261470
Info: USE HYDROGEN BONDS?    NO
Info: Using AMBER format force field!
Info: AMBER PARM FILE        mobley_9015240.prmtop
Info: COORDINATE PDB         mobley_9015240.pdb
Info: Exclusions will be read from PARM file!
Info: SCNB (VDW SCALING)     2
Info: USING ARITHMETIC MEAN TO COMBINE L-J SIGMA PARAMETERS
Info: BINARY COORDINATES     mobley_9015240_min.coor
Info: SUMMARY OF PARAMETERS:
Info: 6 BONDS
Info: 7 ANGLES
Info: 8 DIHEDRAL
Info: 0 IMPROPER
Info: 0 CROSSTERM
Info: 0 VDW
Info: 21 VDW_PAIRS
Info: 0 NBTHOLE_PAIRS
Info: STRUCTURE SUMMARY:
Info: 2981 ATOMS
Info: 2980 BONDS
Info: 48 ANGLES
Info: 75 DIHEDRALS
Info: 0 IMPROPERS
Info: 0 CROSSTERMS
Info: 3091 EXCLUSIONS
Info: 2972 RIGID BONDS
Info: 5971 DEGREES OF FREEDOM
Info: 994 HYDROGEN GROUPS
Info: 4 ATOMS IN LARGEST HYDROGEN GROUP
Info: 994 MIGRATION GROUPS
Info: 4 ATOMS IN LARGEST MIGRATION GROUP
Info: TOTAL MASS = 17938.9 amu
Info: TOTAL CHARGE = 3.07336e-08 e
Info: MASS DENSITY = 0.663964 g/cm^3
Info: ATOM DENSITY = 0.0664435 atoms/A^3
Info: ADDED 0 IMPLICIT EXCLUSIONS
Info: NONBONDED TABLE R-SQUARED SPACING: 0.0625
Info: NONBONDED TABLE SIZE: 705 POINTS
Info: REMOVING COM VELOCITY -0.167228 -0.0573785 0.00511379
TCL: Running for 100000 steps
ETITLE: TS BOND ANGLE DIHED IMPRP ELECT VDW BOUNDARY MISC KINETIC TOTAL TEMP POTENTIAL TOTAL3 TEMPAVG PRESSURE GPRESSURE VOLUME PRESSAVG GPRESSAVG
ENERGY: 0 0.0668 0.3889 3.8611 0.0000 -13733.1375 2437.7514 0.0000 0.0000 1745.0681 -9546.0011 294.1411 -11291.0692 -9545.6642 294.1411 482.4231 519.6856 44865.2138 482.4231 519.6856
ENERGY: 100000 0.1331 1.8290 4.3476 0.0000 -14403.5167 2550.7943 0.0000 0.0000 182.5642 -11663.8485 30.7722 -11846.4127 -11663.5206 30.8617 225.4858 307.4270 29085.3900 3.9758 3.9931
TCL: Running 100000 steps at 60 kelvin.
TCL: Setting parameter langevinTemp to 60
TCL: Running for 100000 steps
ETITLE: TS BOND ANGLE DIHED IMPRP ELECT VDW BOUNDARY MISC KINETIC TOTAL TEMP POTENTIAL TOTAL3 TEMPAVG PRESSURE GPRESSURE VOLUME PRESSAVG GPRESSAVG
ENERGY: 100000 0.1331 1.8290 4.3476 0.0000 -14403.5167 2550.7943 0.0000 0.0000 182.4772 -11663.9355 30.7576 -11846.4127 -11663.5821 30.7576 242.4799 307.3363 29085.3900 242.4799 307.3363
ENERGY: 200000 1.1013 2.8008 4.4885 0.0000 -14222.5473 2501.3600 0.0000 0.0000 356.0863 -11356.7104 60.0204 -11712.7967 -11355.8478 59.8860 324.3363 393.5586 29014.8943 3.7326 3.7409
TCL: Running 100000 steps at 90 kelvin.
TCL: Setting parameter langevinTemp to 90
TCL: Running for 100000 steps
ETITLE: TS BOND ANGLE DIHED IMPRP ELECT VDW BOUNDARY MISC KINETIC TOTAL TEMP POTENTIAL TOTAL3 TEMPAVG PRESSURE GPRESSURE VOLUME PRESSAVG GPRESSAVG
ENERGY: 200000 1.1013 2.8008 4.4885 0.0000 -14222.5473 2501.3600 0.0000 0.0000 355.9098 -11356.8869 59.9906 -11712.7967 -11356.0753 59.9906 328.0731 393.4154 29014.8943 328.0731 393.4154
ENERGY: 300000 0.5787 3.9063 4.9658 0.0000 -14100.7389 2441.6332 0.0000 0.0000 543.3131 -11106.3417 91.5785 -11649.6548 -11105.0575 90.0721 257.0967 345.4424 28974.9592 5.8544 5.7025
TCL: Running 100000 steps at 120 kelvin.
TCL: Setting parameter langevinTemp to 120
TCL: Running for 100000 steps
ETITLE: TS BOND ANGLE DIHED IMPRP ELECT VDW BOUNDARY MISC KINETIC TOTAL TEMP POTENTIAL TOTAL3 TEMPAVG PRESSURE GPRESSURE VOLUME PRESSAVG GPRESSAVG
ENERGY: 300000 0.5787 3.9063 4.9658 0.0000 -14100.7389 2441.6332 0.0000 0.0000 543.0533 -11106.6015 91.5347 -11649.6548 -11105.6326 91.5347 280.9656 345.1982 28974.9592 280.9656 345.1982
ENERGY: 400000 1.3930 5.5125 5.1991 0.0000 -13833.7906 2314.6179 0.0000 0.0000 722.8479 -10784.2202 121.8401 -11507.0681 -10781.9822 120.1099 -232.5366 -217.3384 29239.2935 4.5454 4.5103
TCL: Running 100000 steps at 150 kelvin.
TCL: Setting parameter langevinTemp to 150
TCL: Running for 100000 steps
ETITLE: TS BOND ANGLE DIHED IMPRP ELECT VDW BOUNDARY MISC KINETIC TOTAL TEMP POTENTIAL TOTAL3 TEMPAVG PRESSURE GPRESSURE VOLUME PRESSAVG GPRESSAVG
ENERGY: 400000 1.3930 5.5125 5.1991 0.0000 -13833.7906 2314.6179 0.0000 0.0000 722.4828 -10784.5853 121.7786 -11507.0681 -10783.1021 121.7786 -259.3509 -217.1357 29239.2935 -259.3509 -217.1357
ENERGY: 500000 1.2215 6.1748 4.1242 0.0000 -13619.2651 2259.7493 0.0000 0.0000 892.8207 -10455.1745 150.4900 -11347.9952 -10453.1126 149.8459 -148.3619 -99.0692 29283.3166 4.4364 4.4655
TCL: Running 100000 steps at 180 kelvin.
TCL: Setting parameter langevinTemp to 180
TCL: Running for 100000 steps
ETITLE: TS BOND ANGLE DIHED IMPRP ELECT VDW BOUNDARY MISC KINETIC TOTAL TEMP POTENTIAL TOTAL3 TEMPAVG PRESSURE GPRESSURE VOLUME PRESSAVG GPRESSAVG
ENERGY: 500000 1.2215 6.1748 4.1242 0.0000 -13619.2651 2259.7493 0.0000 0.0000 892.3810 -10455.6143 150.4159 -11347.9952 -10453.8351 150.4159 -159.3404 -98.8368 29283.3166 -159.3404 -98.8368
ENERGY: 600000 2.7781 5.7457 6.5820 0.0000 -13109.9539 2048.6460 0.0000 0.0000 1054.7783 -9991.4238 177.7888 -11046.2021 -9989.0374 179.9082 -674.9996 -650.7416 29316.7489 4.0660 4.0037
TCL: Running 100000 steps at 210 kelvin.
TCL: Setting parameter langevinTemp to 210
TCL: Running for 100000 steps
ETITLE: TS BOND ANGLE DIHED IMPRP ELECT VDW BOUNDARY MISC KINETIC TOTAL TEMP POTENTIAL TOTAL3 TEMPAVG PRESSURE GPRESSURE VOLUME PRESSAVG GPRESSAVG
ENERGY: 600000 2.7781 5.7457 6.5820 0.0000 -13109.9539 2048.6460 0.0000 0.0000 1054.2452 -9991.9569 177.6990 -11046.2021 -9989.7964 177.6990 -719.9512 -651.3408 29316.7489 -719.9512 -651.3408
ENERGY: 700000 2.6291 8.9258 5.1709 0.0000 -12582.4414 1917.6850 0.0000 0.0000 1234.9755 -9413.0551 208.1621 -10648.0305 -9410.2169 210.1496 -233.5584 -122.6039 29146.7995 2.3861 2.2591
TCL: Running 100000 steps at 240 kelvin.
TCL: Setting parameter langevinTemp to 240
TCL: Running for 100000 steps
ETITLE: TS BOND ANGLE DIHED IMPRP ELECT VDW BOUNDARY MISC KINETIC TOTAL TEMP POTENTIAL TOTAL3 TEMPAVG PRESSURE GPRESSURE VOLUME PRESSAVG GPRESSAVG
ENERGY: 700000 2.6291 8.9258 5.1709 0.0000 -12582.4414 1917.6850 0.0000 0.0000 1234.3448 -9413.6858 208.0558 -10648.0305 -9411.5782 208.0558 -198.8631 -122.7367 29146.7995 -198.8631 -122.7367
ENERGY: 800000 3.2606 13.5681 4.1602 0.0000 -11997.8552 1853.1301 0.0000 0.0000 1453.5717 -8670.1644 245.0077 -10123.7361 -8667.3175 240.5431 1333.1768 1411.9067 29029.3615 4.2240 4.1540
TCL: Running 100000 steps at 270 kelvin.
TCL: Setting parameter langevinTemp to 270
TCL: Running for 100000 steps
ETITLE: TS BOND ANGLE DIHED IMPRP ELECT VDW BOUNDARY MISC KINETIC TOTAL TEMP POTENTIAL TOTAL3 TEMPAVG PRESSURE GPRESSURE VOLUME PRESSAVG GPRESSAVG
ENERGY: 800000 3.2606 13.5681 4.1602 0.0000 -11997.8552 1853.1301 0.0000 0.0000 1452.8363 -8670.8998 244.8838 -10123.7361 -8668.9896 244.8838 1347.3833 1412.0816 29029.3615 1347.3833 1412.0816
ENERGY: 900000 3.0449 12.6504 5.5641 0.0000 -11290.4487 1635.5005 0.0000 0.0000 1619.7504 -8013.9384 273.0181 -9633.6888 -8011.6150 270.0537 472.5091 598.7613 30105.0542 4.2340 4.3309
TCL: Running 1000000 steps at 300 kelvin.
TCL: Setting parameter langevinTemp to 300
TCL: Running for 1000000 steps
ETITLE: TS BOND ANGLE DIHED IMPRP ELECT VDW BOUNDARY MISC KINETIC TOTAL TEMP POTENTIAL TOTAL3 TEMPAVG PRESSURE GPRESSURE VOLUME PRESSAVG GPRESSAVG
ENERGY: 900000 3.0449 12.6504 5.5641 0.0000 -11290.4487 1635.5005 0.0000 0.0000 1618.9929 -8014.6959 272.8904 -9633.6888 -8011.9546 272.8904 508.5190 598.9481 30105.0542 508.5190 598.9481
ENERGY: 1100000 3.3921 12.9718 5.3912 0.0000 -10787.7756 1460.8186 0.0000 0.0000 1861.7695 -7443.4324 313.8118 -9305.2019 -7437.7491 299.9865 -3.9999 141.8282 30986.5784 3.5262 3.6009
ENERGY: 1300000 3.9555 14.6007 4.3123 0.0000 -10564.9028 1317.4077 0.0000 0.0000 1737.7440 -7486.8827 292.9066 -9224.6267 -7482.2205 299.4140 -1207.0032 -1094.3934 31551.8233 3.5852 3.6919
ENERGY: 1500000 1.2806 10.4966 5.2594 0.0000 -10787.2550 1437.6469 0.0000 0.0000 1756.3156 -7576.2559 296.0369 -9332.5716 -7572.4361 300.5161 61.3111 104.3149 30507.5866 3.0337 2.9321
ENERGY: 1700000 1.5623 12.8783 5.2168 0.0000 -10757.2961 1389.6192 0.0000 0.0000 1850.1239 -7497.8957 311.8488 -9348.0195 -7493.9277 300.3940 -662.3172 -534.5811 30953.1691 2.2965 2.3565
ENERGY: 1900000 3.2345 6.7968 5.6526 0.0000 -10649.5490 1385.4937 0.0000 0.0000 1769.0068 -7479.3646 298.1761 -9248.3714 -7477.3416 299.4720 -367.5547 -298.3034 30594.9698 2.4037 2.4575
TCL: Exiting due to exit command.
