Info: SIMULATION PARAMETERS:
Info: TIMESTEP               2
Info: NUMBER OF STEPS        0
Info: STEPS PER CYCLE        10
Info: PERIODIC CELL BASIS 1  38.861 0 0
Info: PERIODIC CELL BASIS 2  0 32.862 0
Info: PERIODIC CELL BASIS 3  0 0 34.68
Info: PERIODIC CELL CENTER   0 0 0
Info: WRAPPING WATERS AROUND PERIODIC BOUNDARIES ON OUTPUT.
Info: WRAPPING ALL CLUSTERS AROUND PERIODIC BOUNDARIES ON OUTPUT.
Info: FIRST LDB TIMESTEP     50
Info: LAST LDB TIMESTEP     -1
Info: HOM BACKGROUND SCALING 1
Info: PME BACKGROUND SCALING 1
Info: MIN ATOMS PER PATCH    40
Info: EMPTY PATCH LOAD       40 ATOMS
Info: INITIAL TEMPERATURE    300
Info: CENTER OF MASS MOVING INITIALLY? NO
Info: DIELECTRIC             1
Info: EXCLUDE                SCALED ONE-FOUR
Info: 1-4 ELECTROSTATICS SCALED BY 0.833333
Info: MODIFIED 1-4 VDW PARAMETERS WILL BE USED
Info: DCD FILENAME           mobley_588781_equil.dcd
Info: DCD FREQUENCY          100000
Info: DCD FIRST STEP         100000
Info: DCD FILE WILL CONTAIN UNIT CELL DATA
Info: XST FILENAME           mobley_588781_equil.xst
Info: XST FREQUENCY          100000
Info: NO VELOCITY DCD OUTPUT
Info: NO FORCE DCD OUTPUT
Info: OUTPUT FILENAME        mobley_588781_equil
Info: BINARY OUTPUT FILES WILL BE USED
Info: RESTART FILENAME       mobley_588781_equil.restart
Info: RESTART FREQUENCY      100000
Info: BINARY RESTART FILES WILL BE USED
Info: CUTOFF                 9
Info: PAIRLIST DISTANCE      11
Info: PAIRLIST SHRINK RATE   0.01
Info: PAIRLIST GROW RATE     0.01
Info: PAIRLIST TRIGGER       0.3
Info: PAIRLISTS PER CYCLE    2
Info: PAIRLISTS ENABLED
Info: MARGIN                 8
Info: HYDROGEN GROUP CUTOFF  2.5
Info: PATCH DIMENSION        21.5
Info: ENERGY OUTPUT STEPS    100000
Info: ENERGY EVALUATION STEPS    100000
Info: OUTPUT ENERGY PRECISION 4
Info: CROSSTERM ENERGY INCLUDED IN DIHEDRAL
Info: TIMING OUTPUT STEPS    1000000
Info: PRESSURE OUTPUT STEPS  100000
Info: LANGEVIN DYNAMICS ACTIVE
Info: LANGEVIN TEMPERATURE   30
Info: LANGEVIN USING BBK INTEGRATOR
Info: LANGEVIN DAMPING COEFFICIENT IS 1 INVERSE PS
Info: LANGEVIN DYNAMICS APPLIED TO HYDROGENS
Info: LANGEVIN PISTON PRESSURE CONTROL ACTIVE
Info:        TARGET PRESSURE IS 1.01325 BAR
Info:     OSCILLATION PERIOD IS 50 FS
Info:             DECAY TIME IS 25 FS
Info:     PISTON TEMPERATURE IS 300 K
Info:       PRESSURE CONTROL IS GROUP-BASED
Info:    INITIAL STRAIN RATE IS 0 0 0
Info:       CELL FLUCTUATION IS ISOTROPIC
Info: PARTICLE MESH EWALD (PME) ACTIVE
Info: PME TOLERANCE               1e-06
Info: PME EWALD COEFFICIENT       0.348832
Info: PME INTERPOLATION ORDER     4
Info: PME GRID DIMENSIONS         40 36 36
Info: PME MAXIMUM GRID SPACING    1
Info: FULL ELECTROSTATIC EVALUATION FREQUENCY      2
Info: USING VERLET I (r-RESPA) MTS SCHEME.
Info: C1 SPLITTING OF LONG RANGE ELECTROSTATICS
Info: PLACING ATOMS IN PATCHES BY HYDROGEN GROUPS
Info: RIGID BONDS TO HYDROGEN : ALL
Info:         ERROR TOLERANCE : 1e-08
Info:          MAX ITERATIONS : 100
Info: RIGID WATER USING SETTLE ALGORITHM
Info: RANDOM NUMBER SEED     1743261244
Info: USE HYDROGEN BONDS?    NO
Info: Using AMBER format force field!
Info: AMBER PARM FILE        mobley_588781.prmtop
Info: COORDINATE PDB         mobley_588781.pdb
Info: Exclusions will be read from PARM file!
Info: SCNB (VDW SCALING)     2
Info: USING ARITHMETIC MEAN TO COMBINE L-J SIGMA PARAMETERS
Info: BINARY COORDINATES     mobley_588781_min.coor
Info: SUMMARY OF PARAMETERS:
Info: 7 BONDS
Info: 8 ANGLES
Info:   8 HARMONIC
Info:   0 COSINE-BASED
Info: 9 DIHEDRAL
Info: 0 IMPROPER
Info: 0 CROSSTERM
Info: 0 VDW
Info: 21 VDW_PAIRS
Info: 0 NBTHOLE_PAIRS
Info: STRUCTURE SUMMARY:
Info: 2946 ATOMS
Info: 2946 BONDS
Info: 54 ANGLES
Info: 87 DIHEDRALS
Info: 0 IMPROPERS
Info: 0 CROSSTERMS
Info: 3072 EXCLUSIONS
Info: 2934 RIGID BONDS
Info: 5904 DEGREES OF FREEDOM
Info: 984 HYDROGEN GROUPS
Info: 4 ATOMS IN LARGEST HYDROGEN GROUP
Info: 984 MIGRATION GROUPS
Info: 4 ATOMS IN LARGEST MIGRATION GROUP
Info: TOTAL MASS = 17673.8 amu
Info: TOTAL CHARGE = -9.99831e-05 e
Info: MASS DENSITY = 0.662678 g/cm^3
Info: ATOM DENSITY = 0.066519 atoms/A^3
Info: ADDED 0 IMPLICIT EXCLUSIONS
Info: NONBONDED TABLE R-SQUARED SPACING: 0.0625
Info: NONBONDED TABLE SIZE: 705 POINTS
Info: REMOVING COM VELOCITY 0.00495889 -0.127505 -0.173847
TCL: Running for 100000 steps
ETITLE: TS BOND ANGLE DIHED IMPRP ELECT VDW BOUNDARY MISC KINETIC TOTAL TEMP POTENTIAL TOTAL3 TEMPAVG PRESSURE GPRESSURE VOLUME PRESSAVG GPRESSAVG
ENERGY: 0 0.2257 0.3368 1.3302 0.0000 -13557.5721 2394.4599 0.0000 0.0000 1810.7540 -9350.4655 308.6764 -11161.2195 -9350.1153 308.6764 536.3263 567.3052 44288.1003 536.3263 567.3052
ENERGY: 100000 0.8114 2.1259 1.7097 0.0000 -13958.6312 2373.1645 0.0000 0.0000 178.8135 -11402.0061 30.4821 -11580.8196 -11401.5648 30.9820 -703.0100 -627.6601 29976.2469 4.0224 3.9716
TCL: Running 100000 steps at 60 kelvin.
TCL: Setting parameter langevinTemp to 60
TCL: Running for 100000 steps
ETITLE: TS BOND ANGLE DIHED IMPRP ELECT VDW BOUNDARY MISC KINETIC TOTAL TEMP POTENTIAL TOTAL3 TEMPAVG PRESSURE GPRESSURE VOLUME PRESSAVG GPRESSAVG
ENERGY: 100000 0.8114 2.1259 1.7097 0.0000 -13958.6312 2373.1645 0.0000 0.0000 178.7259 -11402.0937 30.4671 -11580.8195 -11401.6340 30.4671 -691.3743 -627.8494 29976.2469 -691.3743 -627.8494
ENERGY: 200000 0.5241 4.1132 1.8552 0.0000 -13969.5150 2394.3169 0.0000 0.0000 368.8260 -11199.8796 62.8732 -11568.7057 -11198.8901 59.9811 -40.8549 -2.8914 28985.1754 5.2038 5.1196
TCL: Running 100000 steps at 90 kelvin.
TCL: Setting parameter langevinTemp to 90
TCL: Running for 100000 steps
ETITLE: TS BOND ANGLE DIHED IMPRP ELECT VDW BOUNDARY MISC KINETIC TOTAL TEMP POTENTIAL TOTAL3 TEMPAVG PRESSURE GPRESSURE VOLUME PRESSAVG GPRESSAVG
ENERGY: 200000 0.5241 4.1132 1.8552 0.0000 -13969.5150 2394.3169 0.0000 0.0000 368.6512 -11200.0545 62.8434 -11568.7057 -11199.2410 62.8434 -60.4574 -2.6653 28985.1754 -60.4574 -2.6653
ENERGY: 300000 1.1364 3.6601 2.7934 0.0000 -13809.9861 2329.4837 0.0000 0.0000 518.4480 -10954.4645 88.3790 -11472.9125 -10953.0313 89.9810 -342.2438 -286.2462 28935.6569 5.0033 4.9427
TCL: Running 100000 steps at 120 kelvin.
TCL: Setting parameter langevinTemp to 120
TCL: Running for 100000 steps
ETITLE: TS BOND ANGLE DIHED IMPRP ELECT VDW BOUNDARY MISC KINETIC TOTAL TEMP POTENTIAL TOTAL3 TEMPAVG PRESSURE GPRESSURE VOLUME PRESSAVG GPRESSAVG
ENERGY: 300000 1.1364 3.6601 2.7934 0.0000 -13809.9861 2329.4837 0.0000 0.0000 518.1935 -10954.7190 88.3356 -11472.9125 -10953.3779 88.3356 -340.0254 -286.1617 28935.6569 -340.0254 -286.1617
ENERGY: 400000 1.1117 5.4099 2.9414 0.0000 -13747.5008 2357.5444 0.0000 0.0000 723.9777 -10656.5159 123.4154 -11380.4935 -10654.7657 120.0231 242.5221 340.6792 29083.0915 4.3716 4.4079
TCL: Running 100000 steps at 150 kelvin.
TCL: Setting parameter langevinTemp to 150
TCL: Running for 100000 steps
ETITLE: TS BOND ANGLE DIHED IMPRP ELECT VDW BOUNDARY MISC KINETIC TOTAL TEMP POTENTIAL TOTAL3 TEMPAVG PRESSURE GPRESSURE VOLUME PRESSAVG GPRESSAVG
ENERGY: 400000 1.1117 5.4099 2.9414 0.0000 -13747.5008 2357.5444 0.0000 0.0000 723.6118 -10656.8818 123.3530 -11380.4935 -10655.5860 123.3530 273.8005 340.7988 29083.0915 273.8005 340.7988
ENERGY: 500000 2.0703 5.0647 3.2941 0.0000 -13400.4880 2230.2451 0.0000 0.0000 914.9634 -10244.8505 155.9724 -11159.8138 -10242.1764 149.6892 34.9012 149.5484 28542.7700 4.3257 4.4018
TCL: Running 100000 steps at 180 kelvin.
TCL: Setting parameter langevinTemp to 180
TCL: Running for 100000 steps
ETITLE: TS BOND ANGLE DIHED IMPRP ELECT VDW BOUNDARY MISC KINETIC TOTAL TEMP POTENTIAL TOTAL3 TEMPAVG PRESSURE GPRESSURE VOLUME PRESSAVG GPRESSAVG
ENERGY: 500000 2.0703 5.0647 3.2941 0.0000 -13400.4880 2230.2451 0.0000 0.0000 914.5222 -10245.2916 155.8972 -11159.8138 -10243.7335 155.8972 69.6330 149.9676 28542.7700 69.6330 149.9676
ENERGY: 600000 2.2880 6.4959 4.5084 0.0000 -12909.2197 2029.8055 0.0000 0.0000 1088.8767 -9777.2452 185.6191 -10866.1218 -9775.2356 179.7345 -680.7699 -592.3827 28995.0937 4.2852 4.2707
TCL: Running 100000 steps at 210 kelvin.
TCL: Setting parameter langevinTemp to 210
TCL: Running for 100000 steps
ETITLE: TS BOND ANGLE DIHED IMPRP ELECT VDW BOUNDARY MISC KINETIC TOTAL TEMP POTENTIAL TOTAL3 TEMPAVG PRESSURE GPRESSURE VOLUME PRESSAVG GPRESSAVG
ENERGY: 600000 2.2880 6.4959 4.5084 0.0000 -12909.2197 2029.8055 0.0000 0.0000 1088.3620 -9777.7599 185.5314 -10866.1218 -9775.5277 185.5314 -653.3436 -592.1774 28995.0937 -653.3436 -592.1774
ENERGY: 700000 1.8038 7.3916 3.5012 0.0000 -12528.8078 2051.5570 0.0000 0.0000 1237.2420 -9227.3123 210.9107 -10464.5542 -9224.7743 209.9558 1207.7962 1271.8705 28744.8857 4.3040 4.2296
TCL: Running 100000 steps at 240 kelvin.
TCL: Setting parameter langevinTemp to 240
TCL: Running for 100000 steps
ETITLE: TS BOND ANGLE DIHED IMPRP ELECT VDW BOUNDARY MISC KINETIC TOTAL TEMP POTENTIAL TOTAL3 TEMPAVG PRESSURE GPRESSURE VOLUME PRESSAVG GPRESSAVG
ENERGY: 700000 1.8038 7.3916 3.5012 0.0000 -12528.8078 2051.5570 0.0000 0.0000 1236.6277 -9227.9265 210.8060 -10464.5542 -9225.7421 210.8060 1190.5731 1271.9103 28744.8857 1190.5731 1271.9103
ENERGY: 800000 3.3500 8.8844 4.2534 0.0000 -11750.9215 1731.7129 0.0000 0.0000 1422.4474 -8580.2733 242.4824 -10002.7207 -8576.5748 239.5763 373.9832 413.0179 28644.8874 4.2132 4.3400
TCL: Running 100000 steps at 270 kelvin.
TCL: Setting parameter langevinTemp to 270
TCL: Running for 100000 steps
ETITLE: TS BOND ANGLE DIHED IMPRP ELECT VDW BOUNDARY MISC KINETIC TOTAL TEMP POTENTIAL TOTAL3 TEMPAVG PRESSURE GPRESSURE VOLUME PRESSAVG GPRESSAVG
ENERGY: 800000 3.3500 8.8844 4.2534 0.0000 -11750.9215 1731.7129 0.0000 0.0000 1421.7423 -8580.9784 242.3622 -10002.7207 -8578.3713 242.3622 326.4216 412.4627 28644.8874 326.4216 412.4627
ENERGY: 900000 3.2754 7.7316 4.0950 0.0000 -11149.7757 1553.6388 0.0000 0.0000 1565.5974 -8015.4375 266.8850 -9581.0349 -8013.0769 270.1441 159.2179 257.4591 29251.1282 2.1020 2.0138
TCL: Running 1000000 steps at 300 kelvin.
TCL: Setting parameter langevinTemp to 300
TCL: Running for 1000000 steps
ETITLE: TS BOND ANGLE DIHED IMPRP ELECT VDW BOUNDARY MISC KINETIC TOTAL TEMP POTENTIAL TOTAL3 TEMPAVG PRESSURE GPRESSURE VOLUME PRESSAVG GPRESSAVG
ENERGY: 900000 3.2754 7.7316 4.0950 0.0000 -11149.7757 1553.6388 0.0000 0.0000 1564.8052 -8016.2297 266.7499 -9581.0349 -8014.4773 266.7499 166.7710 259.0602 29251.1282 166.7710 259.0602
ENERGY: 1100000 4.5882 11.6850 4.7369 0.0000 -10574.4319 1394.2435 0.0000 0.0000 1739.4886 -7419.6897 296.5279 -9159.1783 -7415.2135 300.0565 -274.8947 -166.6646 30165.3147 4.6583 4.5501
ENERGY: 1300000 7.1576 16.9714 5.1788 0.0000 -10515.2281 1362.8357 0.0000 0.0000 1820.0708 -7303.0137 310.2647 -9123.0845 -7300.9802 299.9227 -271.3237 -299.2192 30610.9795 4.0219 4.0367
ENERGY: 1500000 2.9691 17.5963 5.3217 0.0000 -10599.4692 1375.8547 0.0000 0.0000 1759.7488 -7437.9785 299.9817 -9197.7273 -7430.8421 300.2237 -575.0207 -539.8702 30356.7792 4.3594 4.4059
ENERGY: 1700000 2.5658 12.0442 5.4026 0.0000 -10633.7746 1387.0384 0.0000 0.0000 1691.4961 -7535.2276 288.3467 -9226.7237 -7529.5298 300.2628 -710.2803 -629.7871 30639.1972 4.7388 4.7907
ENERGY: 1900000 3.6227 11.1382 4.6342 0.0000 -10599.0613 1434.3963 0.0000 0.0000 1810.5273 -7334.7427 308.6378 -9145.2700 -7332.3613 300.3226 299.2518 358.7695 30460.5326 3.1638 3.1694
TCL: Exiting due to exit command.
