Info: SIMULATION PARAMETERS:
Info: TIMESTEP               2
Info: NUMBER OF STEPS        0
Info: STEPS PER CYCLE        10
Info: PERIODIC CELL BASIS 1  35.01 0 0
Info: PERIODIC CELL BASIS 2  0 35.267 0
Info: PERIODIC CELL BASIS 3  0 0 35.566
Info: PERIODIC CELL CENTER   0 0 0
Info: WRAPPING WATERS AROUND PERIODIC BOUNDARIES ON OUTPUT.
Info: WRAPPING ALL CLUSTERS AROUND PERIODIC BOUNDARIES ON OUTPUT.
Info: FIRST LDB TIMESTEP     50
Info: LAST LDB TIMESTEP     -1
Info: HOM BACKGROUND SCALING 1
Info: PME BACKGROUND SCALING 1
Info: MIN ATOMS PER PATCH    40
Info: EMPTY PATCH LOAD       40 ATOMS
Info: INITIAL TEMPERATURE    300
Info: CENTER OF MASS MOVING INITIALLY? NO
Info: DIELECTRIC             1
Info: EXCLUDE                SCALED ONE-FOUR
Info: 1-4 ELECTROSTATICS SCALED BY 0.833333
Info: MODIFIED 1-4 VDW PARAMETERS WILL BE USED
Info: DCD FILENAME           mobley_1929982_equil.dcd
Info: DCD FREQUENCY          100000
Info: DCD FIRST STEP         100000
Info: DCD FILE WILL CONTAIN UNIT CELL DATA
Info: XST FILENAME           mobley_1929982_equil.xst
Info: XST FREQUENCY          100000
Info: NO VELOCITY DCD OUTPUT
Info: NO FORCE DCD OUTPUT
Info: OUTPUT FILENAME        mobley_1929982_equil
Info: BINARY OUTPUT FILES WILL BE USED
Info: RESTART FILENAME       mobley_1929982_equil.restart
Info: RESTART FREQUENCY      100000
Info: BINARY RESTART FILES WILL BE USED
Info: CUTOFF                 9
Info: PAIRLIST DISTANCE      11
Info: PAIRLIST SHRINK RATE   0.01
Info: PAIRLIST GROW RATE     0.01
Info: PAIRLIST TRIGGER       0.3
Info: PAIRLISTS PER CYCLE    2
Info: PAIRLISTS ENABLED
Info: MARGIN                 8
Info: HYDROGEN GROUP CUTOFF  2.5
Info: PATCH DIMENSION        21.5
Info: ENERGY OUTPUT STEPS    100000
Info: ENERGY EVALUATION STEPS    100000
Info: OUTPUT ENERGY PRECISION 4
Info: CROSSTERM ENERGY INCLUDED IN DIHEDRAL
Info: TIMING OUTPUT STEPS    1000000
Info: PRESSURE OUTPUT STEPS  100000
Info: LANGEVIN DYNAMICS ACTIVE
Info: LANGEVIN TEMPERATURE   30
Info: LANGEVIN USING BBK INTEGRATOR
Info: LANGEVIN DAMPING COEFFICIENT IS 1 INVERSE PS
Info: LANGEVIN DYNAMICS APPLIED TO HYDROGENS
Info: LANGEVIN PISTON PRESSURE CONTROL ACTIVE
Info:        TARGET PRESSURE IS 1.01325 BAR
Info:     OSCILLATION PERIOD IS 50 FS
Info:             DECAY TIME IS 25 FS
Info:     PISTON TEMPERATURE IS 300 K
Info:       PRESSURE CONTROL IS GROUP-BASED
Info:    INITIAL STRAIN RATE IS 0 0 0
Info:       CELL FLUCTUATION IS ISOTROPIC
Info: PARTICLE MESH EWALD (PME) ACTIVE
Info: PME TOLERANCE               1e-06
Info: PME EWALD COEFFICIENT       0.348832
Info: PME INTERPOLATION ORDER     4
Info: PME GRID DIMENSIONS         36 36 36
Info: PME MAXIMUM GRID SPACING    1
Info: FULL ELECTROSTATIC EVALUATION FREQUENCY      2
Info: USING VERLET I (r-RESPA) MTS SCHEME.
Info: C1 SPLITTING OF LONG RANGE ELECTROSTATICS
Info: PLACING ATOMS IN PATCHES BY HYDROGEN GROUPS
Info: RIGID BONDS TO HYDROGEN : ALL
Info:         ERROR TOLERANCE : 1e-08
Info:          MAX ITERATIONS : 100
Info: RIGID WATER USING SETTLE ALGORITHM
Info: RANDOM NUMBER SEED     1743142486
Info: USE HYDROGEN BONDS?    NO
Info: Using AMBER format force field!
Info: AMBER PARM FILE        mobley_1929982.prmtop
Info: COORDINATE PDB         mobley_1929982.pdb
Info: Exclusions will be read from PARM file!
Info: SCNB (VDW SCALING)     2
Info: USING ARITHMETIC MEAN TO COMBINE L-J SIGMA PARAMETERS
Info: BINARY COORDINATES     mobley_1929982_min.coor
Info: SUMMARY OF PARAMETERS:
Info: 3 BONDS
Info: 1 ANGLES
Info:   1 HARMONIC
Info:   0 COSINE-BASED
Info: 0 DIHEDRAL
Info: 0 IMPROPER
Info: 0 CROSSTERM
Info: 0 VDW
Info: 10 VDW_PAIRS
Info: 0 NBTHOLE_PAIRS
Info: STRUCTURE SUMMARY:
Info: 2949 ATOMS
Info: 2948 BONDS
Info: 1 ANGLES
Info: 0 DIHEDRALS
Info: 0 IMPROPERS
Info: 0 CROSSTERMS
Info: 2949 EXCLUSIONS
Info: 2948 RIGID BONDS
Info: 5899 DEGREES OF FREEDOM
Info: 983 HYDROGEN GROUPS
Info: 3 ATOMS IN LARGEST HYDROGEN GROUP
Info: 983 MIGRATION GROUPS
Info: 3 ATOMS IN LARGEST MIGRATION GROUP
Info: TOTAL MASS = 17725.8 amu
Info: TOTAL CHARGE = 0.000100017 e
Info: MASS DENSITY = 0.6703 g/cm^3
Info: ATOM DENSITY = 0.0671551 atoms/A^3
Info: ADDED 0 IMPLICIT EXCLUSIONS
Info: NONBONDED TABLE R-SQUARED SPACING: 0.0625
Info: NONBONDED TABLE SIZE: 705 POINTS
Info: REMOVING COM VELOCITY 0.190648 -0.0697808 -0.0463089
TCL: Running for 100000 steps
ETITLE: TS BOND ANGLE DIHED IMPRP ELECT VDW BOUNDARY MISC KINETIC TOTAL TEMP POTENTIAL TOTAL3 TEMPAVG PRESSURE GPRESSURE VOLUME PRESSAVG GPRESSAVG
ENERGY: 0 0.0000 0.0746 0.0000 0.0000 -13710.9004 2416.6173 0.0000 0.0000 1795.1202 -9499.0883 306.2707 -11294.2085 -9498.7369 306.2707 433.0887 466.9641 43913.2573 433.0887 466.9641
ENERGY: 100000 0.0000 0.1017 0.0000 0.0000 -14274.9219 2529.2600 0.0000 0.0000 179.2464 -11566.3139 30.5818 -11745.5602 -11565.8580 30.9135 248.4974 303.4742 29137.0120 4.3710 4.3527
TCL: Running 100000 steps at 60 kelvin.
TCL: Setting parameter langevinTemp to 60
TCL: Running for 100000 steps
ETITLE: TS BOND ANGLE DIHED IMPRP ELECT VDW BOUNDARY MISC KINETIC TOTAL TEMP POTENTIAL TOTAL3 TEMPAVG PRESSURE GPRESSURE VOLUME PRESSAVG GPRESSAVG
ENERGY: 100000 0.0000 0.1017 0.0000 0.0000 -14274.9219 2529.2600 0.0000 0.0000 179.1602 -11566.4000 30.5671 -11745.5602 -11565.9923 30.5671 247.7822 303.3514 29137.0120 247.7822 303.3514
ENERGY: 200000 0.0000 0.0011 0.0000 0.0000 -14149.2241 2436.0023 0.0000 0.0000 353.6098 -11359.6109 60.3304 -11713.2207 -11358.8471 60.0592 -67.4741 11.3726 28559.6370 4.1308 4.1826
TCL: Running 100000 steps at 90 kelvin.
TCL: Setting parameter langevinTemp to 90
TCL: Running for 100000 steps
ETITLE: TS BOND ANGLE DIHED IMPRP ELECT VDW BOUNDARY MISC KINETIC TOTAL TEMP POTENTIAL TOTAL3 TEMPAVG PRESSURE GPRESSURE VOLUME PRESSAVG GPRESSAVG
ENERGY: 200000 0.0000 0.0011 0.0000 0.0000 -14149.2241 2436.0023 0.0000 0.0000 353.4343 -11359.7864 60.3005 -11713.2207 -11358.9576 60.3005 -43.1273 11.9851 28559.6370 -43.1273 11.9851
ENERGY: 300000 0.0000 0.0929 0.0000 0.0000 -14075.6151 2486.5733 0.0000 0.0000 534.9322 -11054.0168 91.2664 -11588.9490 -11053.0803 89.8563 1118.7935 1194.2338 28017.5182 3.4225 3.4245
TCL: Running 100000 steps at 120 kelvin.
TCL: Setting parameter langevinTemp to 120
TCL: Running for 100000 steps
ETITLE: TS BOND ANGLE DIHED IMPRP ELECT VDW BOUNDARY MISC KINETIC TOTAL TEMP POTENTIAL TOTAL3 TEMPAVG PRESSURE GPRESSURE VOLUME PRESSAVG GPRESSAVG
ENERGY: 300000 0.0000 0.0929 0.0000 0.0000 -14075.6151 2486.5733 0.0000 0.0000 534.6675 -11054.2815 91.2212 -11588.9490 -11053.5634 91.2212 1136.3255 1193.3654 28017.5182 1136.3255 1193.3654
ENERGY: 400000 0.0000 0.0587 0.0000 0.0000 -14083.4804 2585.3557 0.0000 0.0000 693.3399 -10804.7261 118.2928 -11498.0660 -10803.8019 119.7415 2081.8995 2151.9005 28223.8703 2.8545 2.8129
TCL: Running 100000 steps at 150 kelvin.
TCL: Setting parameter langevinTemp to 150
TCL: Running for 100000 steps
ETITLE: TS BOND ANGLE DIHED IMPRP ELECT VDW BOUNDARY MISC KINETIC TOTAL TEMP POTENTIAL TOTAL3 TEMPAVG PRESSURE GPRESSURE VOLUME PRESSAVG GPRESSAVG
ENERGY: 400000 0.0000 0.0587 0.0000 0.0000 -14083.4804 2585.3557 0.0000 0.0000 692.9931 -10805.0729 118.2336 -11498.0660 -10804.3706 118.2336 2102.7421 2152.6942 28223.8703 2102.7421 2152.6942
ENERGY: 500000 0.0000 0.6039 0.0000 0.0000 -13522.1668 2196.4337 0.0000 0.0000 864.7833 -10460.3459 147.5432 -11325.1292 -10457.4255 149.8164 -637.3083 -607.8486 28768.4255 5.0142 4.8534
TCL: Running 100000 steps at 180 kelvin.
TCL: Setting parameter langevinTemp to 180
TCL: Running for 100000 steps
ETITLE: TS BOND ANGLE DIHED IMPRP ELECT VDW BOUNDARY MISC KINETIC TOTAL TEMP POTENTIAL TOTAL3 TEMPAVG PRESSURE GPRESSURE VOLUME PRESSAVG GPRESSAVG
ENERGY: 500000 0.0000 0.6039 0.0000 0.0000 -13522.1668 2196.4337 0.0000 0.0000 864.3619 -10460.7673 147.4713 -11325.1292 -10458.6082 147.4713 -668.2476 -606.6502 28768.4255 -668.2476 -606.6502
ENERGY: 600000 0.0000 0.0001 0.0000 0.0000 -13141.4469 2092.1998 0.0000 0.0000 1042.0038 -10007.2431 177.7793 -11049.2470 -10004.5196 179.8327 -535.8299 -506.5828 29142.0575 2.7675 2.7841
TCL: Running 100000 steps at 210 kelvin.
TCL: Setting parameter langevinTemp to 210
TCL: Running for 100000 steps
ETITLE: TS BOND ANGLE DIHED IMPRP ELECT VDW BOUNDARY MISC KINETIC TOTAL TEMP POTENTIAL TOTAL3 TEMPAVG PRESSURE GPRESSURE VOLUME PRESSAVG GPRESSAVG
ENERGY: 600000 0.0000 0.0001 0.0000 0.0000 -13141.4469 2092.1998 0.0000 0.0000 1041.4591 -10007.7879 177.6864 -11049.2470 -10005.5267 177.6864 -561.0227 -506.4763 29142.0575 -561.0227 -506.4763
ENERGY: 700000 0.0000 0.0002 0.0000 0.0000 -12406.5455 1834.8508 0.0000 0.0000 1215.3800 -9356.3145 207.3596 -10571.6945 -9352.4787 210.1999 -371.5105 -275.9472 28304.9817 3.5529 3.6144
TCL: Running 100000 steps at 240 kelvin.
TCL: Setting parameter langevinTemp to 240
TCL: Running for 100000 steps
ETITLE: TS BOND ANGLE DIHED IMPRP ELECT VDW BOUNDARY MISC KINETIC TOTAL TEMP POTENTIAL TOTAL3 TEMPAVG PRESSURE GPRESSURE VOLUME PRESSAVG GPRESSAVG
ENERGY: 700000 0.0000 0.0002 0.0000 0.0000 -12406.5455 1834.8508 0.0000 0.0000 1214.7977 -9356.8968 207.2602 -10571.6945 -9355.1894 207.2602 -342.5082 -273.7333 28304.9817 -342.5082 -273.7333
ENERGY: 800000 0.0000 0.0000 0.0000 0.0000 -11791.2734 1700.9520 0.0000 0.0000 1410.8335 -8679.4879 240.7065 -10090.3214 -8675.0030 239.6621 -226.5045 -132.6094 29222.3613 4.0136 3.8350
TCL: Running 100000 steps at 270 kelvin.
TCL: Setting parameter langevinTemp to 270
TCL: Running for 100000 steps
ETITLE: TS BOND ANGLE DIHED IMPRP ELECT VDW BOUNDARY MISC KINETIC TOTAL TEMP POTENTIAL TOTAL3 TEMPAVG PRESSURE GPRESSURE VOLUME PRESSAVG GPRESSAVG
ENERGY: 800000 0.0000 0.0000 0.0000 0.0000 -11791.2734 1700.9520 0.0000 0.0000 1410.1310 -8680.1904 240.5866 -10090.3214 -8677.6851 240.5866 -197.2828 -132.8797 29222.3613 -197.2828 -132.8797
ENERGY: 900000 0.0000 0.5208 0.0000 0.0000 -11058.9822 1501.0811 0.0000 0.0000 1532.3307 -8025.0497 261.4355 -9557.3804 -8022.4361 269.1815 -556.1873 -458.0402 30117.8442 2.3400 2.3896
TCL: Running 1000000 steps at 300 kelvin.
TCL: Setting parameter langevinTemp to 300
TCL: Running for 1000000 steps
ETITLE: TS BOND ANGLE DIHED IMPRP ELECT VDW BOUNDARY MISC KINETIC TOTAL TEMP POTENTIAL TOTAL3 TEMPAVG PRESSURE GPRESSURE VOLUME PRESSAVG GPRESSAVG
ENERGY: 900000 0.0000 0.5208 0.0000 0.0000 -11058.9822 1501.0811 0.0000 0.0000 1531.5375 -8025.8428 261.3001 -9557.3804 -8023.6501 261.3001 -557.6906 -456.9827 30117.8442 -557.6906 -456.9827
ENERGY: 1100000 0.0000 0.0422 0.0000 0.0000 -10707.7292 1401.0642 0.0000 0.0000 1757.2261 -7549.3967 299.8055 -9306.6229 -7545.3730 300.1029 -535.3923 -459.4537 30615.9283 2.9964 2.7965
ENERGY: 1300000 0.0000 0.0043 0.0000 0.0000 -10703.0939 1402.7907 0.0000 0.0000 1736.3548 -7563.9440 296.2446 -9300.2988 -7559.9151 300.1403 -504.9708 -362.2790 30582.7696 2.2154 2.2451
ENERGY: 1500000 0.0000 0.0052 0.0000 0.0000 -10817.6534 1487.1075 0.0000 0.0000 1729.1387 -7601.4021 295.0134 -9330.5407 -7599.8465 300.1238 -69.0990 25.3365 30694.9862 2.1247 1.9472
ENERGY: 1700000 0.0000 0.0473 0.0000 0.0000 -10720.7287 1434.1963 0.0000 0.0000 1741.6223 -7544.8628 297.1433 -9286.4851 -7544.0712 300.6402 -72.9747 9.3153 30323.1840 3.5536 3.5672
ENERGY: 1900000 0.0000 0.0473 0.0000 0.0000 -10851.0491 1577.1833 0.0000 0.0000 1737.6114 -7536.2071 296.4590 -9273.8185 -7534.4191 300.9139 1322.7440 1439.5835 29695.6083 3.1202 3.0560
TCL: Exiting due to exit command.
