Info: SIMULATION PARAMETERS:
Info: TIMESTEP               2
Info: NUMBER OF STEPS        0
Info: STEPS PER CYCLE        10
Info: PERIODIC CELL BASIS 1  36.592 0 0
Info: PERIODIC CELL BASIS 2  0 34.26 0
Info: PERIODIC CELL BASIS 3  0 0 35.644
Info: PERIODIC CELL CENTER   0 0 0
Info: WRAPPING WATERS AROUND PERIODIC BOUNDARIES ON OUTPUT.
Info: WRAPPING ALL CLUSTERS AROUND PERIODIC BOUNDARIES ON OUTPUT.
Info: FIRST LDB TIMESTEP     50
Info: LAST LDB TIMESTEP     -1
Info: HOM BACKGROUND SCALING 1
Info: PME BACKGROUND SCALING 1
Info: MIN ATOMS PER PATCH    40
Info: EMPTY PATCH LOAD       40 ATOMS
Info: INITIAL TEMPERATURE    300
Info: CENTER OF MASS MOVING INITIALLY? NO
Info: DIELECTRIC             1
Info: EXCLUDE                SCALED ONE-FOUR
Info: 1-4 ELECTROSTATICS SCALED BY 0.833333
Info: MODIFIED 1-4 VDW PARAMETERS WILL BE USED
Info: DCD FILENAME           mobley_2929847_equil.dcd
Info: DCD FREQUENCY          100000
Info: DCD FIRST STEP         100000
Info: DCD FILE WILL CONTAIN UNIT CELL DATA
Info: XST FILENAME           mobley_2929847_equil.xst
Info: XST FREQUENCY          100000
Info: NO VELOCITY DCD OUTPUT
Info: NO FORCE DCD OUTPUT
Info: OUTPUT FILENAME        mobley_2929847_equil
Info: BINARY OUTPUT FILES WILL BE USED
Info: RESTART FILENAME       mobley_2929847_equil.restart
Info: RESTART FREQUENCY      100000
Info: BINARY RESTART FILES WILL BE USED
Info: CUTOFF                 9
Info: PAIRLIST DISTANCE      11
Info: PAIRLIST SHRINK RATE   0.01
Info: PAIRLIST GROW RATE     0.01
Info: PAIRLIST TRIGGER       0.3
Info: PAIRLISTS PER CYCLE    2
Info: PAIRLISTS ENABLED
Info: MARGIN                 8
Info: HYDROGEN GROUP CUTOFF  2.5
Info: PATCH DIMENSION        21.5
Info: ENERGY OUTPUT STEPS    100000
Info: ENERGY EVALUATION STEPS    100000
Info: OUTPUT ENERGY PRECISION 4
Info: CROSSTERM ENERGY INCLUDED IN DIHEDRAL
Info: TIMING OUTPUT STEPS    1000000
Info: PRESSURE OUTPUT STEPS  100000
Info: LANGEVIN DYNAMICS ACTIVE
Info: LANGEVIN TEMPERATURE   30
Info: LANGEVIN USING BBK INTEGRATOR
Info: LANGEVIN DAMPING COEFFICIENT IS 1 INVERSE PS
Info: LANGEVIN DYNAMICS APPLIED TO HYDROGENS
Info: LANGEVIN PISTON PRESSURE CONTROL ACTIVE
Info:        TARGET PRESSURE IS 1.01325 BAR
Info:     OSCILLATION PERIOD IS 50 FS
Info:             DECAY TIME IS 25 FS
Info:     PISTON TEMPERATURE IS 300 K
Info:       PRESSURE CONTROL IS GROUP-BASED
Info:    INITIAL STRAIN RATE IS 0 0 0
Info:       CELL FLUCTUATION IS ISOTROPIC
Info: PARTICLE MESH EWALD (PME) ACTIVE
Info: PME TOLERANCE               1e-06
Info: PME EWALD COEFFICIENT       0.348832
Info: PME INTERPOLATION ORDER     4
Info: PME GRID DIMENSIONS         40 36 36
Info: PME MAXIMUM GRID SPACING    1
Info: FULL ELECTROSTATIC EVALUATION FREQUENCY      2
Info: USING VERLET I (r-RESPA) MTS SCHEME.
Info: C1 SPLITTING OF LONG RANGE ELECTROSTATICS
Info: PLACING ATOMS IN PATCHES BY HYDROGEN GROUPS
Info: RIGID BONDS TO HYDROGEN : ALL
Info:         ERROR TOLERANCE : 1e-08
Info:          MAX ITERATIONS : 100
Info: RIGID WATER USING SETTLE ALGORITHM
Info: RANDOM NUMBER SEED     1743241108
Info: USE HYDROGEN BONDS?    NO
Info: Using AMBER format force field!
Info: AMBER PARM FILE        mobley_2929847.prmtop
Info: COORDINATE PDB         mobley_2929847.pdb
Info: Exclusions will be read from PARM file!
Info: SCNB (VDW SCALING)     2
Info: USING ARITHMETIC MEAN TO COMBINE L-J SIGMA PARAMETERS
Info: BINARY COORDINATES     mobley_2929847_min.coor
Info: SUMMARY OF PARAMETERS:
Info: 8 BONDS
Info: 9 ANGLES
Info:   9 HARMONIC
Info:   0 COSINE-BASED
Info: 10 DIHEDRAL
Info: 0 IMPROPER
Info: 0 CROSSTERM
Info: 0 VDW
Info: 28 VDW_PAIRS
Info: 0 NBTHOLE_PAIRS
Info: STRUCTURE SUMMARY:
Info: 2957 ATOMS
Info: 2956 BONDS
Info: 28 ANGLES
Info: 41 DIHEDRALS
Info: 0 IMPROPERS
Info: 0 CROSSTERMS
Info: 3019 EXCLUSIONS
Info: 2950 RIGID BONDS
Info: 5921 DEGREES OF FREEDOM
Info: 987 HYDROGEN GROUPS
Info: 4 ATOMS IN LARGEST HYDROGEN GROUP
Info: 987 MIGRATION GROUPS
Info: 4 ATOMS IN LARGEST MIGRATION GROUP
Info: TOTAL MASS = 17757.8 amu
Info: TOTAL CHARGE = 0.000100002 e
Info: MASS DENSITY = 0.659916 g/cm^3
Info: ATOM DENSITY = 0.0661746 atoms/A^3
Info: ADDED 0 IMPLICIT EXCLUSIONS
Info: NONBONDED TABLE R-SQUARED SPACING: 0.0625
Info: NONBONDED TABLE SIZE: 705 POINTS
Info: REMOVING COM VELOCITY 0.106854 0.00670546 0.00488278
TCL: Running for 100000 steps
ETITLE: TS BOND ANGLE DIHED IMPRP ELECT VDW BOUNDARY MISC KINETIC TOTAL TEMP POTENTIAL TOTAL3 TEMPAVG PRESSURE GPRESSURE VOLUME PRESSAVG GPRESSAVG
ENERGY: 0 0.0807 0.7661 1.4063 0.0000 -13619.6491 2365.4559 0.0000 0.0000 1756.4558 -9495.4842 298.5606 -11251.9400 -9495.1636 298.5606 188.3478 222.6672 44684.8126 188.3478 222.6672
ENERGY: 100000 0.4072 1.5899 1.5046 0.0000 -14197.1321 2394.7006 0.0000 0.0000 172.8210 -11626.1088 29.3759 -11798.9298 -11625.8265 30.9286 -767.1615 -704.9567 29141.9063 4.1613 4.2637
TCL: Running 100000 steps at 60 kelvin.
TCL: Setting parameter langevinTemp to 60
TCL: Running for 100000 steps
ETITLE: TS BOND ANGLE DIHED IMPRP ELECT VDW BOUNDARY MISC KINETIC TOTAL TEMP POTENTIAL TOTAL3 TEMPAVG PRESSURE GPRESSURE VOLUME PRESSAVG GPRESSAVG
ENERGY: 100000 0.4072 1.5899 1.5046 0.0000 -14197.1321 2394.7006 0.0000 0.0000 172.7329 -11626.1968 29.3610 -11798.9298 -11625.8207 29.3610 -766.6288 -705.2400 29141.9063 -766.6288 -705.2400
ENERGY: 200000 1.9904 1.9332 1.7759 0.0000 -14124.3310 2362.6439 0.0000 0.0000 349.1806 -11406.8070 59.3534 -11755.9876 -11405.4901 60.0263 -900.1647 -873.5923 28987.2237 4.6902 4.7352
TCL: Running 100000 steps at 90 kelvin.
TCL: Setting parameter langevinTemp to 90
TCL: Running for 100000 steps
ETITLE: TS BOND ANGLE DIHED IMPRP ELECT VDW BOUNDARY MISC KINETIC TOTAL TEMP POTENTIAL TOTAL3 TEMPAVG PRESSURE GPRESSURE VOLUME PRESSAVG GPRESSAVG
ENERGY: 200000 1.9904 1.9332 1.7759 0.0000 -14124.3310 2362.6439 0.0000 0.0000 349.0008 -11406.9868 59.3228 -11755.9876 -11406.2138 59.3228 -921.9990 -873.2339 28987.2237 -921.9990 -873.2339
ENERGY: 300000 1.3918 3.6547 3.1057 0.0000 -14047.4099 2395.8439 0.0000 0.0000 519.9462 -11123.4675 88.3799 -11643.4137 -11121.9304 89.8582 -120.9350 -90.9407 28867.8198 4.2096 4.2724
TCL: Running 100000 steps at 120 kelvin.
TCL: Setting parameter langevinTemp to 120
TCL: Running for 100000 steps
ETITLE: TS BOND ANGLE DIHED IMPRP ELECT VDW BOUNDARY MISC KINETIC TOTAL TEMP POTENTIAL TOTAL3 TEMPAVG PRESSURE GPRESSURE VOLUME PRESSAVG GPRESSAVG
ENERGY: 300000 1.3918 3.6547 3.1057 0.0000 -14047.4099 2395.8439 0.0000 0.0000 519.6939 -11123.7198 88.3371 -11643.4137 -11122.7039 88.3371 -131.3527 -90.7569 28867.8198 -131.3527 -90.7569
ENERGY: 400000 1.5877 2.4035 1.9545 0.0000 -13811.9475 2273.9904 0.0000 0.0000 691.3995 -10840.6118 117.5234 -11532.0114 -10838.7949 119.9845 -797.8901 -735.4835 28976.5376 4.0822 4.1251
TCL: Running 100000 steps at 150 kelvin.
TCL: Setting parameter langevinTemp to 150
TCL: Running for 100000 steps
ETITLE: TS BOND ANGLE DIHED IMPRP ELECT VDW BOUNDARY MISC KINETIC TOTAL TEMP POTENTIAL TOTAL3 TEMPAVG PRESSURE GPRESSURE VOLUME PRESSAVG GPRESSAVG
ENERGY: 400000 1.5877 2.4035 1.9545 0.0000 -13811.9475 2273.9904 0.0000 0.0000 691.0370 -10840.9744 117.4618 -11532.0114 -10839.5763 117.4618 -795.8539 -734.7559 28976.5376 -795.8539 -734.7559
ENERGY: 500000 0.7040 3.0524 2.6432 0.0000 -13690.3217 2328.4580 0.0000 0.0000 843.3027 -10512.1614 143.3438 -11355.4641 -10511.0852 149.7747 567.7859 605.3728 28704.9684 3.3861 3.4776
TCL: Running 100000 steps at 180 kelvin.
TCL: Setting parameter langevinTemp to 180
TCL: Running for 100000 steps
ETITLE: TS BOND ANGLE DIHED IMPRP ELECT VDW BOUNDARY MISC KINETIC TOTAL TEMP POTENTIAL TOTAL3 TEMPAVG PRESSURE GPRESSURE VOLUME PRESSAVG GPRESSAVG
ENERGY: 500000 0.7040 3.0524 2.6432 0.0000 -13690.3217 2328.4580 0.0000 0.0000 842.8731 -10512.5909 143.2707 -11355.4641 -10510.8153 143.2707 557.7802 604.4938 28704.9684 557.7802 604.4938
ENERGY: 600000 0.8758 3.5833 3.6270 0.0000 -13100.9320 2111.2384 0.0000 0.0000 1065.4499 -9916.1576 181.1041 -10981.6075 -9914.9498 180.1321 100.3408 187.5308 28869.4835 3.4417 3.4431
TCL: Running 100000 steps at 210 kelvin.
TCL: Setting parameter langevinTemp to 210
TCL: Running for 100000 steps
ETITLE: TS BOND ANGLE DIHED IMPRP ELECT VDW BOUNDARY MISC KINETIC TOTAL TEMP POTENTIAL TOTAL3 TEMPAVG PRESSURE GPRESSURE VOLUME PRESSAVG GPRESSAVG
ENERGY: 600000 0.8758 3.5833 3.6270 0.0000 -13100.9320 2111.2384 0.0000 0.0000 1064.9280 -9916.6795 181.0154 -10981.6075 -9915.0868 181.0154 110.0104 186.3725 28869.4835 110.0104 186.3725
ENERGY: 700000 0.9316 6.1927 1.8830 0.0000 -12483.2873 1934.7051 0.0000 0.0000 1251.3166 -9288.2585 212.6976 -10539.5751 -9284.8217 210.1816 820.6174 960.3671 28076.2504 4.1629 4.1380
TCL: Running 100000 steps at 240 kelvin.
TCL: Setting parameter langevinTemp to 240
TCL: Running for 100000 steps
ETITLE: TS BOND ANGLE DIHED IMPRP ELECT VDW BOUNDARY MISC KINETIC TOTAL TEMP POTENTIAL TOTAL3 TEMPAVG PRESSURE GPRESSURE VOLUME PRESSAVG GPRESSAVG
ENERGY: 700000 0.9316 6.1927 1.8830 0.0000 -12483.2873 1934.7051 0.0000 0.0000 1250.7073 -9288.8677 212.5940 -10539.5751 -9286.6618 212.5940 889.0234 960.6640 28076.2504 889.0234 960.6640
ENERGY: 800000 1.6086 6.6243 2.0463 0.0000 -11862.2471 1775.3604 0.0000 0.0000 1424.0375 -8652.5699 242.0565 -10076.6074 -8650.7590 239.5334 568.2239 641.8887 29171.4151 3.8148 3.9065
TCL: Running 100000 steps at 270 kelvin.
TCL: Setting parameter langevinTemp to 270
TCL: Running for 100000 steps
ETITLE: TS BOND ANGLE DIHED IMPRP ELECT VDW BOUNDARY MISC KINETIC TOTAL TEMP POTENTIAL TOTAL3 TEMPAVG PRESSURE GPRESSURE VOLUME PRESSAVG GPRESSAVG
ENERGY: 800000 1.6086 6.6243 2.0463 0.0000 -11862.2471 1775.3604 0.0000 0.0000 1423.3557 -8653.2517 241.9406 -10076.6074 -8650.7033 241.9406 559.5397 640.0876 29171.4151 559.5397 640.0876
ENERGY: 900000 0.3870 10.8268 2.1524 0.0000 -11371.4720 1617.8573 0.0000 0.0000 1616.3787 -8123.8698 274.7505 -9740.2485 -8119.4011 269.2098 223.9715 287.8382 29640.1169 3.6555 3.7249
TCL: Running 1000000 steps at 300 kelvin.
TCL: Setting parameter langevinTemp to 300
TCL: Running for 1000000 steps
ETITLE: TS BOND ANGLE DIHED IMPRP ELECT VDW BOUNDARY MISC KINETIC TOTAL TEMP POTENTIAL TOTAL3 TEMPAVG PRESSURE GPRESSURE VOLUME PRESSAVG GPRESSAVG
ENERGY: 900000 0.3870 10.8268 2.1524 0.0000 -11371.4720 1617.8573 0.0000 0.0000 1615.5576 -8124.6910 274.6109 -9740.2485 -8122.5079 274.6109 205.4524 287.9221 29640.1169 205.4524 287.9221
ENERGY: 1100000 0.9030 7.9150 1.7254 0.0000 -10692.2632 1393.6007 0.0000 0.0000 1751.5935 -7536.5256 297.7341 -9288.1191 -7531.3656 300.1373 -437.2799 -343.9646 30474.3848 3.7448 3.6296
ENERGY: 1300000 1.0545 5.5762 8.1026 0.0000 -10628.7415 1321.6898 0.0000 0.0000 1740.0235 -7552.2949 295.7675 -9292.3184 -7547.9504 299.9018 -1065.6246 -947.0401 30613.3083 3.9680 3.7799
ENERGY: 1500000 2.7062 6.2005 2.0190 0.0000 -10734.7594 1459.2716 0.0000 0.0000 1793.3390 -7471.2231 304.8300 -9264.5621 -7469.1381 300.5083 237.9125 253.0892 30304.8046 4.0215 4.0068
ENERGY: 1700000 2.1724 7.9878 2.5215 0.0000 -10818.6124 1494.9969 0.0000 0.0000 1697.6086 -7613.3251 288.5579 -9310.9337 -7608.6011 300.1086 168.1786 297.7471 30722.0334 3.5196 3.5995
ENERGY: 1900000 0.7386 12.0991 3.2460 0.0000 -10910.5127 1504.8076 0.0000 0.0000 1744.5326 -7645.0889 296.5339 -9389.6215 -7641.5675 299.9103 306.2680 398.7539 30295.1781 3.3304 3.4352
TCL: Exiting due to exit command.
