Info: SIMULATION PARAMETERS:
Info: TIMESTEP               2
Info: NUMBER OF STEPS        0
Info: STEPS PER CYCLE        10
Info: PERIODIC CELL BASIS 1  32.955 0 0
Info: PERIODIC CELL BASIS 2  0 40.343 0
Info: PERIODIC CELL BASIS 3  0 0 31.349
Info: PERIODIC CELL CENTER   0 0 0
Info: WRAPPING WATERS AROUND PERIODIC BOUNDARIES ON OUTPUT.
Info: WRAPPING ALL CLUSTERS AROUND PERIODIC BOUNDARIES ON OUTPUT.
Info: FIRST LDB TIMESTEP     50
Info: LAST LDB TIMESTEP     -1
Info: HOM BACKGROUND SCALING 1
Info: PME BACKGROUND SCALING 1
Info: MIN ATOMS PER PATCH    40
Info: EMPTY PATCH LOAD       40 ATOMS
Info: INITIAL TEMPERATURE    300
Info: CENTER OF MASS MOVING INITIALLY? NO
Info: DIELECTRIC             1
Info: EXCLUDE                SCALED ONE-FOUR
Info: 1-4 ELECTROSTATICS SCALED BY 0.833333
Info: MODIFIED 1-4 VDW PARAMETERS WILL BE USED
Info: DCD FILENAME           mobley_7608435_equil.dcd
Info: DCD FREQUENCY          100000
Info: DCD FIRST STEP         100000
Info: DCD FILE WILL CONTAIN UNIT CELL DATA
Info: XST FILENAME           mobley_7608435_equil.xst
Info: XST FREQUENCY          100000
Info: NO VELOCITY DCD OUTPUT
Info: NO FORCE DCD OUTPUT
Info: OUTPUT FILENAME        mobley_7608435_equil
Info: BINARY OUTPUT FILES WILL BE USED
Info: RESTART FILENAME       mobley_7608435_equil.restart
Info: RESTART FREQUENCY      100000
Info: BINARY RESTART FILES WILL BE USED
Info: CUTOFF                 9
Info: PAIRLIST DISTANCE      11
Info: PAIRLIST SHRINK RATE   0.01
Info: PAIRLIST GROW RATE     0.01
Info: PAIRLIST TRIGGER       0.3
Info: PAIRLISTS PER CYCLE    2
Info: PAIRLISTS ENABLED
Info: MARGIN                 8
Info: HYDROGEN GROUP CUTOFF  2.5
Info: PATCH DIMENSION        21.5
Info: ENERGY OUTPUT STEPS    100000
Info: ENERGY EVALUATION STEPS    100000
Info: OUTPUT ENERGY PRECISION 4
Info: CROSSTERM ENERGY INCLUDED IN DIHEDRAL
Info: TIMING OUTPUT STEPS    1000000
Info: PRESSURE OUTPUT STEPS  100000
Info: LANGEVIN DYNAMICS ACTIVE
Info: LANGEVIN TEMPERATURE   30
Info: LANGEVIN USING BBK INTEGRATOR
Info: LANGEVIN DAMPING COEFFICIENT IS 1 INVERSE PS
Info: LANGEVIN DYNAMICS APPLIED TO HYDROGENS
Info: LANGEVIN PISTON PRESSURE CONTROL ACTIVE
Info:        TARGET PRESSURE IS 1.01325 BAR
Info:     OSCILLATION PERIOD IS 50 FS
Info:             DECAY TIME IS 25 FS
Info:     PISTON TEMPERATURE IS 300 K
Info:       PRESSURE CONTROL IS GROUP-BASED
Info:    INITIAL STRAIN RATE IS 0 0 0
Info:       CELL FLUCTUATION IS ISOTROPIC
Info: PARTICLE MESH EWALD (PME) ACTIVE
Info: PME TOLERANCE               1e-06
Info: PME EWALD COEFFICIENT       0.348832
Info: PME INTERPOLATION ORDER     4
Info: PME GRID DIMENSIONS         36 44 32
Info: PME MAXIMUM GRID SPACING    1
Info: FULL ELECTROSTATIC EVALUATION FREQUENCY      2
Info: USING VERLET I (r-RESPA) MTS SCHEME.
Info: C1 SPLITTING OF LONG RANGE ELECTROSTATICS
Info: PLACING ATOMS IN PATCHES BY HYDROGEN GROUPS
Info: RIGID BONDS TO HYDROGEN : ALL
Info:         ERROR TOLERANCE : 1e-08
Info:          MAX ITERATIONS : 100
Info: RIGID WATER USING SETTLE ALGORITHM
Info: RANDOM NUMBER SEED     1743262679
Info: USE HYDROGEN BONDS?    NO
Info: Using AMBER format force field!
Info: AMBER PARM FILE        mobley_7608435.prmtop
Info: COORDINATE PDB         mobley_7608435.pdb
Info: Exclusions will be read from PARM file!
Info: SCNB (VDW SCALING)     2
Info: USING ARITHMETIC MEAN TO COMBINE L-J SIGMA PARAMETERS
Info: BINARY COORDINATES     mobley_7608435_min.coor
Info: SUMMARY OF PARAMETERS:
Info: 9 BONDS
Info: 11 ANGLES
Info:   11 HARMONIC
Info:   0 COSINE-BASED
Info: 16 DIHEDRAL
Info: 0 IMPROPER
Info: 0 CROSSTERM
Info: 0 VDW
Info: 36 VDW_PAIRS
Info: 0 NBTHOLE_PAIRS
Info: STRUCTURE SUMMARY:
Info: 2924 ATOMS
Info: 2923 BONDS
Info: 52 ANGLES
Info: 81 DIHEDRALS
Info: 0 IMPROPERS
Info: 0 CROSSTERMS
Info: 3040 EXCLUSIONS
Info: 2913 RIGID BONDS
Info: 5859 DEGREES OF FREEDOM
Info: 976 HYDROGEN GROUPS
Info: 4 ATOMS IN LARGEST HYDROGEN GROUP
Info: 976 MIGRATION GROUPS
Info: 4 ATOMS IN LARGEST MIGRATION GROUP
Info: TOTAL MASS = 17543.7 amu
Info: TOTAL CHARGE = 9.99831e-05 e
Info: MASS DENSITY = 0.698983 g/cm^3
Info: ATOM DENSITY = 0.0701559 atoms/A^3
Info: ADDED 0 IMPLICIT EXCLUSIONS
Info: NONBONDED TABLE R-SQUARED SPACING: 0.0625
Info: NONBONDED TABLE SIZE: 705 POINTS
Info: REMOVING COM VELOCITY -0.120199 0.207342 0.0171927
TCL: Running for 100000 steps
ETITLE: TS BOND ANGLE DIHED IMPRP ELECT VDW BOUNDARY MISC KINETIC TOTAL TEMP POTENTIAL TOTAL3 TEMPAVG PRESSURE GPRESSURE VOLUME PRESSAVG GPRESSAVG
ENERGY: 0 0.2076 0.4773 2.6272 0.0000 -13496.6985 2330.2021 0.0000 0.0000 1811.5230 -9351.6614 311.1793 -11163.1843 -9351.2803 311.1793 42.7437 76.1330 41678.6073 42.7437 76.1330
ENERGY: 100000 1.1848 1.8023 2.8421 0.0000 -13973.4130 2379.2453 0.0000 0.0000 174.7517 -11413.5868 30.0184 -11588.3385 -11413.2957 30.8882 -635.0499 -550.4339 28971.9665 4.3420 4.2893
TCL: Running 100000 steps at 60 kelvin.
TCL: Setting parameter langevinTemp to 60
TCL: Running for 100000 steps
ETITLE: TS BOND ANGLE DIHED IMPRP ELECT VDW BOUNDARY MISC KINETIC TOTAL TEMP POTENTIAL TOTAL3 TEMPAVG PRESSURE GPRESSURE VOLUME PRESSAVG GPRESSAVG
ENERGY: 100000 1.1848 1.8023 2.8421 0.0000 -13973.4130 2379.2453 0.0000 0.0000 174.6634 -11413.6752 30.0033 -11588.3385 -11413.3113 30.0033 -600.4111 -550.5452 28971.9665 -600.4111 -550.5452
ENERGY: 200000 1.1709 2.7961 2.9297 0.0000 -13868.8628 2338.4829 0.0000 0.0000 347.9044 -11175.5789 59.7622 -11523.4833 -11174.8198 60.0389 -483.5877 -435.7486 28643.8563 3.5962 3.7036
TCL: Running 100000 steps at 90 kelvin.
TCL: Setting parameter langevinTemp to 90
TCL: Running for 100000 steps
ETITLE: TS BOND ANGLE DIHED IMPRP ELECT VDW BOUNDARY MISC KINETIC TOTAL TEMP POTENTIAL TOTAL3 TEMPAVG PRESSURE GPRESSURE VOLUME PRESSAVG GPRESSAVG
ENERGY: 200000 1.1709 2.7961 2.9297 0.0000 -13868.8628 2338.4829 0.0000 0.0000 347.7344 -11175.7488 59.7330 -11523.4833 -11174.9524 59.7330 -485.4618 -436.0382 28643.8563 -485.4618 -436.0382
ENERGY: 300000 1.1053 5.8786 3.0615 0.0000 -13825.1945 2391.5855 0.0000 0.0000 507.3683 -10916.1953 87.1546 -11423.5636 -10915.0807 90.0195 406.2280 484.7576 28377.4085 5.1348 5.3011
TCL: Running 100000 steps at 120 kelvin.
TCL: Setting parameter langevinTemp to 120
TCL: Running for 100000 steps
ETITLE: TS BOND ANGLE DIHED IMPRP ELECT VDW BOUNDARY MISC KINETIC TOTAL TEMP POTENTIAL TOTAL3 TEMPAVG PRESSURE GPRESSURE VOLUME PRESSAVG GPRESSAVG
ENERGY: 300000 1.1053 5.8786 3.0615 0.0000 -13825.1945 2391.5855 0.0000 0.0000 507.1024 -10916.4612 87.1089 -11423.5636 -10915.7739 87.1089 434.6309 485.2122 28377.4085 434.6309 485.2122
ENERGY: 400000 0.7974 4.9214 3.1906 0.0000 -13601.3916 2306.0546 0.0000 0.0000 710.8324 -10575.5951 122.1052 -11286.4275 -10574.0402 120.0947 242.0888 307.2482 28418.8965 4.0805 4.0939
TCL: Running 100000 steps at 150 kelvin.
TCL: Setting parameter langevinTemp to 150
TCL: Running for 100000 steps
ETITLE: TS BOND ANGLE DIHED IMPRP ELECT VDW BOUNDARY MISC KINETIC TOTAL TEMP POTENTIAL TOTAL3 TEMPAVG PRESSURE GPRESSURE VOLUME PRESSAVG GPRESSAVG
ENERGY: 400000 0.7974 4.9214 3.1906 0.0000 -13601.3916 2306.0546 0.0000 0.0000 710.4883 -10575.9393 122.0461 -11286.4275 -10574.4681 122.0461 240.0117 306.7072 28418.8965 240.0117 306.7072
ENERGY: 500000 1.3771 4.1107 4.4119 0.0000 -13241.0525 2057.8480 0.0000 0.0000 862.1337 -10311.1711 148.0954 -11173.3047 -10308.0170 150.0672 -1334.6761 -1309.0540 28383.4168 3.4531 3.5362
TCL: Running 100000 steps at 180 kelvin.
TCL: Setting parameter langevinTemp to 180
TCL: Running for 100000 steps
ETITLE: TS BOND ANGLE DIHED IMPRP ELECT VDW BOUNDARY MISC KINETIC TOTAL TEMP POTENTIAL TOTAL3 TEMPAVG PRESSURE GPRESSURE VOLUME PRESSAVG GPRESSAVG
ENERGY: 500000 1.3771 4.1107 4.4119 0.0000 -13241.0525 2057.8480 0.0000 0.0000 861.7064 -10311.5984 148.0220 -11173.3047 -10309.3006 148.0220 -1372.5800 -1308.7027 28383.4168 -1372.5800 -1308.7027
ENERGY: 600000 2.6888 6.4195 4.7166 0.0000 -12871.9221 2044.4351 0.0000 0.0000 1050.3751 -9763.2871 180.4311 -10813.6622 -9759.6100 179.7265 39.5057 173.7630 28124.4793 2.9611 3.0049
TCL: Running 100000 steps at 210 kelvin.
TCL: Setting parameter langevinTemp to 210
TCL: Running for 100000 steps
ETITLE: TS BOND ANGLE DIHED IMPRP ELECT VDW BOUNDARY MISC KINETIC TOTAL TEMP POTENTIAL TOTAL3 TEMPAVG PRESSURE GPRESSURE VOLUME PRESSAVG GPRESSAVG
ENERGY: 600000 2.6888 6.4195 4.7166 0.0000 -12871.9221 2044.4351 0.0000 0.0000 1049.8491 -9763.8130 180.3407 -10813.6622 -9761.3403 180.3407 109.7493 174.4932 28124.4793 109.7493 174.4932
ENERGY: 700000 5.8979 9.6408 4.5631 0.0000 -12364.2896 1942.1534 0.0000 0.0000 1260.6245 -9141.4099 216.5472 -10402.0344 -9139.0196 210.1279 591.0684 626.2387 28308.8092 4.8160 4.7442
TCL: Running 100000 steps at 240 kelvin.
TCL: Setting parameter langevinTemp to 240
TCL: Running for 100000 steps
ETITLE: TS BOND ANGLE DIHED IMPRP ELECT VDW BOUNDARY MISC KINETIC TOTAL TEMP POTENTIAL TOTAL3 TEMPAVG PRESSURE GPRESSURE VOLUME PRESSAVG GPRESSAVG
ENERGY: 700000 5.8979 9.6408 4.5631 0.0000 -12364.2896 1942.1534 0.0000 0.0000 1260.0204 -9142.0139 216.4435 -10402.0344 -9140.3577 216.4435 558.4988 625.9351 28308.8092 558.4988 625.9351
ENERGY: 800000 3.8506 13.6849 5.8522 0.0000 -11494.6552 1604.4381 0.0000 0.0000 1392.5538 -8474.2755 239.2097 -9866.8293 -8471.7257 239.5598 -447.2631 -418.1998 28645.0152 3.2508 3.3521
TCL: Running 100000 steps at 270 kelvin.
TCL: Setting parameter langevinTemp to 270
TCL: Running for 100000 steps
ETITLE: TS BOND ANGLE DIHED IMPRP ELECT VDW BOUNDARY MISC KINETIC TOTAL TEMP POTENTIAL TOTAL3 TEMPAVG PRESSURE GPRESSURE VOLUME PRESSAVG GPRESSAVG
ENERGY: 800000 3.8506 13.6849 5.8522 0.0000 -11494.6552 1604.4381 0.0000 0.0000 1391.8934 -8474.9359 239.0963 -9866.8293 -8472.3769 239.0963 -503.4791 -420.8875 28645.0152 -503.4791 -420.8875
ENERGY: 900000 4.6779 8.7495 6.5556 0.0000 -10996.8582 1462.5593 0.0000 0.0000 1602.2182 -7912.0977 275.2254 -9514.3159 -7908.6316 270.2504 -663.8462 -585.5703 29514.7016 2.4734 2.6226
TCL: Running 1000000 steps at 300 kelvin.
TCL: Setting parameter langevinTemp to 300
TCL: Running for 1000000 steps
ETITLE: TS BOND ANGLE DIHED IMPRP ELECT VDW BOUNDARY MISC KINETIC TOTAL TEMP POTENTIAL TOTAL3 TEMPAVG PRESSURE GPRESSURE VOLUME PRESSAVG GPRESSAVG
ENERGY: 900000 4.6779 8.7495 6.5556 0.0000 -10996.8582 1462.5593 0.0000 0.0000 1601.4873 -7912.8286 275.0999 -9514.3159 -7909.7370 275.0999 -667.9711 -584.8487 29514.7016 -667.9711 -584.8487
ENERGY: 1100000 3.7407 16.0609 5.8140 0.0000 -10570.0427 1404.7435 0.0000 0.0000 1717.4711 -7422.2126 295.0233 -9139.6836 -7418.8412 300.5018 -284.9807 -123.7025 30272.4273 2.0831 2.0415
ENERGY: 1300000 3.9631 14.5967 5.8625 0.0000 -10588.8439 1408.3464 0.0000 0.0000 1689.4048 -7466.6703 290.2021 -9156.0751 -7462.1415 300.0148 -324.0889 -246.3140 30419.0794 4.4818 4.3556
ENERGY: 1500000 4.9223 13.9082 4.8374 0.0000 -10476.0907 1338.7302 0.0000 0.0000 1763.3034 -7350.3892 302.8963 -9113.6926 -7347.3291 300.1859 -403.4972 -379.9450 30107.9772 2.7276 2.5989
ENERGY: 1700000 4.2145 17.8735 4.6698 0.0000 -10600.5545 1446.3891 0.0000 0.0000 1744.1487 -7383.2590 299.6059 -9127.4076 -7380.4160 300.5402 329.5524 393.3364 29850.3631 3.3088 2.9591
ENERGY: 1900000 6.1057 12.8087 7.6290 0.0000 -10571.9282 1403.6954 0.0000 0.0000 1749.2345 -7392.4549 300.4796 -9141.6894 -7390.1294 299.8460 -240.5606 -173.4426 30304.6749 3.4030 3.2553
TCL: Exiting due to exit command.
