Info: SIMULATION PARAMETERS:
Info: TIMESTEP               2
Info: NUMBER OF STEPS        0
Info: STEPS PER CYCLE        10
Info: PERIODIC CELL BASIS 1  34.986 0 0
Info: PERIODIC CELL BASIS 2  0 33.314 0
Info: PERIODIC CELL BASIS 3  0 0 37.451
Info: PERIODIC CELL CENTER   0 0 0
Info: WRAPPING WATERS AROUND PERIODIC BOUNDARIES ON OUTPUT.
Info: WRAPPING ALL CLUSTERS AROUND PERIODIC BOUNDARIES ON OUTPUT.
Info: FIRST LDB TIMESTEP     50
Info: LAST LDB TIMESTEP     -1
Info: HOM BACKGROUND SCALING 1
Info: PME BACKGROUND SCALING 1
Info: MIN ATOMS PER PATCH    40
Info: EMPTY PATCH LOAD       40 ATOMS
Info: INITIAL TEMPERATURE    300
Info: CENTER OF MASS MOVING INITIALLY? NO
Info: DIELECTRIC             1
Info: EXCLUDE                SCALED ONE-FOUR
Info: 1-4 ELECTROSTATICS SCALED BY 0.833333
Info: MODIFIED 1-4 VDW PARAMETERS WILL BE USED
Info: DCD FILENAME           mobley_486214_equil.dcd
Info: DCD FREQUENCY          100000
Info: DCD FIRST STEP         100000
Info: DCD FILE WILL CONTAIN UNIT CELL DATA
Info: XST FILENAME           mobley_486214_equil.xst
Info: XST FREQUENCY          100000
Info: NO VELOCITY DCD OUTPUT
Info: NO FORCE DCD OUTPUT
Info: OUTPUT FILENAME        mobley_486214_equil
Info: BINARY OUTPUT FILES WILL BE USED
Info: RESTART FILENAME       mobley_486214_equil.restart
Info: RESTART FREQUENCY      100000
Info: BINARY RESTART FILES WILL BE USED
Info: CUTOFF                 9
Info: PAIRLIST DISTANCE      11
Info: PAIRLIST SHRINK RATE   0.01
Info: PAIRLIST GROW RATE     0.01
Info: PAIRLIST TRIGGER       0.3
Info: PAIRLISTS PER CYCLE    2
Info: PAIRLISTS ENABLED
Info: MARGIN                 8
Info: HYDROGEN GROUP CUTOFF  2.5
Info: PATCH DIMENSION        21.5
Info: ENERGY OUTPUT STEPS    100000
Info: ENERGY EVALUATION STEPS    100000
Info: OUTPUT ENERGY PRECISION 4
Info: CROSSTERM ENERGY INCLUDED IN DIHEDRAL
Info: TIMING OUTPUT STEPS    1000000
Info: PRESSURE OUTPUT STEPS  100000
Info: LANGEVIN DYNAMICS ACTIVE
Info: LANGEVIN TEMPERATURE   30
Info: LANGEVIN USING BBK INTEGRATOR
Info: LANGEVIN DAMPING COEFFICIENT IS 1 INVERSE PS
Info: LANGEVIN DYNAMICS APPLIED TO HYDROGENS
Info: LANGEVIN PISTON PRESSURE CONTROL ACTIVE
Info:        TARGET PRESSURE IS 1.01325 BAR
Info:     OSCILLATION PERIOD IS 50 FS
Info:             DECAY TIME IS 25 FS
Info:     PISTON TEMPERATURE IS 300 K
Info:       PRESSURE CONTROL IS GROUP-BASED
Info:    INITIAL STRAIN RATE IS 0 0 0
Info:       CELL FLUCTUATION IS ISOTROPIC
Info: PARTICLE MESH EWALD (PME) ACTIVE
Info: PME TOLERANCE               1e-06
Info: PME EWALD COEFFICIENT       0.348832
Info: PME INTERPOLATION ORDER     4
Info: PME GRID DIMENSIONS         36 36 40
Info: PME MAXIMUM GRID SPACING    1
Info: FULL ELECTROSTATIC EVALUATION FREQUENCY      2
Info: USING VERLET I (r-RESPA) MTS SCHEME.
Info: C1 SPLITTING OF LONG RANGE ELECTROSTATICS
Info: PLACING ATOMS IN PATCHES BY HYDROGEN GROUPS
Info: RIGID BONDS TO HYDROGEN : ALL
Info:         ERROR TOLERANCE : 1e-08
Info:          MAX ITERATIONS : 100
Info: RIGID WATER USING SETTLE ALGORITHM
Info: RANDOM NUMBER SEED     1743243898
Info: USE HYDROGEN BONDS?    NO
Info: Using AMBER format force field!
Info: AMBER PARM FILE        mobley_486214.prmtop
Info: COORDINATE PDB         mobley_486214.pdb
Info: Exclusions will be read from PARM file!
Info: SCNB (VDW SCALING)     2
Info: USING ARITHMETIC MEAN TO COMBINE L-J SIGMA PARAMETERS
Info: BINARY COORDINATES     mobley_486214_min.coor
Info: SUMMARY OF PARAMETERS:
Info: 9 BONDS
Info: 8 ANGLES
Info:   8 HARMONIC
Info:   0 COSINE-BASED
Info: 4 DIHEDRAL
Info: 0 IMPROPER
Info: 0 CROSSTERM
Info: 0 VDW
Info: 36 VDW_PAIRS
Info: 0 NBTHOLE_PAIRS
Info: STRUCTURE SUMMARY:
Info: 2916 ATOMS
Info: 2916 BONDS
Info: 33 ANGLES
Info: 42 DIHEDRALS
Info: 0 IMPROPERS
Info: 0 CROSSTERMS
Info: 2982 EXCLUSIONS
Info: 2905 RIGID BONDS
Info: 5843 DEGREES OF FREEDOM
Info: 976 HYDROGEN GROUPS
Info: 4 ATOMS IN LARGEST HYDROGEN GROUP
Info: 976 MIGRATION GROUPS
Info: 4 ATOMS IN LARGEST MIGRATION GROUP
Info: TOTAL MASS = 17539.6 amu
Info: TOTAL CHARGE = 0.000300005 e
Info: MASS DENSITY = 0.667259 g/cm^3
Info: ATOM DENSITY = 0.0668041 atoms/A^3
Info: ADDED 0 IMPLICIT EXCLUSIONS
Info: NONBONDED TABLE R-SQUARED SPACING: 0.0625
Info: NONBONDED TABLE SIZE: 705 POINTS
Info: REMOVING COM VELOCITY -0.145653 -0.0471582 0.153291
TCL: Running for 100000 steps
ETITLE: TS BOND ANGLE DIHED IMPRP ELECT VDW BOUNDARY MISC KINETIC TOTAL TEMP POTENTIAL TOTAL3 TEMPAVG PRESSURE GPRESSURE VOLUME PRESSAVG GPRESSAVG
ENERGY: 0 0.3349 1.2745 3.4897 0.0000 -13450.1609 2370.2445 0.0000 0.0000 1709.6915 -9365.1258 294.4912 -11074.8173 -9364.7830 294.4912 462.2058 495.9473 43650.0245 462.2058 495.9473
ENERGY: 100000 0.7443 2.5298 4.1408 0.0000 -13975.6464 2378.2807 0.0000 0.0000 176.0400 -11413.9107 30.3226 -11589.9507 -11413.4888 30.8781 -571.9397 -544.6924 28345.1022 4.6139 4.5786
TCL: Running 100000 steps at 60 kelvin.
TCL: Setting parameter langevinTemp to 60
TCL: Running for 100000 steps
ETITLE: TS BOND ANGLE DIHED IMPRP ELECT VDW BOUNDARY MISC KINETIC TOTAL TEMP POTENTIAL TOTAL3 TEMPAVG PRESSURE GPRESSURE VOLUME PRESSAVG GPRESSAVG
ENERGY: 100000 0.7443 2.5298 4.1408 0.0000 -13975.6464 2378.2807 0.0000 0.0000 175.9558 -11413.9949 30.3081 -11589.9507 -11413.6058 30.3081 -590.6903 -544.8932 28345.1022 -590.6903 -544.8932
ENERGY: 200000 1.4106 3.4952 1.4987 0.0000 -14014.3235 2484.0878 0.0000 0.0000 339.3162 -11184.5151 58.4466 -11523.8313 -11183.3348 60.0844 537.4663 600.2873 28380.2459 1.7921 1.8047
TCL: Running 100000 steps at 90 kelvin.
TCL: Setting parameter langevinTemp to 90
TCL: Running for 100000 steps
ETITLE: TS BOND ANGLE DIHED IMPRP ELECT VDW BOUNDARY MISC KINETIC TOTAL TEMP POTENTIAL TOTAL3 TEMPAVG PRESSURE GPRESSURE VOLUME PRESSAVG GPRESSAVG
ENERGY: 200000 1.4106 3.4952 1.4987 0.0000 -14014.3235 2484.0878 0.0000 0.0000 339.1489 -11184.6824 58.4178 -11523.8313 -11184.1651 58.4178 544.0491 600.6029 28380.2459 544.0491 600.6029
ENERGY: 300000 1.3672 3.5239 2.4355 0.0000 -13740.3240 2343.3037 0.0000 0.0000 502.1691 -10887.5246 86.4977 -11389.6937 -10886.3719 89.8471 -408.4234 -347.6322 28849.0404 2.9425 2.8886
TCL: Running 100000 steps at 120 kelvin.
TCL: Setting parameter langevinTemp to 120
TCL: Running for 100000 steps
ETITLE: TS BOND ANGLE DIHED IMPRP ELECT VDW BOUNDARY MISC KINETIC TOTAL TEMP POTENTIAL TOTAL3 TEMPAVG PRESSURE GPRESSURE VOLUME PRESSAVG GPRESSAVG
ENERGY: 300000 1.3672 3.5239 2.4355 0.0000 -13740.3240 2343.3037 0.0000 0.0000 501.9235 -10887.7702 86.4554 -11389.6937 -10886.8193 86.4554 -402.9272 -347.2115 28849.0404 -402.9272 -347.2115
ENERGY: 400000 1.6501 4.0512 2.8325 0.0000 -13495.7811 2225.6527 0.0000 0.0000 683.4713 -10578.1235 117.7266 -11261.5947 -10575.6813 119.9435 -662.3341 -616.1728 28559.3089 4.8740 4.8730
TCL: Running 100000 steps at 150 kelvin.
TCL: Setting parameter langevinTemp to 150
TCL: Running for 100000 steps
ETITLE: TS BOND ANGLE DIHED IMPRP ELECT VDW BOUNDARY MISC KINETIC TOTAL TEMP POTENTIAL TOTAL3 TEMPAVG PRESSURE GPRESSURE VOLUME PRESSAVG GPRESSAVG
ENERGY: 400000 1.6501 4.0512 2.8325 0.0000 -13495.7811 2225.6527 0.0000 0.0000 683.1117 -10578.4830 117.6647 -11261.5947 -10576.9836 117.6647 -680.1171 -615.9419 28559.3089 -680.1171 -615.9419
ENERGY: 500000 3.4032 2.3424 6.0536 0.0000 -13368.7844 2247.1734 0.0000 0.0000 861.5543 -10248.2575 148.4011 -11109.8118 -10246.6451 149.9828 -154.6389 -97.5898 28879.5186 2.9511 2.9790
TCL: Running 100000 steps at 180 kelvin.
TCL: Setting parameter langevinTemp to 180
TCL: Running for 100000 steps
ETITLE: TS BOND ANGLE DIHED IMPRP ELECT VDW BOUNDARY MISC KINETIC TOTAL TEMP POTENTIAL TOTAL3 TEMPAVG PRESSURE GPRESSURE VOLUME PRESSAVG GPRESSAVG
ENERGY: 500000 3.4032 2.3424 6.0536 0.0000 -13368.7844 2247.1734 0.0000 0.0000 861.1087 -10248.7030 148.3244 -11109.8118 -10246.7956 148.3244 -168.0696 -97.4669 28879.5186 -168.0696 -97.4669
ENERGY: 600000 1.9363 7.0190 3.4104 0.0000 -13028.2398 2123.5415 0.0000 0.0000 1042.8956 -9849.4370 179.6368 -10892.3326 -9845.9233 180.2086 -2.4283 53.0686 28685.3747 4.9486 4.8594
TCL: Running 100000 steps at 210 kelvin.
TCL: Setting parameter langevinTemp to 210
TCL: Running for 100000 steps
ETITLE: TS BOND ANGLE DIHED IMPRP ELECT VDW BOUNDARY MISC KINETIC TOTAL TEMP POTENTIAL TOTAL3 TEMPAVG PRESSURE GPRESSURE VOLUME PRESSAVG GPRESSAVG
ENERGY: 600000 1.9363 7.0190 3.4104 0.0000 -13028.2398 2123.5415 0.0000 0.0000 1042.4197 -9849.9128 179.5548 -10892.3326 -9847.9667 179.5548 -5.9728 53.3175 28685.3747 -5.9728 53.3175
ENERGY: 700000 1.3034 9.3035 3.9462 0.0000 -12233.7609 1916.2159 0.0000 0.0000 1207.2956 -9095.6962 207.9544 -10302.9918 -9092.3973 210.1186 344.0503 424.8633 28547.7160 3.1010 2.9278
TCL: Running 100000 steps at 240 kelvin.
TCL: Setting parameter langevinTemp to 240
TCL: Running for 100000 steps
ETITLE: TS BOND ANGLE DIHED IMPRP ELECT VDW BOUNDARY MISC KINETIC TOTAL TEMP POTENTIAL TOTAL3 TEMPAVG PRESSURE GPRESSURE VOLUME PRESSAVG GPRESSAVG
ENERGY: 700000 1.3034 9.3035 3.9462 0.0000 -12233.7609 1916.2159 0.0000 0.0000 1206.6803 -9096.3115 207.8484 -10302.9918 -9093.8488 207.8484 352.6191 425.0122 28547.7160 352.6191 425.0122
ENERGY: 800000 2.2837 4.3164 8.0076 0.0000 -11510.4927 1605.2179 0.0000 0.0000 1375.3081 -8515.3591 236.8942 -9890.6672 -8511.8118 240.3189 -552.6162 -480.2903 28760.1291 3.3807 3.4005
TCL: Running 100000 steps at 270 kelvin.
TCL: Setting parameter langevinTemp to 270
TCL: Running for 100000 steps
ETITLE: TS BOND ANGLE DIHED IMPRP ELECT VDW BOUNDARY MISC KINETIC TOTAL TEMP POTENTIAL TOTAL3 TEMPAVG PRESSURE GPRESSURE VOLUME PRESSAVG GPRESSAVG
ENERGY: 800000 2.2837 4.3164 8.0076 0.0000 -11510.4927 1605.2179 0.0000 0.0000 1374.6272 -8516.0400 236.7770 -9890.6672 -8513.9636 236.7770 -579.4878 -481.0397 28760.1291 -579.4878 -481.0397
ENERGY: 900000 2.9915 9.9807 6.5211 0.0000 -11179.4672 1608.6494 0.0000 0.0000 1558.5563 -7992.7682 268.4584 -9551.3245 -7990.4805 269.7810 659.1648 829.1791 28784.2148 3.3528 3.3223
TCL: Running 1000000 steps at 300 kelvin.
TCL: Setting parameter langevinTemp to 300
TCL: Running for 1000000 steps
ETITLE: TS BOND ANGLE DIHED IMPRP ELECT VDW BOUNDARY MISC KINETIC TOTAL TEMP POTENTIAL TOTAL3 TEMPAVG PRESSURE GPRESSURE VOLUME PRESSAVG GPRESSAVG
ENERGY: 900000 2.9915 9.9807 6.5211 0.0000 -11179.4672 1608.6494 0.0000 0.0000 1557.7416 -7993.5829 268.3181 -9551.3245 -7991.3243 268.3181 722.5907 827.8068 28784.2148 722.5907 827.8068
ENERGY: 1100000 4.1760 7.0442 7.9227 0.0000 -10535.4709 1380.6820 0.0000 0.0000 1726.9502 -7408.6958 297.4639 -9135.6460 -7403.9029 299.8297 -743.5988 -598.6224 30447.7575 2.5148 2.5741
ENERGY: 1300000 3.5094 6.4601 8.9824 0.0000 -10520.2105 1452.4897 0.0000 0.0000 1775.4128 -7273.3561 305.8115 -9048.7689 -7267.9638 300.2687 282.5770 296.6933 30636.5708 3.1006 3.0970
ENERGY: 1500000 1.2823 14.8137 2.3592 0.0000 -10421.9510 1399.2192 0.0000 0.0000 1745.2759 -7259.0008 300.6205 -9004.2767 -7256.4280 300.0793 119.5603 204.1498 30204.8931 3.4625 3.3703
ENERGY: 1700000 1.2121 6.0660 7.1285 0.0000 -10475.5671 1383.5142 0.0000 0.0000 1714.3811 -7363.2652 295.2989 -9077.6463 -7357.7198 300.0593 -160.6569 -177.1805 30266.0183 3.1827 3.2064
ENERGY: 1900000 2.3903 7.9096 8.6242 0.0000 -10457.7104 1372.2352 0.0000 0.0000 1759.1086 -7307.4426 303.0032 -9066.5512 -7305.3516 300.0199 -451.0276 -334.5960 30231.0601 3.0076 3.0297
TCL: Exiting due to exit command.
