Info: SIMULATION PARAMETERS:
Info: TIMESTEP               2
Info: NUMBER OF STEPS        0
Info: STEPS PER CYCLE        10
Info: PERIODIC CELL BASIS 1  33.998 0 0
Info: PERIODIC CELL BASIS 2  0 35.779 0
Info: PERIODIC CELL BASIS 3  0 0 36.199
Info: PERIODIC CELL CENTER   0 0 0
Info: WRAPPING WATERS AROUND PERIODIC BOUNDARIES ON OUTPUT.
Info: WRAPPING ALL CLUSTERS AROUND PERIODIC BOUNDARIES ON OUTPUT.
Info: FIRST LDB TIMESTEP     50
Info: LAST LDB TIMESTEP     -1
Info: HOM BACKGROUND SCALING 1
Info: PME BACKGROUND SCALING 1
Info: MIN ATOMS PER PATCH    40
Info: EMPTY PATCH LOAD       40 ATOMS
Info: INITIAL TEMPERATURE    300
Info: CENTER OF MASS MOVING INITIALLY? NO
Info: DIELECTRIC             1
Info: EXCLUDE                SCALED ONE-FOUR
Info: 1-4 ELECTROSTATICS SCALED BY 0.833333
Info: MODIFIED 1-4 VDW PARAMETERS WILL BE USED
Info: DCD FILENAME           mobley_718988_equil.dcd
Info: DCD FREQUENCY          100000
Info: DCD FIRST STEP         100000
Info: DCD FILE WILL CONTAIN UNIT CELL DATA
Info: XST FILENAME           mobley_718988_equil.xst
Info: XST FREQUENCY          100000
Info: NO VELOCITY DCD OUTPUT
Info: NO FORCE DCD OUTPUT
Info: OUTPUT FILENAME        mobley_718988_equil
Info: BINARY OUTPUT FILES WILL BE USED
Info: RESTART FILENAME       mobley_718988_equil.restart
Info: RESTART FREQUENCY      100000
Info: BINARY RESTART FILES WILL BE USED
Info: CUTOFF                 9
Info: PAIRLIST DISTANCE      11
Info: PAIRLIST SHRINK RATE   0.01
Info: PAIRLIST GROW RATE     0.01
Info: PAIRLIST TRIGGER       0.3
Info: PAIRLISTS PER CYCLE    2
Info: PAIRLISTS ENABLED
Info: MARGIN                 8
Info: HYDROGEN GROUP CUTOFF  2.5
Info: PATCH DIMENSION        21.5
Info: ENERGY OUTPUT STEPS    100000
Info: ENERGY EVALUATION STEPS    100000
Info: OUTPUT ENERGY PRECISION 4
Info: CROSSTERM ENERGY INCLUDED IN DIHEDRAL
Info: TIMING OUTPUT STEPS    1000000
Info: PRESSURE OUTPUT STEPS  100000
Info: LANGEVIN DYNAMICS ACTIVE
Info: LANGEVIN TEMPERATURE   30
Info: LANGEVIN USING BBK INTEGRATOR
Info: LANGEVIN DAMPING COEFFICIENT IS 1 INVERSE PS
Info: LANGEVIN DYNAMICS APPLIED TO HYDROGENS
Info: LANGEVIN PISTON PRESSURE CONTROL ACTIVE
Info:        TARGET PRESSURE IS 1.01325 BAR
Info:     OSCILLATION PERIOD IS 50 FS
Info:             DECAY TIME IS 25 FS
Info:     PISTON TEMPERATURE IS 300 K
Info:       PRESSURE CONTROL IS GROUP-BASED
Info:    INITIAL STRAIN RATE IS 0 0 0
Info:       CELL FLUCTUATION IS ISOTROPIC
Info: PARTICLE MESH EWALD (PME) ACTIVE
Info: PME TOLERANCE               1e-06
Info: PME EWALD COEFFICIENT       0.348832
Info: PME INTERPOLATION ORDER     4
Info: PME GRID DIMENSIONS         36 36 40
Info: PME MAXIMUM GRID SPACING    1
Info: FULL ELECTROSTATIC EVALUATION FREQUENCY      2
Info: USING VERLET I (r-RESPA) MTS SCHEME.
Info: C1 SPLITTING OF LONG RANGE ELECTROSTATICS
Info: PLACING ATOMS IN PATCHES BY HYDROGEN GROUPS
Info: RIGID BONDS TO HYDROGEN : ALL
Info:         ERROR TOLERANCE : 1e-08
Info:          MAX ITERATIONS : 100
Info: RIGID WATER USING SETTLE ALGORITHM
Info: RANDOM NUMBER SEED     1743259291
Info: USE HYDROGEN BONDS?    NO
Info: Using AMBER format force field!
Info: AMBER PARM FILE        mobley_718988.prmtop
Info: COORDINATE PDB         mobley_718988.pdb
Info: Exclusions will be read from PARM file!
Info: SCNB (VDW SCALING)     2
Info: USING ARITHMETIC MEAN TO COMBINE L-J SIGMA PARAMETERS
Info: BINARY COORDINATES     mobley_718988_min.coor
Info: SUMMARY OF PARAMETERS:
Info: 7 BONDS
Info: 9 ANGLES
Info:   9 HARMONIC
Info:   0 COSINE-BASED
Info: 7 DIHEDRAL
Info: 0 IMPROPER
Info: 0 CROSSTERM
Info: 0 VDW
Info: 28 VDW_PAIRS
Info: 0 NBTHOLE_PAIRS
Info: STRUCTURE SUMMARY:
Info: 2956 ATOMS
Info: 2955 BONDS
Info: 45 ANGLES
Info: 68 DIHEDRALS
Info: 0 IMPROPERS
Info: 0 CROSSTERMS
Info: 3060 EXCLUSIONS
Info: 2948 RIGID BONDS
Info: 5920 DEGREES OF FREEDOM
Info: 985 HYDROGEN GROUPS
Info: 4 ATOMS IN LARGEST HYDROGEN GROUP
Info: 985 MIGRATION GROUPS
Info: 4 ATOMS IN LARGEST MIGRATION GROUP
Info: TOTAL MASS = 17716.8 amu
Info: TOTAL CHARGE = -0.000199948 e
Info: MASS DENSITY = 0.66814 g/cm^3
Info: ATOM DENSITY = 0.0671315 atoms/A^3
Info: ADDED 0 IMPLICIT EXCLUSIONS
Info: NONBONDED TABLE R-SQUARED SPACING: 0.0625
Info: NONBONDED TABLE SIZE: 705 POINTS
Info: REMOVING COM VELOCITY -0.0140535 0.0503351 0.2694
TCL: Running for 100000 steps
ETITLE: TS BOND ANGLE DIHED IMPRP ELECT VDW BOUNDARY MISC KINETIC TOTAL TEMP POTENTIAL TOTAL3 TEMPAVG PRESSURE GPRESSURE VOLUME PRESSAVG GPRESSAVG
ENERGY: 0 0.0825 0.4180 2.0526 0.0000 -13590.8459 2414.9255 0.0000 0.0000 1762.8042 -9410.5631 299.6903 -11173.3673 -9410.2212 299.6903 570.3741 603.3223 44032.9864 570.3741 603.3223
ENERGY: 100000 0.1101 1.3607 2.1025 0.0000 -14155.4583 2416.4832 0.0000 0.0000 176.9458 -11558.4559 30.0822 -11735.4018 -11557.8782 30.9004 -478.3942 -423.8745 28928.7805 4.2155 4.2089
TCL: Running 100000 steps at 60 kelvin.
TCL: Setting parameter langevinTemp to 60
TCL: Running for 100000 steps
ETITLE: TS BOND ANGLE DIHED IMPRP ELECT VDW BOUNDARY MISC KINETIC TOTAL TEMP POTENTIAL TOTAL3 TEMPAVG PRESSURE GPRESSURE VOLUME PRESSAVG GPRESSAVG
ENERGY: 100000 0.1101 1.3607 2.1025 0.0000 -14155.4583 2416.4832 0.0000 0.0000 176.8617 -11558.5401 30.0679 -11735.4018 -11558.1372 30.0679 -479.9106 -423.8852 28928.7805 -479.9106 -423.8852
ENERGY: 200000 0.4145 2.1471 2.5869 0.0000 -14057.5703 2403.1091 0.0000 0.0000 339.0677 -11310.2450 57.6441 -11649.3127 -11309.5315 59.7966 -113.8956 -55.0251 28638.9199 3.9024 4.0045
TCL: Running 100000 steps at 90 kelvin.
TCL: Setting parameter langevinTemp to 90
TCL: Running for 100000 steps
ETITLE: TS BOND ANGLE DIHED IMPRP ELECT VDW BOUNDARY MISC KINETIC TOTAL TEMP POTENTIAL TOTAL3 TEMPAVG PRESSURE GPRESSURE VOLUME PRESSAVG GPRESSAVG
ENERGY: 200000 0.4145 2.1471 2.5869 0.0000 -14057.5703 2403.1091 0.0000 0.0000 338.8951 -11310.4175 57.6148 -11649.3127 -11309.6614 57.6148 -107.3859 -55.3894 28638.9199 -107.3859 -55.3894
ENERGY: 300000 0.2694 4.2693 2.9344 0.0000 -13879.2014 2299.9376 0.0000 0.0000 527.5751 -11044.2156 89.6918 -11571.7907 -11042.6452 89.9787 -698.8237 -647.4758 28802.1192 3.9638 3.8921
TCL: Running 100000 steps at 120 kelvin.
TCL: Setting parameter langevinTemp to 120
TCL: Running for 100000 steps
ETITLE: TS BOND ANGLE DIHED IMPRP ELECT VDW BOUNDARY MISC KINETIC TOTAL TEMP POTENTIAL TOTAL3 TEMPAVG PRESSURE GPRESSURE VOLUME PRESSAVG GPRESSAVG
ENERGY: 300000 0.2694 4.2693 2.9344 0.0000 -13879.2014 2299.9376 0.0000 0.0000 527.2993 -11044.4913 89.6450 -11571.7907 -11043.0103 89.6450 -689.3189 -646.9861 28802.1192 -689.3189 -646.9861
ENERGY: 400000 0.5059 5.5187 3.5432 0.0000 -13669.1779 2247.3568 0.0000 0.0000 693.3578 -10718.8955 117.8762 -11412.2533 -10717.3189 119.9431 -553.5534 -492.8707 28538.3505 3.5208 3.5204
TCL: Running 100000 steps at 150 kelvin.
TCL: Setting parameter langevinTemp to 150
TCL: Running for 100000 steps
ETITLE: TS BOND ANGLE DIHED IMPRP ELECT VDW BOUNDARY MISC KINETIC TOTAL TEMP POTENTIAL TOTAL3 TEMPAVG PRESSURE GPRESSURE VOLUME PRESSAVG GPRESSAVG
ENERGY: 400000 0.5059 5.5187 3.5432 0.0000 -13669.1779 2247.3568 0.0000 0.0000 693.0050 -10719.2483 117.8162 -11412.2533 -10717.8979 117.8162 -548.6674 -493.1870 28538.3505 -548.6674 -493.1870
ENERGY: 500000 1.4220 4.1291 2.1842 0.0000 -13628.6845 2316.3348 0.0000 0.0000 896.9904 -10407.6239 152.4953 -11304.6143 -10405.0010 149.8142 452.8583 461.5618 28666.9746 5.4994 5.5600
TCL: Running 100000 steps at 180 kelvin.
TCL: Setting parameter langevinTemp to 180
TCL: Running for 100000 steps
ETITLE: TS BOND ANGLE DIHED IMPRP ELECT VDW BOUNDARY MISC KINETIC TOTAL TEMP POTENTIAL TOTAL3 TEMPAVG PRESSURE GPRESSURE VOLUME PRESSAVG GPRESSAVG
ENERGY: 500000 1.4220 4.1291 2.1842 0.0000 -13628.6845 2316.3348 0.0000 0.0000 896.5455 -10408.0687 152.4197 -11304.6143 -10406.5383 152.4197 413.4808 461.9467 28666.9746 413.4808 461.9467
ENERGY: 600000 0.5345 5.2046 2.4783 0.0000 -12865.7496 1929.0114 0.0000 0.0000 1068.6556 -9859.8654 181.6797 -10928.5210 -9857.0863 179.7922 -1504.0996 -1445.5384 29279.8047 4.6805 4.6953
TCL: Running 100000 steps at 210 kelvin.
TCL: Setting parameter langevinTemp to 210
TCL: Running for 100000 steps
ETITLE: TS BOND ANGLE DIHED IMPRP ELECT VDW BOUNDARY MISC KINETIC TOTAL TEMP POTENTIAL TOTAL3 TEMPAVG PRESSURE GPRESSURE VOLUME PRESSAVG GPRESSAVG
ENERGY: 600000 0.5345 5.2046 2.4783 0.0000 -12865.7496 1929.0114 0.0000 0.0000 1068.1211 -9860.3999 181.5888 -10928.5210 -9858.2093 181.5888 -1517.6068 -1445.4446 29279.8047 -1517.6068 -1445.4446
ENERGY: 700000 0.6146 7.7198 3.7312 0.0000 -12386.9705 1918.1486 0.0000 0.0000 1254.4449 -9202.3113 213.2653 -10456.7563 -9198.6761 210.1209 400.7643 488.5361 28732.5421 3.1867 3.0062
TCL: Running 100000 steps at 240 kelvin.
TCL: Setting parameter langevinTemp to 240
TCL: Running for 100000 steps
ETITLE: TS BOND ANGLE DIHED IMPRP ELECT VDW BOUNDARY MISC KINETIC TOTAL TEMP POTENTIAL TOTAL3 TEMPAVG PRESSURE GPRESSURE VOLUME PRESSAVG GPRESSAVG
ENERGY: 700000 0.6146 7.7198 3.7312 0.0000 -12386.9705 1918.1486 0.0000 0.0000 1253.8322 -9202.9241 213.1612 -10456.7563 -9201.1533 213.1612 417.4986 490.2124 28732.5421 417.4986 490.2124
ENERGY: 800000 0.7830 10.3231 3.5810 0.0000 -11593.9544 1562.8166 0.0000 0.0000 1396.3329 -8620.1177 237.3874 -10016.4506 -8617.5565 239.8390 -1335.8891 -1237.9761 29618.0407 2.5802 2.5079
TCL: Running 100000 steps at 270 kelvin.
TCL: Setting parameter langevinTemp to 270
TCL: Running for 100000 steps
ETITLE: TS BOND ANGLE DIHED IMPRP ELECT VDW BOUNDARY MISC KINETIC TOTAL TEMP POTENTIAL TOTAL3 TEMPAVG PRESSURE GPRESSURE VOLUME PRESSAVG GPRESSAVG
ENERGY: 800000 0.7830 10.3231 3.5810 0.0000 -11593.9544 1562.8166 0.0000 0.0000 1395.6075 -8620.8431 237.2641 -10016.4506 -8618.3484 237.2641 -1319.2753 -1237.9606 29618.0407 -1319.2753 -1237.9606
ENERGY: 900000 1.0782 10.0475 2.7620 0.0000 -11153.8824 1550.6469 0.0000 0.0000 1582.4121 -8006.9357 269.0223 -9589.3478 -8004.6725 269.7426 33.1501 49.1363 29673.1708 3.1385 3.1521
TCL: Running 1000000 steps at 300 kelvin.
TCL: Setting parameter langevinTemp to 300
TCL: Running for 1000000 steps
ETITLE: TS BOND ANGLE DIHED IMPRP ELECT VDW BOUNDARY MISC KINETIC TOTAL TEMP POTENTIAL TOTAL3 TEMPAVG PRESSURE GPRESSURE VOLUME PRESSAVG GPRESSAVG
ENERGY: 900000 1.0782 10.0475 2.7620 0.0000 -11153.8824 1550.6469 0.0000 0.0000 1581.6451 -8007.7027 268.8919 -9589.3478 -8004.7703 268.8919 -18.7389 50.5262 29673.1708 -18.7389 50.5262
ENERGY: 1100000 0.5234 14.8139 4.5456 0.0000 -10758.3688 1523.7736 0.0000 0.0000 1739.7964 -7474.9161 295.7788 -9214.7124 -7470.1046 300.2040 719.7374 758.0879 30374.1032 2.8795 2.9893
ENERGY: 1300000 2.1004 8.7762 2.9405 0.0000 -10888.0708 1580.5829 0.0000 0.0000 1730.1984 -7563.4725 294.1471 -9293.6709 -7560.5395 300.5867 1326.2900 1449.2203 29953.4866 1.4271 1.6563
ENERGY: 1500000 1.1058 16.8633 5.8848 0.0000 -10820.6654 1478.8865 0.0000 0.0000 1749.6246 -7568.3003 297.4497 -9317.9250 -7563.8907 299.6180 6.5116 113.2210 30523.1405 2.7987 2.7929
ENERGY: 1700000 3.7353 15.5169 4.1618 0.0000 -10761.0861 1483.9957 0.0000 0.0000 1791.8011 -7461.8754 304.6200 -9253.6765 -7457.8892 300.6773 746.1143 804.8772 29732.5617 1.4840 1.4799
ENERGY: 1900000 1.5369 10.5991 6.1619 0.0000 -10541.9995 1346.1337 0.0000 0.0000 1766.6511 -7410.9169 300.3444 -9177.5680 -7409.2311 299.5132 -392.8543 -321.5096 30246.4998 1.9838 2.0661
TCL: Exiting due to exit command.
