Info: SIMULATION PARAMETERS:
Info: TIMESTEP               2
Info: NUMBER OF STEPS        0
Info: STEPS PER CYCLE        10
Info: PERIODIC CELL BASIS 1  36.005 0 0
Info: PERIODIC CELL BASIS 2  0 33.399 0
Info: PERIODIC CELL BASIS 3  0 0 37.195
Info: PERIODIC CELL CENTER   0 0 0
Info: WRAPPING WATERS AROUND PERIODIC BOUNDARIES ON OUTPUT.
Info: WRAPPING ALL CLUSTERS AROUND PERIODIC BOUNDARIES ON OUTPUT.
Info: FIRST LDB TIMESTEP     50
Info: LAST LDB TIMESTEP     -1
Info: HOM BACKGROUND SCALING 1
Info: PME BACKGROUND SCALING 1
Info: MIN ATOMS PER PATCH    40
Info: EMPTY PATCH LOAD       40 ATOMS
Info: INITIAL TEMPERATURE    300
Info: CENTER OF MASS MOVING INITIALLY? NO
Info: DIELECTRIC             1
Info: EXCLUDE                SCALED ONE-FOUR
Info: 1-4 ELECTROSTATICS SCALED BY 0.833333
Info: MODIFIED 1-4 VDW PARAMETERS WILL BE USED
Info: DCD FILENAME           mobley_7417968_equil.dcd
Info: DCD FREQUENCY          100000
Info: DCD FIRST STEP         100000
Info: DCD FILE WILL CONTAIN UNIT CELL DATA
Info: XST FILENAME           mobley_7417968_equil.xst
Info: XST FREQUENCY          100000
Info: NO VELOCITY DCD OUTPUT
Info: NO FORCE DCD OUTPUT
Info: OUTPUT FILENAME        mobley_7417968_equil
Info: BINARY OUTPUT FILES WILL BE USED
Info: RESTART FILENAME       mobley_7417968_equil.restart
Info: RESTART FREQUENCY      100000
Info: BINARY RESTART FILES WILL BE USED
Info: CUTOFF                 9
Info: PAIRLIST DISTANCE      11
Info: PAIRLIST SHRINK RATE   0.01
Info: PAIRLIST GROW RATE     0.01
Info: PAIRLIST TRIGGER       0.3
Info: PAIRLISTS PER CYCLE    2
Info: PAIRLISTS ENABLED
Info: MARGIN                 8
Info: HYDROGEN GROUP CUTOFF  2.5
Info: PATCH DIMENSION        21.5
Info: ENERGY OUTPUT STEPS    100000
Info: ENERGY EVALUATION STEPS    100000
Info: OUTPUT ENERGY PRECISION 4
Info: CROSSTERM ENERGY INCLUDED IN DIHEDRAL
Info: TIMING OUTPUT STEPS    1000000
Info: PRESSURE OUTPUT STEPS  100000
Info: LANGEVIN DYNAMICS ACTIVE
Info: LANGEVIN TEMPERATURE   30
Info: LANGEVIN USING BBK INTEGRATOR
Info: LANGEVIN DAMPING COEFFICIENT IS 1 INVERSE PS
Info: LANGEVIN DYNAMICS APPLIED TO HYDROGENS
Info: LANGEVIN PISTON PRESSURE CONTROL ACTIVE
Info:        TARGET PRESSURE IS 1.01325 BAR
Info:     OSCILLATION PERIOD IS 50 FS
Info:             DECAY TIME IS 25 FS
Info:     PISTON TEMPERATURE IS 300 K
Info:       PRESSURE CONTROL IS GROUP-BASED
Info:    INITIAL STRAIN RATE IS 0 0 0
Info:       CELL FLUCTUATION IS ISOTROPIC
Info: PARTICLE MESH EWALD (PME) ACTIVE
Info: PME TOLERANCE               1e-06
Info: PME EWALD COEFFICIENT       0.348832
Info: PME INTERPOLATION ORDER     4
Info: PME GRID DIMENSIONS         40 36 40
Info: PME MAXIMUM GRID SPACING    1
Info: FULL ELECTROSTATIC EVALUATION FREQUENCY      2
Info: USING VERLET I (r-RESPA) MTS SCHEME.
Info: C1 SPLITTING OF LONG RANGE ELECTROSTATICS
Info: PLACING ATOMS IN PATCHES BY HYDROGEN GROUPS
Info: RIGID BONDS TO HYDROGEN : ALL
Info:         ERROR TOLERANCE : 1e-08
Info:          MAX ITERATIONS : 100
Info: RIGID WATER USING SETTLE ALGORITHM
Info: RANDOM NUMBER SEED     1743254904
Info: USE HYDROGEN BONDS?    NO
Info: Using AMBER format force field!
Info: AMBER PARM FILE        mobley_7417968.prmtop
Info: COORDINATE PDB         mobley_7417968.pdb
Info: Exclusions will be read from PARM file!
Info: SCNB (VDW SCALING)     2
Info: USING ARITHMETIC MEAN TO COMBINE L-J SIGMA PARAMETERS
Info: BINARY COORDINATES     mobley_7417968_min.coor
Info: SUMMARY OF PARAMETERS:
Info: 9 BONDS
Info: 12 ANGLES
Info:   12 HARMONIC
Info:   0 COSINE-BASED
Info: 18 DIHEDRAL
Info: 0 IMPROPER
Info: 0 CROSSTERM
Info: 0 VDW
Info: 36 VDW_PAIRS
Info: 0 NBTHOLE_PAIRS
Info: STRUCTURE SUMMARY:
Info: 2994 ATOMS
Info: 2993 BONDS
Info: 35 ANGLES
Info: 56 DIHEDRALS
Info: 0 IMPROPERS
Info: 0 CROSSTERMS
Info: 3063 EXCLUSIONS
Info: 2985 RIGID BONDS
Info: 5997 DEGREES OF FREEDOM
Info: 1000 HYDROGEN GROUPS
Info: 4 ATOMS IN LARGEST HYDROGEN GROUP
Info: 1000 MIGRATION GROUPS
Info: 4 ATOMS IN LARGEST MIGRATION GROUP
Info: TOTAL MASS = 17986 amu
Info: TOTAL CHARGE = 3.72529e-08 e
Info: MASS DENSITY = 0.667749 g/cm^3
Info: ATOM DENSITY = 0.0669377 atoms/A^3
Info: ADDED 0 IMPLICIT EXCLUSIONS
Info: NONBONDED TABLE R-SQUARED SPACING: 0.0625
Info: NONBONDED TABLE SIZE: 705 POINTS
Info: REMOVING COM VELOCITY 0.0713246 0.122754 -0.0996395
TCL: Running for 100000 steps
ETITLE: TS BOND ANGLE DIHED IMPRP ELECT VDW BOUNDARY MISC KINETIC TOTAL TEMP POTENTIAL TOTAL3 TEMPAVG PRESSURE GPRESSURE VOLUME PRESSAVG GPRESSAVG
ENERGY: 0 0.0896 0.6728 6.5275 0.0000 -13828.9971 2421.2878 0.0000 0.0000 1789.1070 -9611.3124 300.2567 -11400.4195 -9610.9274 300.2567 459.1424 490.1402 44728.1404 459.1424 490.1402
ENERGY: 100000 0.4266 1.2921 7.0195 0.0000 -14454.5771 2516.0143 0.0000 0.0000 187.8251 -11741.9996 31.5217 -11929.8246 -11741.4170 30.9340 -138.1413 -80.3705 29236.9805 4.9965 4.9372
TCL: Running 100000 steps at 60 kelvin.
TCL: Setting parameter langevinTemp to 60
TCL: Running for 100000 steps
ETITLE: TS BOND ANGLE DIHED IMPRP ELECT VDW BOUNDARY MISC KINETIC TOTAL TEMP POTENTIAL TOTAL3 TEMPAVG PRESSURE GPRESSURE VOLUME PRESSAVG GPRESSAVG
ENERGY: 100000 0.4266 1.2921 7.0195 0.0000 -14454.5771 2516.0143 0.0000 0.0000 187.7367 -11742.0879 31.5069 -11929.8246 -11741.7091 31.5069 -129.1885 -80.5096 29236.9805 -129.1885 -80.5096
ENERGY: 200000 0.7339 1.9616 7.2462 0.0000 -14273.5962 2419.4021 0.0000 0.0000 353.8718 -11490.3806 59.3885 -11844.2524 -11489.8497 59.8840 -529.4334 -476.3217 29086.1923 4.1204 4.1301
TCL: Running 100000 steps at 90 kelvin.
TCL: Setting parameter langevinTemp to 90
TCL: Running for 100000 steps
ETITLE: TS BOND ANGLE DIHED IMPRP ELECT VDW BOUNDARY MISC KINETIC TOTAL TEMP POTENTIAL TOTAL3 TEMPAVG PRESSURE GPRESSURE VOLUME PRESSAVG GPRESSAVG
ENERGY: 200000 0.7339 1.9616 7.2462 0.0000 -14273.5962 2419.4021 0.0000 0.0000 353.6933 -11490.5591 59.3585 -11844.2524 -11489.7494 59.3585 -526.5732 -476.7152 29086.1923 -526.5732 -476.7152
ENERGY: 300000 0.8597 3.1129 6.5988 0.0000 -14083.1519 2351.8633 0.0000 0.0000 548.2223 -11172.4949 92.0053 -11720.7172 -11171.2789 89.9373 -551.9945 -482.1425 28998.1656 5.3714 5.4596
TCL: Running 100000 steps at 120 kelvin.
TCL: Setting parameter langevinTemp to 120
TCL: Running for 100000 steps
ETITLE: TS BOND ANGLE DIHED IMPRP ELECT VDW BOUNDARY MISC KINETIC TOTAL TEMP POTENTIAL TOTAL3 TEMPAVG PRESSURE GPRESSURE VOLUME PRESSAVG GPRESSAVG
ENERGY: 300000 0.8597 3.1129 6.5988 0.0000 -14083.1519 2351.8633 0.0000 0.0000 547.9501 -11172.7671 91.9597 -11720.7172 -11171.6184 91.9597 -532.8464 -482.5740 28998.1656 -532.8464 -482.5740
ENERGY: 400000 0.6085 4.0787 7.6497 0.0000 -13982.8019 2343.9167 0.0000 0.0000 729.9189 -10896.6294 122.4985 -11626.5483 -10894.4096 119.8946 24.4597 52.7879 28848.4255 4.0226 4.0745
TCL: Running 100000 steps at 150 kelvin.
TCL: Setting parameter langevinTemp to 150
TCL: Running for 100000 steps
ETITLE: TS BOND ANGLE DIHED IMPRP ELECT VDW BOUNDARY MISC KINETIC TOTAL TEMP POTENTIAL TOTAL3 TEMPAVG PRESSURE GPRESSURE VOLUME PRESSAVG GPRESSAVG
ENERGY: 400000 0.6085 4.0787 7.6497 0.0000 -13982.8019 2343.9167 0.0000 0.0000 729.5621 -10896.9861 122.4387 -11626.5483 -10895.3298 122.4387 -3.7059 52.8766 28848.4255 -3.7059 52.8766
ENERGY: 500000 1.7502 7.3189 7.2060 0.0000 -13871.3141 2372.1630 0.0000 0.0000 906.2057 -10576.6703 152.0839 -11482.8760 -10574.0065 149.9586 401.9485 487.7758 29282.6216 4.7632 4.6541
TCL: Running 100000 steps at 180 kelvin.
TCL: Setting parameter langevinTemp to 180
TCL: Running for 100000 steps
ETITLE: TS BOND ANGLE DIHED IMPRP ELECT VDW BOUNDARY MISC KINETIC TOTAL TEMP POTENTIAL TOTAL3 TEMPAVG PRESSURE GPRESSURE VOLUME PRESSAVG GPRESSAVG
ENERGY: 500000 1.7502 7.3189 7.2060 0.0000 -13871.3141 2372.1630 0.0000 0.0000 905.7486 -10577.1274 152.0071 -11482.8760 -10575.4148 152.0071 429.4248 488.4949 29282.6216 429.4248 488.4949
ENERGY: 600000 1.3825 4.1764 7.6683 0.0000 -13390.9080 2241.6446 0.0000 0.0000 1075.5285 -10060.5077 180.5004 -11136.0361 -10058.0010 180.1908 931.9550 978.5569 29116.0127 3.3754 3.4126
TCL: Running 100000 steps at 210 kelvin.
TCL: Setting parameter langevinTemp to 210
TCL: Running for 100000 steps
ETITLE: TS BOND ANGLE DIHED IMPRP ELECT VDW BOUNDARY MISC KINETIC TOTAL TEMP POTENTIAL TOTAL3 TEMPAVG PRESSURE GPRESSURE VOLUME PRESSAVG GPRESSAVG
ENERGY: 600000 1.3825 4.1764 7.6683 0.0000 -13390.9080 2241.6446 0.0000 0.0000 1075.0099 -10061.0262 180.4134 -11136.0361 -10059.0786 180.4134 911.3436 978.0648 29116.0127 911.3436 978.0648
ENERGY: 700000 2.8220 7.7959 7.7214 0.0000 -12519.2276 1841.9937 0.0000 0.0000 1257.2633 -9401.6314 211.0001 -10658.8947 -9399.1676 209.6548 -476.4197 -394.9298 29019.4544 2.8612 2.8408
TCL: Running 100000 steps at 240 kelvin.
TCL: Setting parameter langevinTemp to 240
TCL: Running for 100000 steps
ETITLE: TS BOND ANGLE DIHED IMPRP ELECT VDW BOUNDARY MISC KINETIC TOTAL TEMP POTENTIAL TOTAL3 TEMPAVG PRESSURE GPRESSURE VOLUME PRESSAVG GPRESSAVG
ENERGY: 700000 2.8220 7.7959 7.7214 0.0000 -12519.2276 1841.9937 0.0000 0.0000 1256.5938 -9402.3008 210.8877 -10658.8947 -9399.6466 210.8877 -471.5497 -394.2659 29019.4544 -471.5497 -394.2659
ENERGY: 800000 2.4454 9.6735 9.2762 0.0000 -12023.7819 1751.7713 0.0000 0.0000 1439.6768 -8810.9387 241.6136 -10250.6155 -8808.3992 240.0588 -323.0564 -308.1268 30091.4030 3.5859 3.6395
TCL: Running 100000 steps at 270 kelvin.
TCL: Setting parameter langevinTemp to 270
TCL: Running for 100000 steps
ETITLE: TS BOND ANGLE DIHED IMPRP ELECT VDW BOUNDARY MISC KINETIC TOTAL TEMP POTENTIAL TOTAL3 TEMPAVG PRESSURE GPRESSURE VOLUME PRESSAVG GPRESSAVG
ENERGY: 800000 2.4454 9.6735 9.2762 0.0000 -12023.7819 1751.7713 0.0000 0.0000 1438.9829 -8811.6326 241.4971 -10250.6155 -8808.5193 241.4971 -371.5268 -307.3216 30091.4030 -371.5268 -307.3216
ENERGY: 900000 1.1629 5.4917 7.5711 0.0000 -11473.3345 1608.2501 0.0000 0.0000 1575.9298 -8274.9289 264.4802 -9850.8587 -8272.3438 269.7344 24.7242 97.7632 30205.7577 3.4899 3.5266
TCL: Running 1000000 steps at 300 kelvin.
TCL: Setting parameter langevinTemp to 300
TCL: Running for 1000000 steps
ETITLE: TS BOND ANGLE DIHED IMPRP ELECT VDW BOUNDARY MISC KINETIC TOTAL TEMP POTENTIAL TOTAL3 TEMPAVG PRESSURE GPRESSURE VOLUME PRESSAVG GPRESSAVG
ENERGY: 900000 1.1629 5.4917 7.5711 0.0000 -11473.3345 1608.2501 0.0000 0.0000 1575.1239 -8275.7348 264.3450 -9850.8586 -8272.6494 264.3450 27.3225 98.0081 30205.7577 27.3225 98.0081
ENERGY: 1100000 4.9837 10.3963 8.5908 0.0000 -10751.6433 1401.3610 0.0000 0.0000 1787.3676 -7538.9439 299.9647 -9326.3114 -7535.9798 300.3463 -280.9205 -214.4827 31247.2375 3.7534 3.7345
ENERGY: 1300000 3.4488 8.3498 6.5659 0.0000 -10788.2562 1407.6270 0.0000 0.0000 1839.5436 -7522.7211 308.7212 -9362.2647 -7517.8519 299.9695 -420.8927 -328.2681 31137.9717 4.3395 4.3712
ENERGY: 1500000 2.0354 6.9546 8.3256 0.0000 -10705.0591 1377.9492 0.0000 0.0000 1842.7817 -7467.0126 309.2646 -9309.7943 -7466.3116 299.9663 -357.0241 -269.3267 31154.0056 1.5933 1.4260
ENERGY: 1700000 2.0373 9.6602 5.7570 0.0000 -10900.2846 1431.3170 0.0000 0.0000 1783.7221 -7667.7911 299.3529 -9451.5131 -7663.5916 300.5793 -259.9329 -209.6224 30579.2617 3.2216 3.1170
ENERGY: 1900000 1.8677 6.5943 10.4259 0.0000 -10756.4956 1373.8687 0.0000 0.0000 1764.6612 -7599.0779 296.1540 -9363.7391 -7595.9970 300.6009 -662.3586 -618.9106 31126.4236 2.3128 2.3946
TCL: Exiting due to exit command.
