Info: SIMULATION PARAMETERS:
Info: TIMESTEP               2
Info: NUMBER OF STEPS        0
Info: STEPS PER CYCLE        10
Info: PERIODIC CELL BASIS 1  35.89 0 0
Info: PERIODIC CELL BASIS 2  0 34.26 0
Info: PERIODIC CELL BASIS 3  0 0 35.897
Info: PERIODIC CELL CENTER   0 0 0
Info: WRAPPING WATERS AROUND PERIODIC BOUNDARIES ON OUTPUT.
Info: WRAPPING ALL CLUSTERS AROUND PERIODIC BOUNDARIES ON OUTPUT.
Info: FIRST LDB TIMESTEP     50
Info: LAST LDB TIMESTEP     -1
Info: HOM BACKGROUND SCALING 1
Info: PME BACKGROUND SCALING 1
Info: MIN ATOMS PER PATCH    40
Info: EMPTY PATCH LOAD       40 ATOMS
Info: INITIAL TEMPERATURE    300
Info: CENTER OF MASS MOVING INITIALLY? NO
Info: DIELECTRIC             1
Info: EXCLUDE                SCALED ONE-FOUR
Info: 1-4 ELECTROSTATICS SCALED BY 0.833333
Info: MODIFIED 1-4 VDW PARAMETERS WILL BE USED
Info: DCD FILENAME           mobley_8311321_equil.dcd
Info: DCD FREQUENCY          100000
Info: DCD FIRST STEP         100000
Info: DCD FILE WILL CONTAIN UNIT CELL DATA
Info: XST FILENAME           mobley_8311321_equil.xst
Info: XST FREQUENCY          100000
Info: NO VELOCITY DCD OUTPUT
Info: NO FORCE DCD OUTPUT
Info: OUTPUT FILENAME        mobley_8311321_equil
Info: BINARY OUTPUT FILES WILL BE USED
Info: RESTART FILENAME       mobley_8311321_equil.restart
Info: RESTART FREQUENCY      100000
Info: BINARY RESTART FILES WILL BE USED
Info: CUTOFF                 9
Info: PAIRLIST DISTANCE      11
Info: PAIRLIST SHRINK RATE   0.01
Info: PAIRLIST GROW RATE     0.01
Info: PAIRLIST TRIGGER       0.3
Info: PAIRLISTS PER CYCLE    2
Info: PAIRLISTS ENABLED
Info: MARGIN                 8
Info: HYDROGEN GROUP CUTOFF  2.5
Info: PATCH DIMENSION        21.5
Info: ENERGY OUTPUT STEPS    100000
Info: ENERGY EVALUATION STEPS    100000
Info: OUTPUT ENERGY PRECISION 4
Info: CROSSTERM ENERGY INCLUDED IN DIHEDRAL
Info: TIMING OUTPUT STEPS    1000000
Info: PRESSURE OUTPUT STEPS  100000
Info: LANGEVIN DYNAMICS ACTIVE
Info: LANGEVIN TEMPERATURE   30
Info: LANGEVIN USING BBK INTEGRATOR
Info: LANGEVIN DAMPING COEFFICIENT IS 1 INVERSE PS
Info: LANGEVIN DYNAMICS APPLIED TO HYDROGENS
Info: LANGEVIN PISTON PRESSURE CONTROL ACTIVE
Info:        TARGET PRESSURE IS 1.01325 BAR
Info:     OSCILLATION PERIOD IS 50 FS
Info:             DECAY TIME IS 25 FS
Info:     PISTON TEMPERATURE IS 300 K
Info:       PRESSURE CONTROL IS GROUP-BASED
Info:    INITIAL STRAIN RATE IS 0 0 0
Info:       CELL FLUCTUATION IS ISOTROPIC
Info: PARTICLE MESH EWALD (PME) ACTIVE
Info: PME TOLERANCE               1e-06
Info: PME EWALD COEFFICIENT       0.348832
Info: PME INTERPOLATION ORDER     4
Info: PME GRID DIMENSIONS         36 36 36
Info: PME MAXIMUM GRID SPACING    1
Info: FULL ELECTROSTATIC EVALUATION FREQUENCY      2
Info: USING VERLET I (r-RESPA) MTS SCHEME.
Info: C1 SPLITTING OF LONG RANGE ELECTROSTATICS
Info: PLACING ATOMS IN PATCHES BY HYDROGEN GROUPS
Info: RIGID BONDS TO HYDROGEN : ALL
Info:         ERROR TOLERANCE : 1e-08
Info:          MAX ITERATIONS : 100
Info: RIGID WATER USING SETTLE ALGORITHM
Info: RANDOM NUMBER SEED     1743153464
Info: USE HYDROGEN BONDS?    NO
Info: Using AMBER format force field!
Info: AMBER PARM FILE        mobley_8311321.prmtop
Info: COORDINATE PDB         mobley_8311321.pdb
Info: Exclusions will be read from PARM file!
Info: SCNB (VDW SCALING)     2
Info: USING ARITHMETIC MEAN TO COMBINE L-J SIGMA PARAMETERS
Info: BINARY COORDINATES     mobley_8311321_min.coor
Info: SUMMARY OF PARAMETERS:
Info: 5 BONDS
Info: 4 ANGLES
Info:   4 HARMONIC
Info:   0 COSINE-BASED
Info: 0 DIHEDRAL
Info: 0 IMPROPER
Info: 0 CROSSTERM
Info: 0 VDW
Info: 21 VDW_PAIRS
Info: 0 NBTHOLE_PAIRS
Info: STRUCTURE SUMMARY:
Info: 2939 ATOMS
Info: 2938 BONDS
Info: 6 ANGLES
Info: 0 DIHEDRALS
Info: 0 IMPROPERS
Info: 0 CROSSTERMS
Info: 2944 EXCLUSIONS
Info: 2935 RIGID BONDS
Info: 5882 DEGREES OF FREEDOM
Info: 982 HYDROGEN GROUPS
Info: 3 ATOMS IN LARGEST HYDROGEN GROUP
Info: 982 MIGRATION GROUPS
Info: 3 ATOMS IN LARGEST MIGRATION GROUP
Info: TOTAL MASS = 17706.1 amu
Info: TOTAL CHARGE = -9.99868e-05 e
Info: MASS DENSITY = 0.666137 g/cm^3
Info: ATOM DENSITY = 0.0665856 atoms/A^3
Info: ADDED 0 IMPLICIT EXCLUSIONS
Info: NONBONDED TABLE R-SQUARED SPACING: 0.0625
Info: NONBONDED TABLE SIZE: 705 POINTS
Info: REMOVING COM VELOCITY 0.085559 -0.258414 0.0788736
TCL: Running for 100000 steps
ETITLE: TS BOND ANGLE DIHED IMPRP ELECT VDW BOUNDARY MISC KINETIC TOTAL TEMP POTENTIAL TOTAL3 TEMPAVG PRESSURE GPRESSURE VOLUME PRESSAVG GPRESSAVG
ENERGY: 0 0.0044 0.0841 0.0000 0.0000 -13647.1670 2402.3968 0.0000 0.0000 1768.9557 -9475.7261 302.6790 -11244.6817 -9475.3693 302.6790 427.5042 457.9887 44138.6425 427.5042 457.9887
ENERGY: 100000 0.0245 0.1041 0.0000 0.0000 -14175.9270 2416.9571 0.0000 0.0000 174.6751 -11584.1661 29.8880 -11758.8413 -11583.6858 30.9344 -363.8631 -276.0723 28187.7164 2.6160 2.5929
TCL: Running 100000 steps at 60 kelvin.
TCL: Setting parameter langevinTemp to 60
TCL: Running for 100000 steps
ETITLE: TS BOND ANGLE DIHED IMPRP ELECT VDW BOUNDARY MISC KINETIC TOTAL TEMP POTENTIAL TOTAL3 TEMPAVG PRESSURE GPRESSURE VOLUME PRESSAVG GPRESSAVG
ENERGY: 100000 0.0245 0.1041 0.0000 0.0000 -14175.9270 2416.9571 0.0000 0.0000 174.5875 -11584.2537 29.8730 -11758.8413 -11583.9233 29.8730 -342.2217 -275.9869 28187.7164 -342.2217 -275.9869
ENERGY: 200000 0.2587 0.3576 0.0000 0.0000 -14138.5996 2430.5649 0.0000 0.0000 358.3356 -11349.0828 61.3134 -11707.4184 -11348.2881 59.9685 171.3421 197.4929 27921.3232 3.6823 3.6390
TCL: Running 100000 steps at 90 kelvin.
TCL: Setting parameter langevinTemp to 90
TCL: Running for 100000 steps
ETITLE: TS BOND ANGLE DIHED IMPRP ELECT VDW BOUNDARY MISC KINETIC TOTAL TEMP POTENTIAL TOTAL3 TEMPAVG PRESSURE GPRESSURE VOLUME PRESSAVG GPRESSAVG
ENERGY: 200000 0.2587 0.3576 0.0000 0.0000 -14138.5996 2430.5649 0.0000 0.0000 358.1610 -11349.2574 61.2835 -11707.4184 -11348.5659 61.2835 138.4345 197.6192 27921.3232 138.4345 197.6192
ENERGY: 300000 0.0321 0.8125 0.0000 0.0000 -14034.8843 2455.7211 0.0000 0.0000 529.1495 -11049.1691 90.5407 -11578.3186 -11047.7924 90.0105 857.0976 933.1852 27916.6126 3.0879 3.0362
TCL: Running 100000 steps at 120 kelvin.
TCL: Setting parameter langevinTemp to 120
TCL: Running for 100000 steps
ETITLE: TS BOND ANGLE DIHED IMPRP ELECT VDW BOUNDARY MISC KINETIC TOTAL TEMP POTENTIAL TOTAL3 TEMPAVG PRESSURE GPRESSURE VOLUME PRESSAVG GPRESSAVG
ENERGY: 300000 0.0321 0.8125 0.0000 0.0000 -14034.8843 2455.7211 0.0000 0.0000 528.8805 -11049.4381 90.4946 -11578.3186 -11048.4680 90.4946 881.4536 933.2786 27916.6126 881.4536 933.2786
ENERGY: 400000 0.8494 0.4897 0.0000 0.0000 -13800.3774 2338.3451 0.0000 0.0000 717.3316 -10743.3615 122.7398 -11460.6931 -10741.1442 120.0061 65.8340 124.6807 28445.0979 3.9709 4.0869
TCL: Running 100000 steps at 150 kelvin.
TCL: Setting parameter langevinTemp to 150
TCL: Running for 100000 steps
ETITLE: TS BOND ANGLE DIHED IMPRP ELECT VDW BOUNDARY MISC KINETIC TOTAL TEMP POTENTIAL TOTAL3 TEMPAVG PRESSURE GPRESSURE VOLUME PRESSAVG GPRESSAVG
ENERGY: 400000 0.8494 0.4897 0.0000 0.0000 -13800.3774 2338.3451 0.0000 0.0000 716.9844 -10743.7087 122.6804 -11460.6931 -10742.2343 122.6804 72.4205 125.1720 28445.0979 72.4205 125.1720
ENERGY: 500000 0.4493 1.5137 0.0000 0.0000 -13576.3893 2301.8359 0.0000 0.0000 855.4848 -10417.1055 146.3786 -11272.5903 -10414.7158 150.4327 310.4227 358.0712 28730.9848 3.2222 3.1809
TCL: Running 100000 steps at 180 kelvin.
TCL: Setting parameter langevinTemp to 180
TCL: Running for 100000 steps
ETITLE: TS BOND ANGLE DIHED IMPRP ELECT VDW BOUNDARY MISC KINETIC TOTAL TEMP POTENTIAL TOTAL3 TEMPAVG PRESSURE GPRESSURE VOLUME PRESSAVG GPRESSAVG
ENERGY: 500000 0.4493 1.5137 0.0000 0.0000 -13576.3893 2301.8359 0.0000 0.0000 855.0526 -10417.5377 146.3047 -11272.5903 -10416.1242 146.3047 313.2642 358.6272 28730.9848 313.2642 358.6272
ENERGY: 600000 0.1747 1.2925 0.0000 0.0000 -13057.3439 2092.9875 0.0000 0.0000 1038.1266 -9924.7625 177.6297 -10962.8891 -9922.3933 180.0629 -115.9614 -20.8831 28597.1143 3.7537 3.6440
TCL: Running 100000 steps at 210 kelvin.
TCL: Setting parameter langevinTemp to 210
TCL: Running for 100000 steps
ETITLE: TS BOND ANGLE DIHED IMPRP ELECT VDW BOUNDARY MISC KINETIC TOTAL TEMP POTENTIAL TOTAL3 TEMPAVG PRESSURE GPRESSURE VOLUME PRESSAVG GPRESSAVG
ENERGY: 600000 0.1747 1.2925 0.0000 0.0000 -13057.3439 2092.9875 0.0000 0.0000 1037.5811 -9925.3080 177.5364 -10962.8891 -9922.9734 177.5364 -93.0560 -22.2334 28597.1143 -93.0560 -22.2334
ENERGY: 700000 0.1212 1.8892 0.0000 0.0000 -12432.5954 1912.5595 0.0000 0.0000 1221.8330 -9296.1925 209.0630 -10518.0255 -9293.3999 209.7706 269.8067 325.1041 28474.9312 2.9900 3.0103
TCL: Running 100000 steps at 240 kelvin.
TCL: Setting parameter langevinTemp to 240
TCL: Running for 100000 steps
ETITLE: TS BOND ANGLE DIHED IMPRP ELECT VDW BOUNDARY MISC KINETIC TOTAL TEMP POTENTIAL TOTAL3 TEMPAVG PRESSURE GPRESSURE VOLUME PRESSAVG GPRESSAVG
ENERGY: 700000 0.1212 1.8892 0.0000 0.0000 -12432.5954 1912.5595 0.0000 0.0000 1221.2534 -9296.7721 208.9638 -10518.0255 -9295.3448 208.9638 248.6820 325.4714 28474.9312 248.6820 325.4714
ENERGY: 800000 0.5254 0.4990 0.0000 0.0000 -11646.1692 1614.2056 0.0000 0.0000 1394.9868 -8635.9523 238.6907 -10030.9392 -8631.5456 239.7629 -781.1479 -643.6913 29042.1245 3.3459 3.4934
TCL: Running 100000 steps at 270 kelvin.
TCL: Setting parameter langevinTemp to 270
TCL: Running for 100000 steps
ETITLE: TS BOND ANGLE DIHED IMPRP ELECT VDW BOUNDARY MISC KINETIC TOTAL TEMP POTENTIAL TOTAL3 TEMPAVG PRESSURE GPRESSURE VOLUME PRESSAVG GPRESSAVG
ENERGY: 800000 0.5254 0.4990 0.0000 0.0000 -11646.1692 1614.2056 0.0000 0.0000 1394.2890 -8636.6501 238.5713 -10030.9392 -8634.3613 238.5713 -732.2176 -643.2660 29042.1245 -732.2176 -643.2660
ENERGY: 900000 0.8663 1.8643 0.0000 0.0000 -11408.2698 1700.7152 0.0000 0.0000 1587.8174 -8117.0066 271.6852 -9704.8241 -8112.9177 269.7408 972.3883 1038.9295 29315.8795 3.4152 3.2873
TCL: Running 1000000 steps at 300 kelvin.
TCL: Setting parameter langevinTemp to 300
TCL: Running for 1000000 steps
ETITLE: TS BOND ANGLE DIHED IMPRP ELECT VDW BOUNDARY MISC KINETIC TOTAL TEMP POTENTIAL TOTAL3 TEMPAVG PRESSURE GPRESSURE VOLUME PRESSAVG GPRESSAVG
ENERGY: 900000 0.8663 1.8643 0.0000 0.0000 -11408.2698 1700.7152 0.0000 0.0000 1587.0252 -8117.7988 271.5496 -9704.8241 -8115.6999 271.5496 966.2760 1040.8723 29315.8795 966.2760 1040.8723
ENERGY: 1100000 0.3696 1.9714 0.0000 0.0000 -10551.2699 1368.0922 0.0000 0.0000 1765.2554 -7415.5812 302.0459 -9180.8366 -7411.1504 300.6041 -372.6951 -322.4122 30485.7975 0.9152 0.9921
ENERGY: 1300000 0.6696 0.7427 0.0000 0.0000 -10727.4018 1472.7383 0.0000 0.0000 1755.2797 -7497.9715 300.3390 -9253.2512 -7495.3541 300.7319 484.1001 566.9837 29992.0940 2.8207 3.0211
ENERGY: 1500000 0.3237 2.2158 0.0000 0.0000 -10686.1112 1436.1238 0.0000 0.0000 1763.4401 -7484.0078 301.7353 -9247.4479 -7480.5664 300.0632 163.0710 249.4817 30026.4911 2.2927 2.2829
ENERGY: 1700000 1.7920 1.6478 0.0000 0.0000 -10782.5750 1523.2941 0.0000 0.0000 1767.9160 -7487.9251 302.5011 -9255.8411 -7483.3463 299.0544 642.9880 718.7270 29950.6697 5.4127 5.3263
ENERGY: 1900000 1.2473 1.1216 0.0000 0.0000 -10745.0206 1405.9205 0.0000 0.0000 1737.6950 -7599.0362 297.3301 -9336.7312 -7596.4249 299.5297 -639.6852 -599.8762 30424.3131 2.9142 2.9468
TCL: Exiting due to exit command.
