Info: SIMULATION PARAMETERS:
Info: TIMESTEP               2
Info: NUMBER OF STEPS        0
Info: STEPS PER CYCLE        10
Info: PERIODIC CELL BASIS 1  34.986 0 0
Info: PERIODIC CELL BASIS 2  0 33.399 0
Info: PERIODIC CELL BASIS 3  0 0 37.195
Info: PERIODIC CELL CENTER   0 0 0
Info: WRAPPING WATERS AROUND PERIODIC BOUNDARIES ON OUTPUT.
Info: WRAPPING ALL CLUSTERS AROUND PERIODIC BOUNDARIES ON OUTPUT.
Info: FIRST LDB TIMESTEP     50
Info: LAST LDB TIMESTEP     -1
Info: HOM BACKGROUND SCALING 1
Info: PME BACKGROUND SCALING 1
Info: MIN ATOMS PER PATCH    40
Info: EMPTY PATCH LOAD       40 ATOMS
Info: INITIAL TEMPERATURE    300
Info: CENTER OF MASS MOVING INITIALLY? NO
Info: DIELECTRIC             1
Info: EXCLUDE                SCALED ONE-FOUR
Info: 1-4 ELECTROSTATICS SCALED BY 0.833333
Info: MODIFIED 1-4 VDW PARAMETERS WILL BE USED
Info: DCD FILENAME           mobley_2913224_equil.dcd
Info: DCD FREQUENCY          100000
Info: DCD FIRST STEP         100000
Info: DCD FILE WILL CONTAIN UNIT CELL DATA
Info: XST FILENAME           mobley_2913224_equil.xst
Info: XST FREQUENCY          100000
Info: NO VELOCITY DCD OUTPUT
Info: NO FORCE DCD OUTPUT
Info: OUTPUT FILENAME        mobley_2913224_equil
Info: BINARY OUTPUT FILES WILL BE USED
Info: RESTART FILENAME       mobley_2913224_equil.restart
Info: RESTART FREQUENCY      100000
Info: BINARY RESTART FILES WILL BE USED
Info: CUTOFF                 9
Info: PAIRLIST DISTANCE      11
Info: PAIRLIST SHRINK RATE   0.01
Info: PAIRLIST GROW RATE     0.01
Info: PAIRLIST TRIGGER       0.3
Info: PAIRLISTS PER CYCLE    2
Info: PAIRLISTS ENABLED
Info: MARGIN                 8
Info: HYDROGEN GROUP CUTOFF  2.5
Info: PATCH DIMENSION        21.5
Info: ENERGY OUTPUT STEPS    100000
Info: ENERGY EVALUATION STEPS    100000
Info: OUTPUT ENERGY PRECISION 4
Info: CROSSTERM ENERGY INCLUDED IN DIHEDRAL
Info: TIMING OUTPUT STEPS    1000000
Info: PRESSURE OUTPUT STEPS  100000
Info: LANGEVIN DYNAMICS ACTIVE
Info: LANGEVIN TEMPERATURE   30
Info: LANGEVIN USING BBK INTEGRATOR
Info: LANGEVIN DAMPING COEFFICIENT IS 1 INVERSE PS
Info: LANGEVIN DYNAMICS APPLIED TO HYDROGENS
Info: LANGEVIN PISTON PRESSURE CONTROL ACTIVE
Info:        TARGET PRESSURE IS 1.01325 BAR
Info:     OSCILLATION PERIOD IS 50 FS
Info:             DECAY TIME IS 25 FS
Info:     PISTON TEMPERATURE IS 300 K
Info:       PRESSURE CONTROL IS GROUP-BASED
Info:    INITIAL STRAIN RATE IS 0 0 0
Info:       CELL FLUCTUATION IS ISOTROPIC
Info: PARTICLE MESH EWALD (PME) ACTIVE
Info: PME TOLERANCE               1e-06
Info: PME EWALD COEFFICIENT       0.348832
Info: PME INTERPOLATION ORDER     4
Info: PME GRID DIMENSIONS         36 36 40
Info: PME MAXIMUM GRID SPACING    1
Info: FULL ELECTROSTATIC EVALUATION FREQUENCY      2
Info: USING VERLET I (r-RESPA) MTS SCHEME.
Info: C1 SPLITTING OF LONG RANGE ELECTROSTATICS
Info: PLACING ATOMS IN PATCHES BY HYDROGEN GROUPS
Info: RIGID BONDS TO HYDROGEN : ALL
Info:         ERROR TOLERANCE : 1e-08
Info:          MAX ITERATIONS : 100
Info: RIGID WATER USING SETTLE ALGORITHM
Info: RANDOM NUMBER SEED     1743243522
Info: USE HYDROGEN BONDS?    NO
Info: Using AMBER format force field!
Info: AMBER PARM FILE        mobley_2913224.prmtop
Info: COORDINATE PDB         mobley_2913224.pdb
Info: Exclusions will be read from PARM file!
Info: SCNB (VDW SCALING)     2
Info: USING ARITHMETIC MEAN TO COMBINE L-J SIGMA PARAMETERS
Info: BINARY COORDINATES     mobley_2913224_min.coor
Info: SUMMARY OF PARAMETERS:
Info: 12 BONDS
Info: 14 ANGLES
Info:   14 HARMONIC
Info:   0 COSINE-BASED
Info: 11 DIHEDRAL
Info: 0 IMPROPER
Info: 0 CROSSTERM
Info: 0 VDW
Info: 45 VDW_PAIRS
Info: 0 NBTHOLE_PAIRS
Info: STRUCTURE SUMMARY:
Info: 2904 ATOMS
Info: 2904 BONDS
Info: 32 ANGLES
Info: 55 DIHEDRALS
Info: 0 IMPROPERS
Info: 0 CROSSTERMS
Info: 2973 EXCLUSIONS
Info: 2891 RIGID BONDS
Info: 5821 DEGREES OF FREEDOM
Info: 974 HYDROGEN GROUPS
Info: 4 ATOMS IN LARGEST HYDROGEN GROUP
Info: 974 MIGRATION GROUPS
Info: 4 ATOMS IN LARGEST MIGRATION GROUP
Info: TOTAL MASS = 17493.5 amu
Info: TOTAL CHARGE = 9.99421e-05 e
Info: MASS DENSITY = 0.668381 g/cm^3
Info: ATOM DENSITY = 0.0668166 atoms/A^3
Info: ADDED 0 IMPLICIT EXCLUSIONS
Info: NONBONDED TABLE R-SQUARED SPACING: 0.0625
Info: NONBONDED TABLE SIZE: 705 POINTS
Info: REMOVING COM VELOCITY 0.129714 0.0942863 0.0946482
TCL: Running for 100000 steps
ETITLE: TS BOND ANGLE DIHED IMPRP ELECT VDW BOUNDARY MISC KINETIC TOTAL TEMP POTENTIAL TOTAL3 TEMPAVG PRESSURE GPRESSURE VOLUME PRESSAVG GPRESSAVG
ENERGY: 0 0.3621 1.8616 11.2019 0.0000 -13439.5104 2364.9953 0.0000 0.0000 1796.7254 -9264.3640 310.6522 -11061.0894 -9263.9999 310.6522 709.8905 746.7993 43462.2613 709.8905 746.7993
ENERGY: 100000 0.8915 2.3779 10.8828 0.0000 -14108.5031 2520.3292 0.0000 0.0000 171.9892 -11402.0324 29.7368 -11574.0217 -11401.7338 30.9721 831.3830 883.3262 28180.1731 5.0632 4.9830
TCL: Running 100000 steps at 60 kelvin.
TCL: Setting parameter langevinTemp to 60
TCL: Running for 100000 steps
ETITLE: TS BOND ANGLE DIHED IMPRP ELECT VDW BOUNDARY MISC KINETIC TOTAL TEMP POTENTIAL TOTAL3 TEMPAVG PRESSURE GPRESSURE VOLUME PRESSAVG GPRESSAVG
ENERGY: 100000 0.8915 2.3779 10.8828 0.0000 -14108.5031 2520.3292 0.0000 0.0000 171.9050 -11402.1166 29.7222 -11574.0217 -11401.7113 29.7222 832.0322 883.2642 28180.1731 832.0322 883.2642
ENERGY: 200000 1.1602 4.1985 9.5407 0.0000 -14051.8567 2467.7149 0.0000 0.0000 360.4905 -11208.7519 62.3285 -11569.2424 -11207.8212 60.0754 655.4874 708.8037 27796.9524 4.8749 4.9380
TCL: Running 100000 steps at 90 kelvin.
TCL: Setting parameter langevinTemp to 90
TCL: Running for 100000 steps
ETITLE: TS BOND ANGLE DIHED IMPRP ELECT VDW BOUNDARY MISC KINETIC TOTAL TEMP POTENTIAL TOTAL3 TEMPAVG PRESSURE GPRESSURE VOLUME PRESSAVG GPRESSAVG
ENERGY: 200000 1.1602 4.1985 9.5407 0.0000 -14051.8567 2467.7149 0.0000 0.0000 360.3230 -11208.9194 62.2995 -11569.2424 -11208.1409 62.2995 661.2802 708.7300 27796.9524 661.2802 708.7300
ENERGY: 300000 2.0993 5.0323 11.8245 0.0000 -13933.2831 2490.5316 0.0000 0.0000 519.4942 -10904.3011 89.8201 -11423.7953 -10903.1278 90.1126 1417.1729 1461.2804 27794.6301 2.6454 2.5782
TCL: Running 100000 steps at 120 kelvin.
TCL: Setting parameter langevinTemp to 120
TCL: Running for 100000 steps
ETITLE: TS BOND ANGLE DIHED IMPRP ELECT VDW BOUNDARY MISC KINETIC TOTAL TEMP POTENTIAL TOTAL3 TEMPAVG PRESSURE GPRESSURE VOLUME PRESSAVG GPRESSAVG
ENERGY: 300000 2.0993 5.0323 11.8245 0.0000 -13933.2831 2490.5316 0.0000 0.0000 519.2295 -10904.5658 89.7743 -11423.7953 -10903.5371 89.7743 1408.7498 1461.5066 27794.6301 1408.7498 1461.5066
ENERGY: 400000 2.0542 4.6052 11.3306 0.0000 -13588.1852 2254.2050 0.0000 0.0000 695.7191 -10620.2712 120.2892 -11315.9902 -10618.5249 120.1670 -189.2927 -140.1693 28215.7252 4.8549 4.7689
TCL: Running 100000 steps at 150 kelvin.
TCL: Setting parameter langevinTemp to 150
TCL: Running for 100000 steps
ETITLE: TS BOND ANGLE DIHED IMPRP ELECT VDW BOUNDARY MISC KINETIC TOTAL TEMP POTENTIAL TOTAL3 TEMPAVG PRESSURE GPRESSURE VOLUME PRESSAVG GPRESSAVG
ENERGY: 400000 2.0542 4.6052 11.3306 0.0000 -13588.1852 2254.2050 0.0000 0.0000 695.3782 -10620.6121 120.2303 -11315.9902 -10619.2189 120.2303 -181.5655 -140.4728 28215.7252 -181.5655 -140.4728
ENERGY: 500000 3.8530 4.7860 11.5671 0.0000 -13485.7158 2318.1525 0.0000 0.0000 891.7749 -10255.5824 154.1871 -11147.3573 -10253.4670 150.1628 727.6060 803.4591 28456.4217 3.2014 3.3637
TCL: Running 100000 steps at 180 kelvin.
TCL: Setting parameter langevinTemp to 180
TCL: Running for 100000 steps
ETITLE: TS BOND ANGLE DIHED IMPRP ELECT VDW BOUNDARY MISC KINETIC TOTAL TEMP POTENTIAL TOTAL3 TEMPAVG PRESSURE GPRESSURE VOLUME PRESSAVG GPRESSAVG
ENERGY: 500000 3.8530 4.7860 11.5671 0.0000 -13485.7158 2318.1525 0.0000 0.0000 891.3429 -10256.0144 154.1124 -11147.3573 -10254.8124 154.1124 746.9583 803.9347 28456.4217 746.9583 803.9347
ENERGY: 600000 4.4679 4.7179 10.8259 0.0000 -12976.4525 2073.2534 0.0000 0.0000 1046.6054 -9836.5820 180.9572 -10883.1874 -9833.0609 179.6652 -180.3265 -90.7243 28348.2489 3.4415 3.5199
TCL: Running 100000 steps at 210 kelvin.
TCL: Setting parameter langevinTemp to 210
TCL: Running for 100000 steps
ETITLE: TS BOND ANGLE DIHED IMPRP ELECT VDW BOUNDARY MISC KINETIC TOTAL TEMP POTENTIAL TOTAL3 TEMPAVG PRESSURE GPRESSURE VOLUME PRESSAVG GPRESSAVG
ENERGY: 600000 4.4679 4.7179 10.8259 0.0000 -12976.4525 2073.2534 0.0000 0.0000 1046.0819 -9837.1055 180.8666 -10883.1874 -9835.0577 180.8666 -128.8607 -90.1878 28348.2489 -128.8607 -90.1878
ENERGY: 700000 1.9694 6.4878 11.4893 0.0000 -12225.1775 1745.7376 0.0000 0.0000 1202.4041 -9257.0893 207.8946 -10459.4934 -9254.1811 209.8613 -1349.6005 -1280.4670 28557.2102 4.2968 4.3970
TCL: Running 100000 steps at 240 kelvin.
TCL: Setting parameter langevinTemp to 240
TCL: Running for 100000 steps
ETITLE: TS BOND ANGLE DIHED IMPRP ELECT VDW BOUNDARY MISC KINETIC TOTAL TEMP POTENTIAL TOTAL3 TEMPAVG PRESSURE GPRESSURE VOLUME PRESSAVG GPRESSAVG
ENERGY: 700000 1.9694 6.4878 11.4893 0.0000 -12225.1775 1745.7376 0.0000 0.0000 1201.7640 -9257.7294 207.7839 -10459.4934 -9255.3128 207.7839 -1354.4686 -1281.8783 28557.2102 -1354.4686 -1281.8783
ENERGY: 800000 2.8446 2.6522 13.3299 0.0000 -11694.1515 1678.7126 0.0000 0.0000 1394.3881 -8602.2240 241.0885 -9996.6121 -8598.8255 239.6341 -212.2444 -194.7856 28659.2083 2.8020 2.7897
TCL: Running 100000 steps at 270 kelvin.
TCL: Setting parameter langevinTemp to 270
TCL: Running for 100000 steps
ETITLE: TS BOND ANGLE DIHED IMPRP ELECT VDW BOUNDARY MISC KINETIC TOTAL TEMP POTENTIAL TOTAL3 TEMPAVG PRESSURE GPRESSURE VOLUME PRESSAVG GPRESSAVG
ENERGY: 800000 2.8446 2.6522 13.3299 0.0000 -11694.1515 1678.7126 0.0000 0.0000 1393.7145 -8602.8976 240.9720 -9996.6121 -8600.3789 240.9720 -277.9908 -194.3342 28659.2083 -277.9908 -194.3342
ENERGY: 900000 3.2498 6.0375 18.4410 0.0000 -11084.4528 1506.4155 0.0000 0.0000 1654.6074 -7895.7017 286.0802 -9550.3091 -7892.7345 270.3943 -383.6410 -262.1842 29139.3152 4.2090 4.2675
TCL: Running 1000000 steps at 300 kelvin.
TCL: Setting parameter langevinTemp to 300
TCL: Running for 1000000 steps
ETITLE: TS BOND ANGLE DIHED IMPRP ELECT VDW BOUNDARY MISC KINETIC TOTAL TEMP POTENTIAL TOTAL3 TEMPAVG PRESSURE GPRESSURE VOLUME PRESSAVG GPRESSAVG
ENERGY: 900000 3.2498 6.0375 18.4410 0.0000 -11084.4528 1506.4155 0.0000 0.0000 1653.8613 -7896.4478 285.9512 -9550.3091 -7893.8994 285.9512 -362.6998 -262.4164 29139.3152 -362.6998 -262.4164
ENERGY: 1100000 3.1646 8.4033 14.0682 0.0000 -10617.7124 1413.8596 0.0000 0.0000 1742.7725 -7435.4441 301.3238 -9178.2166 -7433.8292 300.2518 -154.5264 -83.5810 29827.0636 2.9397 2.9416
ENERGY: 1300000 4.2942 5.9521 13.5967 0.0000 -10469.3880 1366.9586 0.0000 0.0000 1671.6828 -7406.9036 289.0325 -9078.5864 -7402.8651 300.7850 -318.7362 -233.8816 30019.4347 3.2487 3.3240
ENERGY: 1500000 3.5458 4.7133 15.3048 0.0000 -10468.0914 1378.4618 0.0000 0.0000 1725.5994 -7340.4663 298.3546 -9066.0657 -7333.5174 299.9403 -189.5642 -59.2234 30046.4688 2.4566 2.3999
ENERGY: 1700000 6.1440 4.2653 13.9063 0.0000 -10588.2981 1422.4709 0.0000 0.0000 1768.5614 -7372.9501 305.7827 -9141.5115 -7369.3492 300.3159 -51.1246 -8.7413 30011.0606 3.3729 3.2856
ENERGY: 1900000 8.4326 7.3152 14.3858 0.0000 -10639.3295 1459.4074 0.0000 0.0000 1717.7817 -7432.0067 297.0030 -9149.7885 -7428.7319 300.2782 151.4354 241.3311 30260.0613 1.5691 1.6841
TCL: Exiting due to exit command.
