Info: SIMULATION PARAMETERS:
Info: TIMESTEP               2
Info: NUMBER OF STEPS        0
Info: STEPS PER CYCLE        10
Info: PERIODIC CELL BASIS 1  34.647 0 0
Info: PERIODIC CELL BASIS 2  0 34.1 0
Info: PERIODIC CELL BASIS 3  0 0 37.451
Info: PERIODIC CELL CENTER   0 0 0
Info: WRAPPING WATERS AROUND PERIODIC BOUNDARIES ON OUTPUT.
Info: WRAPPING ALL CLUSTERS AROUND PERIODIC BOUNDARIES ON OUTPUT.
Info: FIRST LDB TIMESTEP     50
Info: LAST LDB TIMESTEP     -1
Info: HOM BACKGROUND SCALING 1
Info: PME BACKGROUND SCALING 1
Info: MIN ATOMS PER PATCH    40
Info: EMPTY PATCH LOAD       40 ATOMS
Info: INITIAL TEMPERATURE    300
Info: CENTER OF MASS MOVING INITIALLY? NO
Info: DIELECTRIC             1
Info: EXCLUDE                SCALED ONE-FOUR
Info: 1-4 ELECTROSTATICS SCALED BY 0.833333
Info: MODIFIED 1-4 VDW PARAMETERS WILL BE USED
Info: DCD FILENAME           mobley_1905088_equil.dcd
Info: DCD FREQUENCY          100000
Info: DCD FIRST STEP         100000
Info: DCD FILE WILL CONTAIN UNIT CELL DATA
Info: XST FILENAME           mobley_1905088_equil.xst
Info: XST FREQUENCY          100000
Info: NO VELOCITY DCD OUTPUT
Info: NO FORCE DCD OUTPUT
Info: OUTPUT FILENAME        mobley_1905088_equil
Info: BINARY OUTPUT FILES WILL BE USED
Info: RESTART FILENAME       mobley_1905088_equil.restart
Info: RESTART FREQUENCY      100000
Info: BINARY RESTART FILES WILL BE USED
Info: CUTOFF                 9
Info: PAIRLIST DISTANCE      11
Info: PAIRLIST SHRINK RATE   0.01
Info: PAIRLIST GROW RATE     0.01
Info: PAIRLIST TRIGGER       0.3
Info: PAIRLISTS PER CYCLE    2
Info: PAIRLISTS ENABLED
Info: MARGIN                 8
Info: HYDROGEN GROUP CUTOFF  2.5
Info: PATCH DIMENSION        21.5
Info: ENERGY OUTPUT STEPS    100000
Info: ENERGY EVALUATION STEPS    100000
Info: OUTPUT ENERGY PRECISION 4
Info: CROSSTERM ENERGY INCLUDED IN DIHEDRAL
Info: TIMING OUTPUT STEPS    1000000
Info: PRESSURE OUTPUT STEPS  100000
Info: LANGEVIN DYNAMICS ACTIVE
Info: LANGEVIN TEMPERATURE   30
Info: LANGEVIN USING BBK INTEGRATOR
Info: LANGEVIN DAMPING COEFFICIENT IS 1 INVERSE PS
Info: LANGEVIN DYNAMICS APPLIED TO HYDROGENS
Info: LANGEVIN PISTON PRESSURE CONTROL ACTIVE
Info:        TARGET PRESSURE IS 1.01325 BAR
Info:     OSCILLATION PERIOD IS 50 FS
Info:             DECAY TIME IS 25 FS
Info:     PISTON TEMPERATURE IS 300 K
Info:       PRESSURE CONTROL IS GROUP-BASED
Info:    INITIAL STRAIN RATE IS 0 0 0
Info:       CELL FLUCTUATION IS ISOTROPIC
Info: PARTICLE MESH EWALD (PME) ACTIVE
Info: PME TOLERANCE               1e-06
Info: PME EWALD COEFFICIENT       0.348832
Info: PME INTERPOLATION ORDER     4
Info: PME GRID DIMENSIONS         36 36 40
Info: PME MAXIMUM GRID SPACING    1
Info: FULL ELECTROSTATIC EVALUATION FREQUENCY      2
Info: USING VERLET I (r-RESPA) MTS SCHEME.
Info: C1 SPLITTING OF LONG RANGE ELECTROSTATICS
Info: PLACING ATOMS IN PATCHES BY HYDROGEN GROUPS
Info: RIGID BONDS TO HYDROGEN : ALL
Info:         ERROR TOLERANCE : 1e-08
Info:          MAX ITERATIONS : 100
Info: RIGID WATER USING SETTLE ALGORITHM
Info: RANDOM NUMBER SEED     1743228198
Info: USE HYDROGEN BONDS?    NO
Info: Using AMBER format force field!
Info: AMBER PARM FILE        mobley_1905088.prmtop
Info: COORDINATE PDB         mobley_1905088.pdb
Info: Exclusions will be read from PARM file!
Info: SCNB (VDW SCALING)     2
Info: USING ARITHMETIC MEAN TO COMBINE L-J SIGMA PARAMETERS
Info: BINARY COORDINATES     mobley_1905088_min.coor
Info: SUMMARY OF PARAMETERS:
Info: 7 BONDS
Info: 7 ANGLES
Info:   7 HARMONIC
Info:   0 COSINE-BASED
Info: 3 DIHEDRAL
Info: 0 IMPROPER
Info: 0 CROSSTERM
Info: 0 VDW
Info: 28 VDW_PAIRS
Info: 0 NBTHOLE_PAIRS
Info: STRUCTURE SUMMARY:
Info: 2982 ATOMS
Info: 2982 BONDS
Info: 24 ANGLES
Info: 36 DIHEDRALS
Info: 0 IMPROPERS
Info: 0 CROSSTERMS
Info: 3033 EXCLUSIONS
Info: 2974 RIGID BONDS
Info: 5972 DEGREES OF FREEDOM
Info: 997 HYDROGEN GROUPS
Info: 3 ATOMS IN LARGEST HYDROGEN GROUP
Info: 997 MIGRATION GROUPS
Info: 3 ATOMS IN LARGEST MIGRATION GROUP
Info: TOTAL MASS = 17988.9 amu
Info: TOTAL CHARGE = -1.86265e-08 e
Info: MASS DENSITY = 0.675117 g/cm^3
Info: ATOM DENSITY = 0.0673945 atoms/A^3
Info: ADDED 0 IMPLICIT EXCLUSIONS
Info: NONBONDED TABLE R-SQUARED SPACING: 0.0625
Info: NONBONDED TABLE SIZE: 705 POINTS
Info: REMOVING COM VELOCITY -0.0684284 0.010962 -0.0597119
TCL: Running for 100000 steps
ETITLE: TS BOND ANGLE DIHED IMPRP ELECT VDW BOUNDARY MISC KINETIC TOTAL TEMP POTENTIAL TOTAL3 TEMPAVG PRESSURE GPRESSURE VOLUME PRESSAVG GPRESSAVG
ENERGY: 0 0.1426 0.1647 0.0089 0.0000 -13763.8763 2410.1702 0.0000 0.0000 1828.8039 -9524.5860 308.2036 -11353.3898 -9524.2219 308.2036 383.8200 420.2436 44246.9596 383.8200 420.2436
ENERGY: 100000 0.5692 0.5855 0.1590 0.0000 -14345.6288 2468.7110 0.0000 0.0000 182.9554 -11692.6488 30.8330 -11875.6042 -11692.0948 30.8836 -147.4341 -109.7903 28545.5387 4.7623 4.7905
TCL: Running 100000 steps at 60 kelvin.
TCL: Setting parameter langevinTemp to 60
TCL: Running for 100000 steps
ETITLE: TS BOND ANGLE DIHED IMPRP ELECT VDW BOUNDARY MISC KINETIC TOTAL TEMP POTENTIAL TOTAL3 TEMPAVG PRESSURE GPRESSURE VOLUME PRESSAVG GPRESSAVG
ENERGY: 100000 0.5692 0.5855 0.1590 0.0000 -14345.6288 2468.7110 0.0000 0.0000 182.8684 -11692.7358 30.8183 -11875.6042 -11692.3402 30.8183 -175.4893 -109.8044 28545.5387 -175.4893 -109.8044
ENERGY: 200000 1.0068 0.8580 0.6204 0.0000 -14218.0646 2407.1317 0.0000 0.0000 356.4273 -11452.0204 60.0678 -11808.4477 -11450.9187 60.0256 -323.7899 -279.5106 28539.7219 4.4180 4.4185
TCL: Running 100000 steps at 90 kelvin.
TCL: Setting parameter langevinTemp to 90
TCL: Running for 100000 steps
ETITLE: TS BOND ANGLE DIHED IMPRP ELECT VDW BOUNDARY MISC KINETIC TOTAL TEMP POTENTIAL TOTAL3 TEMPAVG PRESSURE GPRESSURE VOLUME PRESSAVG GPRESSAVG
ENERGY: 200000 1.0068 0.8580 0.6204 0.0000 -14218.0646 2407.1317 0.0000 0.0000 356.2494 -11452.1983 60.0378 -11808.4477 -11451.4444 60.0378 -334.1188 -279.7759 28539.7219 -334.1188 -279.7759
ENERGY: 300000 1.4444 1.3027 1.5820 0.0000 -14065.2023 2362.8138 0.0000 0.0000 555.3328 -11142.7268 93.5888 -11698.0595 -11140.4746 89.9823 -364.0263 -332.2781 28892.9016 2.3643 2.2919
TCL: Running 100000 steps at 120 kelvin.
TCL: Setting parameter langevinTemp to 120
TCL: Running for 100000 steps
ETITLE: TS BOND ANGLE DIHED IMPRP ELECT VDW BOUNDARY MISC KINETIC TOTAL TEMP POTENTIAL TOTAL3 TEMPAVG PRESSURE GPRESSURE VOLUME PRESSAVG GPRESSAVG
ENERGY: 300000 1.4444 1.3027 1.5820 0.0000 -14065.2023 2362.8138 0.0000 0.0000 555.0669 -11142.9927 93.5440 -11698.0595 -11141.8439 93.5440 -383.7597 -331.9031 28892.9016 -383.7597 -331.9031
ENERGY: 400000 2.4187 2.3537 0.9047 0.0000 -13815.4395 2251.8064 0.0000 0.0000 726.0533 -10831.9028 122.3599 -11557.9561 -10829.9505 119.9773 -990.3256 -950.9179 29349.4069 4.0677 4.0149
TCL: Running 100000 steps at 150 kelvin.
TCL: Setting parameter langevinTemp to 150
TCL: Running for 100000 steps
ETITLE: TS BOND ANGLE DIHED IMPRP ELECT VDW BOUNDARY MISC KINETIC TOTAL TEMP POTENTIAL TOTAL3 TEMPAVG PRESSURE GPRESSURE VOLUME PRESSAVG GPRESSAVG
ENERGY: 400000 2.4187 2.3537 0.9047 0.0000 -13815.4395 2251.8064 0.0000 0.0000 725.6911 -10832.2650 122.2989 -11557.9561 -10830.5953 122.2989 -1003.3565 -951.5450 29349.4069 -1003.3565 -951.5450
ENERGY: 500000 2.9635 1.4917 0.5562 0.0000 -13568.6388 2197.0333 0.0000 0.0000 889.4919 -10477.1021 149.9038 -11366.5940 -10475.6597 149.7788 -546.5895 -419.1712 29082.7575 4.3829 4.5270
TCL: Running 100000 steps at 180 kelvin.
TCL: Setting parameter langevinTemp to 180
TCL: Running for 100000 steps
ETITLE: TS BOND ANGLE DIHED IMPRP ELECT VDW BOUNDARY MISC KINETIC TOTAL TEMP POTENTIAL TOTAL3 TEMPAVG PRESSURE GPRESSURE VOLUME PRESSAVG GPRESSAVG
ENERGY: 500000 2.9635 1.4917 0.5562 0.0000 -13568.6388 2197.0333 0.0000 0.0000 889.0565 -10477.5375 149.8304 -11366.5940 -10475.7572 149.8304 -491.1418 -420.6564 29082.7575 -491.1418 -420.6564
ENERGY: 600000 1.0660 3.2871 2.7285 0.0000 -13235.4155 2146.4130 0.0000 0.0000 1096.6278 -9985.2931 184.8119 -11081.9209 -9984.1481 179.9171 363.2701 379.6077 28807.4404 4.2059 4.0480
TCL: Running 100000 steps at 210 kelvin.
TCL: Setting parameter langevinTemp to 210
TCL: Running for 100000 steps
ETITLE: TS BOND ANGLE DIHED IMPRP ELECT VDW BOUNDARY MISC KINETIC TOTAL TEMP POTENTIAL TOTAL3 TEMPAVG PRESSURE GPRESSURE VOLUME PRESSAVG GPRESSAVG
ENERGY: 600000 1.0660 3.2871 2.7285 0.0000 -13235.4155 2146.4130 0.0000 0.0000 1096.0793 -9985.8416 184.7194 -11081.9209 -9983.7207 184.7194 312.9201 378.3727 28807.4404 312.9201 378.3727
ENERGY: 700000 3.5278 4.3838 1.1387 0.0000 -12304.3968 1745.0897 0.0000 0.0000 1298.7584 -9251.4984 218.8764 -10550.2569 -9249.3017 209.7446 -1307.6528 -1264.4523 29620.3490 3.4656 3.2371
TCL: Running 100000 steps at 240 kelvin.
TCL: Setting parameter langevinTemp to 240
TCL: Running for 100000 steps
ETITLE: TS BOND ANGLE DIHED IMPRP ELECT VDW BOUNDARY MISC KINETIC TOTAL TEMP POTENTIAL TOTAL3 TEMPAVG PRESSURE GPRESSURE VOLUME PRESSAVG GPRESSAVG
ENERGY: 700000 3.5278 4.3838 1.1387 0.0000 -12304.3968 1745.0897 0.0000 0.0000 1298.1503 -9252.1065 218.7739 -10550.2569 -9249.4259 218.7739 -1360.0012 -1266.2588 29620.3490 -1360.0012 -1266.2588
ENERGY: 800000 0.7528 1.5044 1.6560 0.0000 -11847.9680 1684.4194 0.0000 0.0000 1454.1913 -8705.4441 245.0711 -10159.6354 -8699.2826 239.7300 -190.2325 -85.0163 29189.8295 4.4312 4.2899
TCL: Running 100000 steps at 270 kelvin.
TCL: Setting parameter langevinTemp to 270
TCL: Running for 100000 steps
ETITLE: TS BOND ANGLE DIHED IMPRP ELECT VDW BOUNDARY MISC KINETIC TOTAL TEMP POTENTIAL TOTAL3 TEMPAVG PRESSURE GPRESSURE VOLUME PRESSAVG GPRESSAVG
ENERGY: 800000 0.7528 1.5044 1.6560 0.0000 -11847.9680 1684.4194 0.0000 0.0000 1453.4858 -8706.1496 244.9522 -10159.6354 -8703.8527 244.9522 -174.0979 -83.1781 29189.8295 -174.0979 -83.1781
ENERGY: 900000 1.6218 4.7551 3.9915 0.0000 -11185.7596 1472.3165 0.0000 0.0000 1580.1474 -8122.9273 266.2982 -9703.0747 -8119.5459 270.1925 -835.7349 -738.4013 30063.9099 3.8644 3.8786
TCL: Running 1000000 steps at 300 kelvin.
TCL: Setting parameter langevinTemp to 300
TCL: Running for 1000000 steps
ETITLE: TS BOND ANGLE DIHED IMPRP ELECT VDW BOUNDARY MISC KINETIC TOTAL TEMP POTENTIAL TOTAL3 TEMPAVG PRESSURE GPRESSURE VOLUME PRESSAVG GPRESSAVG
ENERGY: 900000 1.6218 4.7551 3.9915 0.0000 -11185.7596 1472.3165 0.0000 0.0000 1579.3274 -8123.7473 266.1600 -9703.0747 -8121.2770 266.1600 -820.4638 -740.2082 30063.9099 -820.4638 -740.2082
ENERGY: 1100000 3.4131 5.5137 3.3835 0.0000 -10674.2100 1354.2894 0.0000 0.0000 1805.5694 -7502.0409 304.2880 -9307.6103 -7500.3512 300.4706 -835.0658 -805.9016 31209.4286 3.1796 2.9744
ENERGY: 1300000 2.4017 8.5455 1.6462 0.0000 -10859.6247 1515.6124 0.0000 0.0000 1755.0750 -7576.3438 295.7783 -9331.4189 -7573.4955 299.8898 599.7537 639.9203 30755.8871 2.5880 2.5002
ENERGY: 1500000 1.2420 4.6719 4.2586 0.0000 -10791.6505 1432.9559 0.0000 0.0000 1883.6853 -7464.8369 317.4526 -9348.5222 -7460.4909 300.3619 -56.1667 44.8915 30599.9944 1.6722 1.5698
ENERGY: 1700000 1.9992 3.8437 1.6736 0.0000 -10796.0517 1475.0563 0.0000 0.0000 1818.7282 -7494.7506 306.5056 -9313.4788 -7489.5682 300.4959 536.3768 602.1177 30416.7892 3.6790 3.6911
ENERGY: 1900000 2.6874 4.8489 1.4008 0.0000 -10775.5713 1431.8157 0.0000 0.0000 1704.0243 -7630.7941 287.1748 -9334.8184 -7628.9165 299.8778 -281.6221 -194.0647 31028.9960 2.5770 2.8290
TCL: Exiting due to exit command.
