Info: SIMULATION PARAMETERS:
Info: TIMESTEP               2
Info: NUMBER OF STEPS        0
Info: STEPS PER CYCLE        10
Info: PERIODIC CELL BASIS 1  32.853 0 0
Info: PERIODIC CELL BASIS 2  0 36.762 0
Info: PERIODIC CELL BASIS 3  0 0 36.199
Info: PERIODIC CELL CENTER   0 0 0
Info: WRAPPING WATERS AROUND PERIODIC BOUNDARIES ON OUTPUT.
Info: WRAPPING ALL CLUSTERS AROUND PERIODIC BOUNDARIES ON OUTPUT.
Info: FIRST LDB TIMESTEP     50
Info: LAST LDB TIMESTEP     -1
Info: HOM BACKGROUND SCALING 1
Info: PME BACKGROUND SCALING 1
Info: MIN ATOMS PER PATCH    40
Info: EMPTY PATCH LOAD       40 ATOMS
Info: INITIAL TEMPERATURE    300
Info: CENTER OF MASS MOVING INITIALLY? NO
Info: DIELECTRIC             1
Info: EXCLUDE                SCALED ONE-FOUR
Info: 1-4 ELECTROSTATICS SCALED BY 0.833333
Info: MODIFIED 1-4 VDW PARAMETERS WILL BE USED
Info: DCD FILENAME           mobley_2782339_equil.dcd
Info: DCD FREQUENCY          100000
Info: DCD FIRST STEP         100000
Info: DCD FILE WILL CONTAIN UNIT CELL DATA
Info: XST FILENAME           mobley_2782339_equil.xst
Info: XST FREQUENCY          100000
Info: NO VELOCITY DCD OUTPUT
Info: NO FORCE DCD OUTPUT
Info: OUTPUT FILENAME        mobley_2782339_equil
Info: BINARY OUTPUT FILES WILL BE USED
Info: RESTART FILENAME       mobley_2782339_equil.restart
Info: RESTART FREQUENCY      100000
Info: BINARY RESTART FILES WILL BE USED
Info: CUTOFF                 9
Info: PAIRLIST DISTANCE      11
Info: PAIRLIST SHRINK RATE   0.01
Info: PAIRLIST GROW RATE     0.01
Info: PAIRLIST TRIGGER       0.3
Info: PAIRLISTS PER CYCLE    2
Info: PAIRLISTS ENABLED
Info: MARGIN                 8
Info: HYDROGEN GROUP CUTOFF  2.5
Info: PATCH DIMENSION        21.5
Info: ENERGY OUTPUT STEPS    100000
Info: ENERGY EVALUATION STEPS    100000
Info: OUTPUT ENERGY PRECISION 4
Info: CROSSTERM ENERGY INCLUDED IN DIHEDRAL
Info: TIMING OUTPUT STEPS    1000000
Info: PRESSURE OUTPUT STEPS  100000
Info: LANGEVIN DYNAMICS ACTIVE
Info: LANGEVIN TEMPERATURE   30
Info: LANGEVIN USING BBK INTEGRATOR
Info: LANGEVIN DAMPING COEFFICIENT IS 1 INVERSE PS
Info: LANGEVIN DYNAMICS APPLIED TO HYDROGENS
Info: LANGEVIN PISTON PRESSURE CONTROL ACTIVE
Info:        TARGET PRESSURE IS 1.01325 BAR
Info:     OSCILLATION PERIOD IS 50 FS
Info:             DECAY TIME IS 25 FS
Info:     PISTON TEMPERATURE IS 300 K
Info:       PRESSURE CONTROL IS GROUP-BASED
Info:    INITIAL STRAIN RATE IS 0 0 0
Info:       CELL FLUCTUATION IS ISOTROPIC
Info: PARTICLE MESH EWALD (PME) ACTIVE
Info: PME TOLERANCE               1e-06
Info: PME EWALD COEFFICIENT       0.348832
Info: PME INTERPOLATION ORDER     4
Info: PME GRID DIMENSIONS         36 40 40
Info: PME MAXIMUM GRID SPACING    1
Info: FULL ELECTROSTATIC EVALUATION FREQUENCY      2
Info: USING VERLET I (r-RESPA) MTS SCHEME.
Info: C1 SPLITTING OF LONG RANGE ELECTROSTATICS
Info: PLACING ATOMS IN PATCHES BY HYDROGEN GROUPS
Info: RIGID BONDS TO HYDROGEN : ALL
Info:         ERROR TOLERANCE : 1e-08
Info:          MAX ITERATIONS : 100
Info: RIGID WATER USING SETTLE ALGORITHM
Info: RANDOM NUMBER SEED     1743212673
Info: USE HYDROGEN BONDS?    NO
Info: Using AMBER format force field!
Info: AMBER PARM FILE        mobley_2782339.prmtop
Info: COORDINATE PDB         mobley_2782339.pdb
Info: Exclusions will be read from PARM file!
Info: SCNB (VDW SCALING)     2
Info: USING ARITHMETIC MEAN TO COMBINE L-J SIGMA PARAMETERS
Info: BINARY COORDINATES     mobley_2782339_min.coor
Info: SUMMARY OF PARAMETERS:
Info: 8 BONDS
Info: 8 ANGLES
Info:   8 HARMONIC
Info:   0 COSINE-BASED
Info: 6 DIHEDRAL
Info: 0 IMPROPER
Info: 0 CROSSTERM
Info: 0 VDW
Info: 28 VDW_PAIRS
Info: 0 NBTHOLE_PAIRS
Info: STRUCTURE SUMMARY:
Info: 2905 ATOMS
Info: 2906 BONDS
Info: 27 ANGLES
Info: 51 DIHEDRALS
Info: 0 IMPROPERS
Info: 0 CROSSTERMS
Info: 2965 EXCLUSIONS
Info: 2894 RIGID BONDS
Info: 5821 DEGREES OF FREEDOM
Info: 974 HYDROGEN GROUPS
Info: 3 ATOMS IN LARGEST HYDROGEN GROUP
Info: 974 MIGRATION GROUPS
Info: 3 ATOMS IN LARGEST MIGRATION GROUP
Info: TOTAL MASS = 17496.5 amu
Info: TOTAL CHARGE = 5.21541e-08 e
Info: MASS DENSITY = 0.66457 g/cm^3
Info: ATOM DENSITY = 0.066447 atoms/A^3
Info: ADDED 0 IMPLICIT EXCLUSIONS
Info: NONBONDED TABLE R-SQUARED SPACING: 0.0625
Info: NONBONDED TABLE SIZE: 705 POINTS
Info: REMOVING COM VELOCITY 0.0132753 -0.102822 -0.167795
TCL: Running for 100000 steps
ETITLE: TS BOND ANGLE DIHED IMPRP ELECT VDW BOUNDARY MISC KINETIC TOTAL TEMP POTENTIAL TOTAL3 TEMPAVG PRESSURE GPRESSURE VOLUME PRESSAVG GPRESSAVG
ENERGY: 0 0.4786 21.0230 8.2238 0.0000 -13447.8778 2360.1987 0.0000 0.0000 1764.5021 -9293.4516 305.0809 -11057.9537 -9293.0915 305.0809 378.3293 414.4613 43719.0522 378.3293 414.4613
ENERGY: 100000 1.4199 21.7646 8.4299 0.0000 -14156.4799 2511.0103 0.0000 0.0000 167.8328 -11446.0224 29.0182 -11613.8553 -11445.4231 30.9992 601.3556 650.5787 27990.0675 3.8984 3.8937
TCL: Running 100000 steps at 60 kelvin.
TCL: Setting parameter langevinTemp to 60
TCL: Running for 100000 steps
ETITLE: TS BOND ANGLE DIHED IMPRP ELECT VDW BOUNDARY MISC KINETIC TOTAL TEMP POTENTIAL TOTAL3 TEMPAVG PRESSURE GPRESSURE VOLUME PRESSAVG GPRESSAVG
ENERGY: 100000 1.4199 21.7646 8.4299 0.0000 -14156.4799 2511.0103 0.0000 0.0000 167.7474 -11446.1078 29.0034 -11613.8553 -11445.8213 29.0034 591.9839 650.7010 27990.0675 591.9839 650.7010
ENERGY: 200000 1.3465 22.0154 9.9794 0.0000 -14033.0561 2438.3515 0.0000 0.0000 343.7801 -11217.5832 59.4393 -11561.3633 -11216.9570 59.9930 327.0234 381.6735 27903.9203 4.2984 4.3150
TCL: Running 100000 steps at 90 kelvin.
TCL: Setting parameter langevinTemp to 90
TCL: Running for 100000 steps
ETITLE: TS BOND ANGLE DIHED IMPRP ELECT VDW BOUNDARY MISC KINETIC TOTAL TEMP POTENTIAL TOTAL3 TEMPAVG PRESSURE GPRESSURE VOLUME PRESSAVG GPRESSAVG
ENERGY: 200000 1.3465 22.0154 9.9794 0.0000 -14033.0561 2438.3515 0.0000 0.0000 343.6065 -11217.7568 59.4093 -11561.3633 -11217.0401 59.4093 334.6129 381.3873 27903.9203 334.6129 381.3873
ENERGY: 300000 1.9537 20.8926 10.4702 0.0000 -13801.4677 2325.6597 0.0000 0.0000 518.4034 -10924.0881 89.6315 -11442.4914 -10922.7745 90.2362 -235.6475 -213.0827 28102.4351 3.6355 3.7606
TCL: Running 100000 steps at 120 kelvin.
TCL: Setting parameter langevinTemp to 120
TCL: Running for 100000 steps
ETITLE: TS BOND ANGLE DIHED IMPRP ELECT VDW BOUNDARY MISC KINETIC TOTAL TEMP POTENTIAL TOTAL3 TEMPAVG PRESSURE GPRESSURE VOLUME PRESSAVG GPRESSAVG
ENERGY: 300000 1.9537 20.8926 10.4702 0.0000 -13801.4677 2325.6597 0.0000 0.0000 518.1388 -10924.3526 89.5857 -11442.4914 -10923.0568 89.5857 -260.1121 -213.0680 28102.4351 -260.1121 -213.0680
ENERGY: 400000 1.3651 22.5555 10.2902 0.0000 -13738.0416 2391.8491 0.0000 0.0000 677.7906 -10634.1910 117.1894 -11311.9816 -10632.2894 119.8574 659.9915 707.5262 28444.9554 4.0189 3.9904
TCL: Running 100000 steps at 150 kelvin.
TCL: Setting parameter langevinTemp to 150
TCL: Running for 100000 steps
ETITLE: TS BOND ANGLE DIHED IMPRP ELECT VDW BOUNDARY MISC KINETIC TOTAL TEMP POTENTIAL TOTAL3 TEMPAVG PRESSURE GPRESSURE VOLUME PRESSAVG GPRESSAVG
ENERGY: 400000 1.3651 22.5555 10.2902 0.0000 -13738.0416 2391.8491 0.0000 0.0000 677.4490 -10634.5325 117.1303 -11311.9816 -10633.1171 117.1303 654.7208 707.3742 28444.9554 654.7208 707.3742
ENERGY: 500000 1.4656 23.0005 10.3264 0.0000 -13216.9420 2064.9718 0.0000 0.0000 884.7622 -10232.4155 152.9746 -11117.1777 -10230.2138 150.0640 -1398.1375 -1352.8927 28700.5552 4.1669 4.0748
TCL: Running 100000 steps at 180 kelvin.
TCL: Setting parameter langevinTemp to 180
TCL: Running for 100000 steps
ETITLE: TS BOND ANGLE DIHED IMPRP ELECT VDW BOUNDARY MISC KINETIC TOTAL TEMP POTENTIAL TOTAL3 TEMPAVG PRESSURE GPRESSURE VOLUME PRESSAVG GPRESSAVG
ENERGY: 500000 1.4656 23.0005 10.3264 0.0000 -13216.9420 2064.9718 0.0000 0.0000 884.3388 -10232.8388 152.9014 -11117.1777 -10231.1194 152.9014 -1417.8739 -1352.1233 28700.5552 -1417.8739 -1352.1233
ENERGY: 600000 2.2944 23.2011 10.1319 0.0000 -13009.8623 2038.1774 0.0000 0.0000 1051.3080 -9884.7496 181.7702 -10936.0576 -9882.4033 180.1235 -529.2653 -450.7181 28434.1254 4.5973 4.5746
TCL: Running 100000 steps at 210 kelvin.
TCL: Setting parameter langevinTemp to 210
TCL: Running for 100000 steps
ETITLE: TS BOND ANGLE DIHED IMPRP ELECT VDW BOUNDARY MISC KINETIC TOTAL TEMP POTENTIAL TOTAL3 TEMPAVG PRESSURE GPRESSURE VOLUME PRESSAVG GPRESSAVG
ENERGY: 600000 2.2944 23.2011 10.1319 0.0000 -13009.8623 2038.1774 0.0000 0.0000 1050.7779 -9885.2797 181.6786 -10936.0576 -9883.4324 181.6786 -519.4068 -450.3331 28434.1254 -519.4068 -450.3331
ENERGY: 700000 5.7234 21.8505 10.4472 0.0000 -12248.9356 1850.3004 0.0000 0.0000 1232.0834 -9128.5309 213.0261 -10360.6143 -9125.2371 209.7305 -80.2867 14.0290 28442.3645 3.2998 3.2395
TCL: Running 100000 steps at 240 kelvin.
TCL: Setting parameter langevinTemp to 240
TCL: Running for 100000 steps
ETITLE: TS BOND ANGLE DIHED IMPRP ELECT VDW BOUNDARY MISC KINETIC TOTAL TEMP POTENTIAL TOTAL3 TEMPAVG PRESSURE GPRESSURE VOLUME PRESSAVG GPRESSAVG
ENERGY: 700000 5.7234 21.8505 10.4472 0.0000 -12248.9356 1850.3004 0.0000 0.0000 1231.4663 -9129.1480 212.9194 -10360.6143 -9127.0032 212.9194 -64.0200 13.8154 28442.3645 -64.0200 13.8154
ENERGY: 800000 0.8929 23.1072 11.1666 0.0000 -11697.1339 1716.2451 0.0000 0.0000 1384.3646 -8561.3576 239.3554 -9945.7222 -8557.4680 240.2474 438.1709 533.0300 28283.9007 2.8083 2.8579
TCL: Running 100000 steps at 270 kelvin.
TCL: Setting parameter langevinTemp to 270
TCL: Running for 100000 steps
ETITLE: TS BOND ANGLE DIHED IMPRP ELECT VDW BOUNDARY MISC KINETIC TOTAL TEMP POTENTIAL TOTAL3 TEMPAVG PRESSURE GPRESSURE VOLUME PRESSAVG GPRESSAVG
ENERGY: 800000 0.8929 23.1072 11.1666 0.0000 -11697.1339 1716.2451 0.0000 0.0000 1383.6721 -8562.0501 239.2357 -9945.7222 -8559.1450 239.2357 464.6738 533.6395 28283.9007 464.6738 533.6395
ENERGY: 900000 4.0017 24.8930 11.9747 0.0000 -11030.8880 1506.2812 0.0000 0.0000 1531.3064 -7952.4309 264.7615 -9483.7373 -7948.3954 269.8173 -287.6609 -236.1902 29450.9959 3.1954 3.2286
TCL: Running 1000000 steps at 300 kelvin.
TCL: Setting parameter langevinTemp to 300
TCL: Running for 1000000 steps
ETITLE: TS BOND ANGLE DIHED IMPRP ELECT VDW BOUNDARY MISC KINETIC TOTAL TEMP POTENTIAL TOTAL3 TEMPAVG PRESSURE GPRESSURE VOLUME PRESSAVG GPRESSAVG
ENERGY: 900000 4.0017 24.8930 11.9747 0.0000 -11030.8880 1506.2812 0.0000 0.0000 1530.5352 -7953.2021 264.6282 -9483.7373 -7950.8892 264.6282 -304.3077 -234.3787 29450.9959 -304.3077 -234.3787
ENERGY: 1100000 2.4673 23.7026 12.0959 0.0000 -10611.1542 1406.6328 0.0000 0.0000 1762.4872 -7403.7685 304.7325 -9166.2556 -7400.2081 300.6457 86.6184 204.2440 29426.2962 3.7926 3.7771
ENERGY: 1300000 2.6687 22.9790 13.5314 0.0000 -10719.4205 1474.1384 0.0000 0.0000 1775.1836 -7430.9195 306.9277 -9206.1031 -7427.4468 299.9041 388.1824 496.5246 29681.2721 3.1333 2.9568
ENERGY: 1500000 4.2335 28.9815 10.8642 0.0000 -10571.7739 1375.5196 0.0000 0.0000 1703.5453 -7448.6298 294.5415 -9152.1751 -7445.9364 300.1124 -201.8094 -102.0840 29709.9320 2.5535 2.6387
ENERGY: 1700000 4.0486 22.3051 13.2985 0.0000 -10706.6679 1488.2852 0.0000 0.0000 1699.1677 -7479.5628 293.7846 -9178.7305 -7476.6470 300.2211 460.3859 564.2731 29971.9133 2.7728 2.7501
ENERGY: 1900000 3.0957 25.7023 11.1730 0.0000 -10576.2754 1429.7735 0.0000 0.0000 1695.3211 -7411.2099 293.1195 -9106.5310 -7408.3098 299.9526 -52.6930 67.7577 30062.2258 1.3028 1.2561
TCL: Exiting due to exit command.
