Info: SIMULATION PARAMETERS:
Info: TIMESTEP               2
Info: NUMBER OF STEPS        0
Info: STEPS PER CYCLE        10
Info: PERIODIC CELL BASIS 1  34.986 0 0
Info: PERIODIC CELL BASIS 2  0 34.696 0
Info: PERIODIC CELL BASIS 3  0 0 36.199
Info: PERIODIC CELL CENTER   0 0 0
Info: WRAPPING WATERS AROUND PERIODIC BOUNDARIES ON OUTPUT.
Info: WRAPPING ALL CLUSTERS AROUND PERIODIC BOUNDARIES ON OUTPUT.
Info: FIRST LDB TIMESTEP     50
Info: LAST LDB TIMESTEP     -1
Info: HOM BACKGROUND SCALING 1
Info: PME BACKGROUND SCALING 1
Info: MIN ATOMS PER PATCH    40
Info: EMPTY PATCH LOAD       40 ATOMS
Info: INITIAL TEMPERATURE    300
Info: CENTER OF MASS MOVING INITIALLY? NO
Info: DIELECTRIC             1
Info: EXCLUDE                SCALED ONE-FOUR
Info: 1-4 ELECTROSTATICS SCALED BY 0.833333
Info: MODIFIED 1-4 VDW PARAMETERS WILL BE USED
Info: DCD FILENAME           mobley_8522124_equil.dcd
Info: DCD FREQUENCY          100000
Info: DCD FIRST STEP         100000
Info: DCD FILE WILL CONTAIN UNIT CELL DATA
Info: XST FILENAME           mobley_8522124_equil.xst
Info: XST FREQUENCY          100000
Info: NO VELOCITY DCD OUTPUT
Info: NO FORCE DCD OUTPUT
Info: OUTPUT FILENAME        mobley_8522124_equil
Info: BINARY OUTPUT FILES WILL BE USED
Info: RESTART FILENAME       mobley_8522124_equil.restart
Info: RESTART FREQUENCY      100000
Info: BINARY RESTART FILES WILL BE USED
Info: CUTOFF                 9
Info: PAIRLIST DISTANCE      11
Info: PAIRLIST SHRINK RATE   0.01
Info: PAIRLIST GROW RATE     0.01
Info: PAIRLIST TRIGGER       0.3
Info: PAIRLISTS PER CYCLE    2
Info: PAIRLISTS ENABLED
Info: MARGIN                 8
Info: HYDROGEN GROUP CUTOFF  2.5
Info: PATCH DIMENSION        21.5
Info: ENERGY OUTPUT STEPS    100000
Info: ENERGY EVALUATION STEPS    100000
Info: OUTPUT ENERGY PRECISION 4
Info: CROSSTERM ENERGY INCLUDED IN DIHEDRAL
Info: TIMING OUTPUT STEPS    1000000
Info: PRESSURE OUTPUT STEPS  100000
Info: LANGEVIN DYNAMICS ACTIVE
Info: LANGEVIN TEMPERATURE   30
Info: LANGEVIN USING BBK INTEGRATOR
Info: LANGEVIN DAMPING COEFFICIENT IS 1 INVERSE PS
Info: LANGEVIN DYNAMICS APPLIED TO HYDROGENS
Info: LANGEVIN PISTON PRESSURE CONTROL ACTIVE
Info:        TARGET PRESSURE IS 1.01325 BAR
Info:     OSCILLATION PERIOD IS 50 FS
Info:             DECAY TIME IS 25 FS
Info:     PISTON TEMPERATURE IS 300 K
Info:       PRESSURE CONTROL IS GROUP-BASED
Info:    INITIAL STRAIN RATE IS 0 0 0
Info:       CELL FLUCTUATION IS ISOTROPIC
Info: PARTICLE MESH EWALD (PME) ACTIVE
Info: PME TOLERANCE               1e-06
Info: PME EWALD COEFFICIENT       0.348832
Info: PME INTERPOLATION ORDER     4
Info: PME GRID DIMENSIONS         36 36 40
Info: PME MAXIMUM GRID SPACING    1
Info: FULL ELECTROSTATIC EVALUATION FREQUENCY      2
Info: USING VERLET I (r-RESPA) MTS SCHEME.
Info: C1 SPLITTING OF LONG RANGE ELECTROSTATICS
Info: PLACING ATOMS IN PATCHES BY HYDROGEN GROUPS
Info: RIGID BONDS TO HYDROGEN : ALL
Info:         ERROR TOLERANCE : 1e-08
Info:          MAX ITERATIONS : 100
Info: RIGID WATER USING SETTLE ALGORITHM
Info: RANDOM NUMBER SEED     1743256313
Info: USE HYDROGEN BONDS?    NO
Info: Using AMBER format force field!
Info: AMBER PARM FILE        mobley_8522124.prmtop
Info: COORDINATE PDB         mobley_8522124.pdb
Info: Exclusions will be read from PARM file!
Info: SCNB (VDW SCALING)     2
Info: USING ARITHMETIC MEAN TO COMBINE L-J SIGMA PARAMETERS
Info: BINARY COORDINATES     mobley_8522124_min.coor
Info: SUMMARY OF PARAMETERS:
Info: 7 BONDS
Info: 7 ANGLES
Info: 7 DIHEDRAL
Info: 0 IMPROPER
Info: 0 CROSSTERM
Info: 0 VDW
Info: 21 VDW_PAIRS
Info: 0 NBTHOLE_PAIRS
Info: STRUCTURE SUMMARY:
Info: 2920 ATOMS
Info: 2919 BONDS
Info: 38 ANGLES
Info: 55 DIHEDRALS
Info: 0 IMPROPERS
Info: 0 CROSSTERMS
Info: 3006 EXCLUSIONS
Info: 2912 RIGID BONDS
Info: 5848 DEGREES OF FREEDOM
Info: 974 HYDROGEN GROUPS
Info: 4 ATOMS IN LARGEST HYDROGEN GROUP
Info: 974 MIGRATION GROUPS
Info: 4 ATOMS IN LARGEST MIGRATION GROUP
Info: TOTAL MASS = 17513.6 amu
Info: TOTAL CHARGE = -9.99994e-05 e
Info: MASS DENSITY = 0.661859 g/cm^3
Info: ATOM DENSITY = 0.0664527 atoms/A^3
Info: ADDED 0 IMPLICIT EXCLUSIONS
Info: NONBONDED TABLE R-SQUARED SPACING: 0.0625
Info: NONBONDED TABLE SIZE: 705 POINTS
Info: REMOVING COM VELOCITY 0.247969 -0.0431817 -0.0893667
TCL: Running for 100000 steps
ETITLE: TS BOND ANGLE DIHED IMPRP ELECT VDW BOUNDARY MISC KINETIC TOTAL TEMP POTENTIAL TOTAL3 TEMPAVG PRESSURE GPRESSURE VOLUME PRESSAVG GPRESSAVG
ENERGY: 0 0.0589 0.1946 1.2431 0.0000 -13433.2411 2376.3653 0.0000 0.0000 1676.7612 -9378.6180 288.5720 -11055.3792 -9378.3068 288.5720 461.8599 499.6247 43941.0342 461.8599 499.6247
ENERGY: 100000 0.3511 1.2025 1.5338 0.0000 -13942.2651 2369.9477 0.0000 0.0000 177.1344 -11392.0957 30.4850 -11569.2300 -11391.6637 30.9758 -692.2789 -619.5534 28918.6441 2.1709 2.1318
TCL: Running 100000 steps at 60 kelvin.
TCL: Setting parameter langevinTemp to 60
TCL: Running for 100000 steps
ETITLE: TS BOND ANGLE DIHED IMPRP ELECT VDW BOUNDARY MISC KINETIC TOTAL TEMP POTENTIAL TOTAL3 TEMPAVG PRESSURE GPRESSURE VOLUME PRESSAVG GPRESSAVG
ENERGY: 100000 0.3511 1.2025 1.5338 0.0000 -13942.2651 2369.9477 0.0000 0.0000 177.0465 -11392.1836 30.4698 -11569.2300 -11391.6107 30.4698 -674.3765 -619.9180 28918.6441 -674.3765 -619.9180
ENERGY: 200000 1.5065 2.0736 1.6255 0.0000 -13890.0449 2375.4471 0.0000 0.0000 350.5098 -11158.8823 60.3230 -11509.3922 -11158.0202 60.0525 -306.1705 -229.4050 28552.7932 3.3610 3.4723
TCL: Running 100000 steps at 90 kelvin.
TCL: Setting parameter langevinTemp to 90
TCL: Running for 100000 steps
ETITLE: TS BOND ANGLE DIHED IMPRP ELECT VDW BOUNDARY MISC KINETIC TOTAL TEMP POTENTIAL TOTAL3 TEMPAVG PRESSURE GPRESSURE VOLUME PRESSAVG GPRESSAVG
ENERGY: 200000 1.5065 2.0736 1.6255 0.0000 -13890.0449 2375.4471 0.0000 0.0000 350.3352 -11159.0570 60.2930 -11509.3922 -11158.2020 60.2930 -297.5848 -229.6939 28552.7932 -297.5848 -229.6939
ENERGY: 300000 1.9060 4.9235 1.5528 0.0000 -13689.0526 2296.5915 0.0000 0.0000 509.8553 -10874.2235 87.7465 -11384.0788 -10872.9186 90.0391 -598.7771 -569.8615 28955.6432 3.8207 3.8026
TCL: Running 100000 steps at 120 kelvin.
TCL: Setting parameter langevinTemp to 120
TCL: Running for 100000 steps
ETITLE: TS BOND ANGLE DIHED IMPRP ELECT VDW BOUNDARY MISC KINETIC TOTAL TEMP POTENTIAL TOTAL3 TEMPAVG PRESSURE GPRESSURE VOLUME PRESSAVG GPRESSAVG
ENERGY: 300000 1.9060 4.9235 1.5528 0.0000 -13689.0526 2296.5915 0.0000 0.0000 509.6007 -10874.4781 87.7027 -11384.0788 -10873.1745 87.7027 -615.3788 -570.0258 28955.6432 -615.3788 -570.0258
ENERGY: 400000 1.1187 3.8190 1.6424 0.0000 -13555.5663 2270.9235 0.0000 0.0000 693.0576 -10585.0051 119.2758 -11278.0626 -10583.8638 119.9114 -302.9375 -240.6172 28915.3329 4.1149 3.9869
TCL: Running 100000 steps at 150 kelvin.
TCL: Setting parameter langevinTemp to 150
TCL: Running for 100000 steps
ETITLE: TS BOND ANGLE DIHED IMPRP ELECT VDW BOUNDARY MISC KINETIC TOTAL TEMP POTENTIAL TOTAL3 TEMPAVG PRESSURE GPRESSURE VOLUME PRESSAVG GPRESSAVG
ENERGY: 400000 1.1187 3.8190 1.6424 0.0000 -13555.5663 2270.9235 0.0000 0.0000 692.7127 -10585.3500 119.2164 -11278.0626 -10583.9464 119.2164 -297.2306 -241.2576 28915.3329 -297.2306 -241.2576
ENERGY: 500000 1.0359 4.2097 1.6277 0.0000 -13268.9408 2134.3335 0.0000 0.0000 878.4170 -10249.3170 151.1763 -11127.7340 -10246.5986 150.2877 -851.5463 -791.5337 28643.8383 4.0112 3.9920
TCL: Running 100000 steps at 180 kelvin.
TCL: Setting parameter langevinTemp to 180
TCL: Running for 100000 steps
ETITLE: TS BOND ANGLE DIHED IMPRP ELECT VDW BOUNDARY MISC KINETIC TOTAL TEMP POTENTIAL TOTAL3 TEMPAVG PRESSURE GPRESSURE VOLUME PRESSAVG GPRESSAVG
ENERGY: 500000 1.0359 4.2097 1.6277 0.0000 -13268.9408 2134.3335 0.0000 0.0000 877.9818 -10249.7522 151.1014 -11127.7340 -10247.7956 151.1014 -832.1337 -791.4173 28643.8383 -832.1337 -791.4173
ENERGY: 600000 2.5735 5.0572 1.6105 0.0000 -13021.2732 2142.1747 0.0000 0.0000 1026.3906 -9843.4667 176.6427 -10869.8573 -9841.3286 179.7080 96.8753 136.9981 28678.1175 3.5211 3.5160
TCL: Running 100000 steps at 210 kelvin.
TCL: Setting parameter langevinTemp to 210
TCL: Running for 100000 steps
ETITLE: TS BOND ANGLE DIHED IMPRP ELECT VDW BOUNDARY MISC KINETIC TOTAL TEMP POTENTIAL TOTAL3 TEMPAVG PRESSURE GPRESSURE VOLUME PRESSAVG GPRESSAVG
ENERGY: 600000 2.5735 5.0572 1.6105 0.0000 -13021.2732 2142.1747 0.0000 0.0000 1025.8698 -9843.9875 176.5531 -10869.8573 -9842.0528 176.5531 76.4213 136.1350 28678.1175 76.4213 136.1350
ENERGY: 700000 0.6964 8.4267 3.0366 0.0000 -12186.5782 1914.3473 0.0000 0.0000 1226.0608 -9034.0104 211.0061 -10260.0713 -9032.4830 209.5317 796.5788 892.5253 28357.9747 1.6605 1.6647
TCL: Running 100000 steps at 240 kelvin.
TCL: Setting parameter langevinTemp to 240
TCL: Running for 100000 steps
ETITLE: TS BOND ANGLE DIHED IMPRP ELECT VDW BOUNDARY MISC KINETIC TOTAL TEMP POTENTIAL TOTAL3 TEMPAVG PRESSURE GPRESSURE VOLUME PRESSAVG GPRESSAVG
ENERGY: 700000 0.6964 8.4267 3.0366 0.0000 -12186.5782 1914.3473 0.0000 0.0000 1225.4577 -9034.6136 210.9023 -10260.0713 -9032.6730 210.9023 805.3861 891.8449 28357.9747 805.3861 891.8449
ENERGY: 800000 3.9930 6.4002 2.9319 0.0000 -11593.7352 1684.0016 0.0000 0.0000 1426.9457 -8469.4629 245.5786 -9896.4085 -8466.3675 240.3469 -112.1604 -88.7057 29121.5912 2.9953 2.8981
TCL: Running 100000 steps at 270 kelvin.
TCL: Setting parameter langevinTemp to 270
TCL: Running for 100000 steps
ETITLE: TS BOND ANGLE DIHED IMPRP ELECT VDW BOUNDARY MISC KINETIC TOTAL TEMP POTENTIAL TOTAL3 TEMPAVG PRESSURE GPRESSURE VOLUME PRESSAVG GPRESSAVG
ENERGY: 800000 3.9930 6.4002 2.9319 0.0000 -11593.7352 1684.0016 0.0000 0.0000 1426.2293 -8470.1793 245.4553 -9896.4085 -8467.9169 245.4553 -176.0348 -87.1127 29121.5912 -176.0348 -87.1127
ENERGY: 900000 4.1785 7.0039 4.5027 0.0000 -10954.6091 1468.6700 0.0000 0.0000 1584.5862 -7885.6678 272.7086 -9470.2541 -7884.6182 270.0423 -675.7959 -475.8058 29445.7637 2.6942 2.6272
TCL: Running 1000000 steps at 300 kelvin.
TCL: Setting parameter langevinTemp to 300
TCL: Running for 1000000 steps
ETITLE: TS BOND ANGLE DIHED IMPRP ELECT VDW BOUNDARY MISC KINETIC TOTAL TEMP POTENTIAL TOTAL3 TEMPAVG PRESSURE GPRESSURE VOLUME PRESSAVG GPRESSAVG
ENERGY: 900000 4.1785 7.0039 4.5027 0.0000 -10954.6091 1468.6700 0.0000 0.0000 1583.8057 -7886.4484 272.5743 -9470.2541 -7883.7175 272.5743 -562.4165 -475.9638 29445.7637 -562.4165 -475.9638
ENERGY: 1100000 2.5768 10.9769 2.1028 0.0000 -10522.8754 1421.2869 0.0000 0.0000 1676.1767 -7409.7553 288.4714 -9085.9320 -7407.1822 299.6807 -57.3012 82.0939 30537.1324 3.9760 4.0038
ENERGY: 1300000 2.7397 8.2054 2.2910 0.0000 -10460.7154 1395.6225 0.0000 0.0000 1741.3816 -7310.4753 299.6932 -9051.8568 -7306.2996 300.8602 114.1512 127.9774 29980.9667 2.7978 2.5406
ENERGY: 1500000 1.8742 8.2338 2.7802 0.0000 -10451.0661 1344.8986 0.0000 0.0000 1710.4816 -7382.7977 294.3753 -9093.2794 -7379.7480 300.6477 -760.0430 -783.7559 30811.6078 3.1842 3.1286
ENERGY: 1700000 1.8279 8.8108 4.0742 0.0000 -10640.7122 1462.7725 0.0000 0.0000 1740.9479 -7422.2789 299.6186 -9163.2268 -7419.1304 300.2479 153.1523 252.6812 30007.4154 2.1042 2.1606
ENERGY: 1900000 1.6620 10.8567 4.0758 0.0000 -10500.1352 1380.3402 0.0000 0.0000 1744.4354 -7358.7650 300.2188 -9103.2003 -7356.0439 300.3226 -255.8328 -182.9860 30322.1580 4.3642 4.5094
TCL: Exiting due to exit command.
