Info: SIMULATION PARAMETERS:
Info: TIMESTEP               2
Info: NUMBER OF STEPS        0
Info: STEPS PER CYCLE        10
Info: PERIODIC CELL BASIS 1  30.8548 0 0
Info: PERIODIC CELL BASIS 2  0 31.5542 0
Info: PERIODIC CELL BASIS 3  0 0 31.5048
Info: PERIODIC CELL CENTER   0 0 0
Info: WRAPPING WATERS AROUND PERIODIC BOUNDARIES ON OUTPUT.
Info: WRAPPING ALL CLUSTERS AROUND PERIODIC BOUNDARIES ON OUTPUT.
Info: FIRST LDB TIMESTEP     50
Info: LAST LDB TIMESTEP     -1
Info: HOM BACKGROUND SCALING 1
Info: PME BACKGROUND SCALING 1
Info: MIN ATOMS PER PATCH    40
Info: EMPTY PATCH LOAD       40 ATOMS
Info: VELOCITY FILE          mobley_2146331_equil.vel
Info: CENTER OF MASS MOVING INITIALLY? NO
Info: DIELECTRIC             1
Info: EXCLUDE                SCALED ONE-FOUR
Info: 1-4 ELECTROSTATICS SCALED BY 0.833333
Info: MODIFIED 1-4 VDW PARAMETERS WILL BE USED
Info: DCD FILENAME           mobley_2146331_prod.dcd
Info: DCD FREQUENCY          100000
Info: DCD FIRST STEP         100000
Info: DCD FILE WILL CONTAIN UNIT CELL DATA
Info: XST FILENAME           mobley_2146331_prod.xst
Info: XST FREQUENCY          100000
Info: NO VELOCITY DCD OUTPUT
Info: NO FORCE DCD OUTPUT
Info: OUTPUT FILENAME        mobley_2146331_prod
Info: BINARY OUTPUT FILES WILL BE USED
Info: RESTART FILENAME       mobley_2146331_prod.restart
Info: RESTART FREQUENCY      100000
Info: BINARY RESTART FILES WILL BE USED
Info: CUTOFF                 9
Info: PAIRLIST DISTANCE      11
Info: PAIRLIST SHRINK RATE   0.01
Info: PAIRLIST GROW RATE     0.01
Info: PAIRLIST TRIGGER       0.3
Info: PAIRLISTS PER CYCLE    2
Info: PAIRLISTS ENABLED
Info: MARGIN                 2
Info: HYDROGEN GROUP CUTOFF  2.5
Info: PATCH DIMENSION        15.5
Info: ENERGY OUTPUT STEPS    100000
Info: ENERGY EVALUATION STEPS    100000
Info: OUTPUT ENERGY PRECISION 4
Info: CROSSTERM ENERGY INCLUDED IN DIHEDRAL
Info: TIMING OUTPUT STEPS    1000000
Info: PRESSURE OUTPUT STEPS  100000
Info: ALCHEMICAL FEP ON
Info: FEP CURRENT LAMBDA VALUE     1
Info: FEP COMPARISON LAMBDA VALUE  0.95
Info: FEP INTRA-ALCHEMICAL NON-BONDED INTERACTIONS WILL BE RETAINED
Info: FEP INTRA-ALCHEMICAL BONDED INTERACTIONS WILL BE RETAINED
Info: FEP VDW SHIFTING COEFFICIENT 5
Info: FEP ELEC. ACTIVE FOR ANNIHILATED PARTICLES BETWEEN LAMBDA = 0 AND LAMBDA = 0.5
Info: FEP ELEC. ACTIVE FOR EXNIHILATED PARTICLES BETWEEN LAMBDA = 0.5 AND LAMBDA = 1
Info: FEP VDW ACTIVE FOR ANNIHILATED PARTICLES BETWEEN LAMBDA = 0 AND LAMBDA = 1
Info: FEP VDW ACTIVE FOR EXNIHILATED PARTICLES BETWEEN LAMBDA = 0 AND LAMBDA = 1
Info: FEP BOND ACTIVE FOR ANNIHILATED PARTICLES BETWEEN LAMBDA = 1 AND LAMBDA = 1
Info: FEP BOND ACTIVE FOR EXNIHILATED PARTICLES BETWEEN LAMBDA = 0 AND LAMBDA = 0
Info: LANGEVIN DYNAMICS ACTIVE
Info: LANGEVIN TEMPERATURE   300
Info: LANGEVIN USING BBK INTEGRATOR
Info: LANGEVIN DAMPING COEFFICIENT IS 1 INVERSE PS
Info: LANGEVIN DYNAMICS APPLIED TO HYDROGENS
Info: LANGEVIN PISTON PRESSURE CONTROL ACTIVE
Info:        TARGET PRESSURE IS 1.01325 BAR
Info:     OSCILLATION PERIOD IS 50 FS
Info:             DECAY TIME IS 25 FS
Info:     PISTON TEMPERATURE IS 300 K
Info:       PRESSURE CONTROL IS GROUP-BASED
Info:    INITIAL STRAIN RATE IS -0.000410646 -0.000410646 -0.000410646
Info:       CELL FLUCTUATION IS ISOTROPIC
Info: PARTICLE MESH EWALD (PME) ACTIVE
Info: PME TOLERANCE               1e-06
Info: PME EWALD COEFFICIENT       0.348832
Info: PME INTERPOLATION ORDER     4
Info: PME GRID DIMENSIONS         32 32 32
Info: PME MAXIMUM GRID SPACING    1
Info: PME CALCULATION WILL BE PERFORMED ON GPU
Info: FULL ELECTROSTATIC EVALUATION FREQUENCY      2
Info: USING VERLET I (r-RESPA) MTS SCHEME.
Info: C1 SPLITTING OF LONG RANGE ELECTROSTATICS
Info: PLACING ATOMS IN PATCHES BY HYDROGEN GROUPS
Info: RIGID BONDS TO HYDROGEN : ALL
Info:         ERROR TOLERANCE : 1e-08
Info:          MAX ITERATIONS : 100
Info: RIGID WATER USING SETTLE ALGORITHM
Info: RANDOM NUMBER SEED     1743470826
Info: USE HYDROGEN BONDS?    NO
Info: Using AMBER format force field!
Info: AMBER PARM FILE        mobley_2146331.prmtop
Info: COORDINATE PDB         mobley_2146331.pdb
Info: Exclusions will be read from PARM file!
Info: SCNB (VDW SCALING)     2
Info: USING ARITHMETIC MEAN TO COMBINE L-J SIGMA PARAMETERS
Info: BINARY COORDINATES     mobley_2146331_equil.coor
Info: SUMMARY OF PARAMETERS:
Info: 4 BONDS
Info: 2 ANGLES
Info:   2 HARMONIC
Info:   0 COSINE-BASED
Info: 1 DIHEDRAL
Info: 0 IMPROPER
Info: 0 CROSSTERM
Info: 0 VDW
Info: 15 VDW_PAIRS
Info: 0 NBTHOLE_PAIRS
Info: To read alchdata from file: mobley_2146331.pdb
Info: To read alchflag data from column: 5
Info: STRUCTURE SUMMARY:
Info: 2971 ATOMS
Info: 2970 BONDS
Info: 3 ANGLES
Info: 1 DIHEDRALS
Info: 0 IMPROPERS
Info: 0 CROSSTERMS
Info: 2973 EXCLUSIONS
Info: 2969 RIGID BONDS
Info: ALCH: 0 ATOMS TO DISAPPEAR IN FINAL STATE
Info: ALCH: 4 ATOMS TO APPEAR IN FINAL STATE
Info: 5944 DEGREES OF FREEDOM
Info: 991 HYDROGEN GROUPS
Info: 3 ATOMS IN LARGEST HYDROGEN GROUP
Info: 991 MIGRATION GROUPS
Info: 3 ATOMS IN LARGEST MIGRATION GROUP
Info: TOTAL MASS = 17847.9 amu
Info: TOTAL CHARGE = -9.9998e-05 e
Info: MASS DENSITY = 0.966251 g/cm^3
Info: ATOM DENSITY = 0.0968606 atoms/A^3
Info: ADDED 0 IMPLICIT EXCLUSIONS
Info: NONBONDED TABLE R-SQUARED SPACING: 0.0625
Info: NONBONDED TABLE SIZE: 705 POINTS
Info: REMOVING COM VELOCITY 0.270814 0.0834047 -0.0665492
Info: Use 3D box decompostion in PME FFT.
Info: Updated CUDA force table with 4096 elements.
Info: Updated CUDA LJ table with 5 x 5 elements.
Info: Found 7 unique exclusion lists needing 8 bytes
TCL: Running for 1500000 steps
ETITLE: TS BOND ANGLE DIHED IMPRP ELECT VDW BOUNDARY MISC KINETIC TOTAL TEMP POTENTIAL TOTALAVG TEMPAVG PRESSURE GPRESSURE VOLUME PRESSAVG GPRESSAVG
ENERGY: 0 0.1052 1.0514 0.2240 0.0000 -10736.7875 1419.3384 0.0000 0.0000 1751.8879 -7564.1805 296.6319 -9316.0684 -7564.1805 296.6319 -201.3311 -105.0650 30672.9372 -201.3311 -105.0650
ENERGY: 300000 0.3029 1.9722 0.0109 0.0000 -10777.9932 1429.0928 0.0000 0.0000 1764.2991 -7582.3153 298.7334 -9346.6144 -7597.9308 297.6254 -207.5595 -158.2605 30646.0213 -244.1772 -170.1437
ENERGY: 600000 0.3462 0.2809 0.0001 0.0000 -10838.7163 1480.0673 0.0000 0.0000 1724.7639 -7633.2578 292.0393 -9358.0217 -7613.3762 297.1174 200.5128 286.4477 30667.3063 -158.2282 -81.1548
ENERGY: 900000 0.2679 0.5487 0.0792 0.0000 -10780.1557 1510.0734 0.0000 0.0000 1735.9289 -7533.2576 293.9297 -9269.1865 -7588.4284 297.9224 852.9672 896.8428 30457.1935 28.6002 101.5191
ENERGY: 1200000 0.4620 0.0622 0.4564 0.0000 -10803.9970 1434.9750 0.0000 0.0000 1777.0614 -7590.9801 300.8943 -9368.0415 -7578.4161 298.4311 -384.4136 -316.4445 30798.1252 -21.4690 45.8512
ENERGY: 1500000 0.0037 0.5436 0.3889 0.0000 -10815.2435 1472.2614 0.0000 0.0000 1768.1995 -7573.8464 299.3938 -9342.0460 -7569.5579 299.4628 230.4440 309.7480 30397.3247 100.7477 167.0584
TCL: Running FEP window   2: Lambda1 0.95   Lambda2 0.8999999999999999 [dLambda -0.050000000000000044]
TCL: Setting parameter firsttimestep to 0
TCL: Setting parameter alchLambda to 0.95
Info: NONBONDED TABLE R-SQUARED SPACING: 0.0625
Info: NONBONDED TABLE SIZE: 705 POINTS
TCL: Setting parameter alchLambda2 to 0.8999999999999999
Info: NONBONDED TABLE R-SQUARED SPACING: 0.0625
Info: NONBONDED TABLE SIZE: 705 POINTS
TCL: Running for 1500000 steps
ETITLE: TS BOND ANGLE DIHED IMPRP ELECT VDW BOUNDARY MISC KINETIC TOTAL TEMP POTENTIAL TOTALAVG TEMPAVG PRESSURE GPRESSURE VOLUME PRESSAVG GPRESSAVG
ENERGY: 0 0.0037 0.5436 0.3889 0.0000 -10814.3662 1471.9175 0.0000 0.0000 1767.2937 -7574.2188 299.2405 -9341.5125 -7574.2188 299.2405 216.5205 301.6375 30397.3247 216.5205 301.6375
ENERGY: 300000 0.1683 0.4331 0.0247 0.0000 -10882.3279 1470.1190 0.0000 0.0000 1776.4277 -7635.1552 300.7870 -9411.5829 -7584.4525 300.2527 -15.0573 19.5795 30718.1506 -191.9030 -135.0187
ENERGY: 600000 0.0268 1.1523 0.4337 0.0000 -10813.8643 1389.1782 0.0000 0.0000 1776.6558 -7646.4176 300.8257 -9423.0734 -7589.1349 299.5214 -1031.9287 -996.5476 31248.9310 -262.1118 -208.0770
ENERGY: 900000 0.1688 0.4150 0.3107 0.0000 -10771.0105 1440.1267 0.0000 0.0000 1775.0687 -7554.9206 300.5569 -9329.9892 -7575.7268 300.2332 -264.4843 -152.9285 30962.2214 -179.7072 -121.2111
ENERGY: 1200000 0.0026 1.3485 0.0643 0.0000 -10875.5717 1509.9144 0.0000 0.0000 1816.6889 -7547.5530 307.6041 -9364.2420 -7580.1122 300.5975 706.9327 741.7096 30314.0553 -105.3284 -51.9813
ENERGY: 1500000 0.0000 0.2274 0.2529 0.0000 -10807.8666 1428.2068 0.0000 0.0000 1750.8509 -7628.3286 296.4563 -9379.1794 -7585.1173 300.4817 -87.6247 -61.6511 30387.7698 -103.1860 -45.3692
TCL: Running FEP window   3: Lambda1 0.8999999999999999 Lambda2 0.8499999999999999 [dLambda -0.050000000000000044]
TCL: Setting parameter firsttimestep to 0
TCL: Setting parameter alchLambda to 0.8999999999999999
Info: NONBONDED TABLE R-SQUARED SPACING: 0.0625
Info: NONBONDED TABLE SIZE: 705 POINTS
TCL: Setting parameter alchLambda2 to 0.8499999999999999
Info: NONBONDED TABLE R-SQUARED SPACING: 0.0625
Info: NONBONDED TABLE SIZE: 705 POINTS
TCL: Running for 1500000 steps
ETITLE: TS BOND ANGLE DIHED IMPRP ELECT VDW BOUNDARY MISC KINETIC TOTAL TEMP POTENTIAL TOTALAVG TEMPAVG PRESSURE GPRESSURE VOLUME PRESSAVG GPRESSAVG
ENERGY: 0 0.0000 0.2274 0.2529 0.0000 -10806.8032 1427.8461 0.0000 0.0000 1749.9578 -7628.5188 296.3051 -9378.4767 -7628.5188 296.3051 -159.0319 -70.0168 30387.7698 -159.0319 -70.0168
ENERGY: 300000 0.4291 3.2147 0.3585 0.0000 -10596.2521 1342.7899 0.0000 0.0000 1766.7357 -7482.7241 299.1460 -9249.4598 -7538.0067 300.4478 -478.2477 -390.5302 30277.2913 -37.1468 54.2134
ENERGY: 600000 0.0100 0.6895 0.0316 0.0000 -10881.8543 1510.8434 0.0000 0.0000 1756.5172 -7613.7626 297.4158 -9370.2798 -7555.8459 299.9699 425.1549 439.4349 30519.8483 -27.7541 51.2088
ENERGY: 900000 0.0602 0.3639 0.0089 0.0000 -10841.8795 1469.3874 0.0000 0.0000 1738.2144 -7633.8448 294.3167 -9372.0592 -7569.6468 300.0728 -59.3892 -43.9261 30971.5675 53.5656 115.7601
ENERGY: 1200000 0.1149 0.6544 0.0816 0.0000 -10815.6482 1428.2187 0.0000 0.0000 1752.1735 -7634.4050 296.6803 -9386.5786 -7575.3556 299.1930 -337.1039 -236.1411 30727.6948 -116.8785 -54.5348
ENERGY: 1500000 0.1986 0.1841 0.6341 0.0000 -10638.3118 1391.2384 0.0000 0.0000 1760.6033 -7485.4533 298.1076 -9246.0566 -7569.7931 299.3110 -395.9147 -349.1511 31257.0859 -103.2567 -39.6088
TCL: Running FEP window   4: Lambda1 0.8499999999999999 Lambda2 0.7999999999999998 [dLambda -0.050000000000000044]
TCL: Setting parameter firsttimestep to 0
TCL: Setting parameter alchLambda to 0.8499999999999999
Info: NONBONDED TABLE R-SQUARED SPACING: 0.0625
Info: NONBONDED TABLE SIZE: 705 POINTS
TCL: Setting parameter alchLambda2 to 0.7999999999999998
Info: NONBONDED TABLE R-SQUARED SPACING: 0.0625
Info: NONBONDED TABLE SIZE: 705 POINTS
TCL: Running for 1500000 steps
ETITLE: TS BOND ANGLE DIHED IMPRP ELECT VDW BOUNDARY MISC KINETIC TOTAL TEMP POTENTIAL TOTALAVG TEMPAVG PRESSURE GPRESSURE VOLUME PRESSAVG GPRESSAVG
ENERGY: 0 0.1986 0.1841 0.6341 0.0000 -10637.8035 1391.4524 0.0000 0.0000 1759.7465 -7485.5879 297.9626 -9245.3344 -7485.5879 297.9626 -414.4551 -350.5726 31257.0859 -414.4551 -350.5726
ENERGY: 300000 2.0658 0.4820 0.8272 0.0000 -10725.3375 1421.3513 0.0000 0.0000 1759.0614 -7541.5498 297.8466 -9300.6112 -7564.3314 296.5926 -228.1628 -234.1285 30895.9317 -449.4664 -395.1388
ENERGY: 600000 0.3547 0.3224 0.2106 0.0000 -10682.1122 1400.2017 0.0000 0.0000 1755.8050 -7525.2178 297.2952 -9281.0229 -7561.0283 300.4870 -351.1966 -324.8466 30854.8829 -146.3447 -95.4153
ENERGY: 900000 0.1429 0.2893 0.1660 0.0000 -10827.1586 1511.3200 0.0000 0.0000 1759.7234 -7555.5170 297.9586 -9315.2404 -7576.7856 299.5553 512.6490 627.1351 30543.7183 -111.3567 -50.8155
ENERGY: 1200000 0.4227 0.0536 0.0067 0.0000 -10725.5784 1412.0584 0.0000 0.0000 1702.8655 -7610.1716 288.3314 -9313.0371 -7588.8456 298.1699 -157.3718 -109.2417 30568.8054 -21.6126 34.8815
ENERGY: 1500000 0.2690 2.0570 0.6388 0.0000 -10910.1904 1550.7727 0.0000 0.0000 1776.9351 -7579.5178 300.8730 -9356.4529 -7592.0921 298.4919 722.0085 849.2012 30336.3052 -13.5903 47.4513
TCL: Running FEP window   5: Lambda1 0.7999999999999998 Lambda2 0.7499999999999998 [dLambda -0.050000000000000044]
TCL: Setting parameter firsttimestep to 0
TCL: Setting parameter alchLambda to 0.7999999999999998
Info: NONBONDED TABLE R-SQUARED SPACING: 0.0625
Info: NONBONDED TABLE SIZE: 705 POINTS
TCL: Setting parameter alchLambda2 to 0.7499999999999998
Info: NONBONDED TABLE R-SQUARED SPACING: 0.0625
Info: NONBONDED TABLE SIZE: 705 POINTS
TCL: Running for 1500000 steps
ETITLE: TS BOND ANGLE DIHED IMPRP ELECT VDW BOUNDARY MISC KINETIC TOTAL TEMP POTENTIAL TOTALAVG TEMPAVG PRESSURE GPRESSURE VOLUME PRESSAVG GPRESSAVG
ENERGY: 0 0.2690 2.0570 0.6388 0.0000 -10908.5752 1550.6206 0.0000 0.0000 1776.0450 -7578.9448 300.7222 -9354.9898 -7578.9448 300.7222 761.6916 846.6256 30336.3052 761.6916 846.6256
ENERGY: 300000 0.9634 0.4037 0.0990 0.0000 -10788.8859 1422.0934 0.0000 0.0000 1797.8915 -7567.4348 304.4213 -9365.3263 -7570.8639 300.1873 -109.9904 -25.1565 30136.0935 88.9119 155.6521
ENERGY: 600000 0.6043 1.3309 0.0164 0.0000 -10682.8329 1368.2642 0.0000 0.0000 1739.6272 -7572.9898 294.5559 -9312.6170 -7577.6471 298.0025 -498.3300 -343.2810 30487.8680 123.1184 221.2120
ENERGY: 900000 0.0025 0.7419 0.9872 0.0000 -10757.5053 1416.2565 0.0000 0.0000 1731.2440 -7608.2733 293.1365 -9339.5173 -7573.5851 298.6527 -402.9363 -344.8216 30775.2371 -48.5679 37.4801
ENERGY: 1200000 1.8044 0.2429 0.2056 0.0000 -10816.0670 1433.0708 0.0000 0.0000 1801.8710 -7578.8722 305.0951 -9380.7432 -7568.1052 299.6064 -176.9763 -134.7726 30442.1426 -56.3501 24.2111
ENERGY: 1500000 0.4977 1.3836 0.0009 0.0000 -10776.0899 1390.0533 0.0000 0.0000 1754.0967 -7630.0577 297.0059 -9384.1544 -7578.2460 299.0126 -829.3547 -818.0732 31090.5777 -122.6927 -50.5109
TCL: Running FEP window   6: Lambda1 0.7499999999999998 Lambda2 0.6999999999999997 [dLambda -0.050000000000000044]
TCL: Setting parameter firsttimestep to 0
TCL: Setting parameter alchLambda to 0.7499999999999998
Info: NONBONDED TABLE R-SQUARED SPACING: 0.0625
Info: NONBONDED TABLE SIZE: 705 POINTS
TCL: Setting parameter alchLambda2 to 0.6999999999999997
Info: NONBONDED TABLE R-SQUARED SPACING: 0.0625
Info: NONBONDED TABLE SIZE: 705 POINTS
TCL: Running for 1500000 steps
ETITLE: TS BOND ANGLE DIHED IMPRP ELECT VDW BOUNDARY MISC KINETIC TOTAL TEMP POTENTIAL TOTALAVG TEMPAVG PRESSURE GPRESSURE VOLUME PRESSAVG GPRESSAVG
ENERGY: 0 0.4977 1.3836 0.0009 0.0000 -10775.8060 1390.0046 0.0000 0.0000 1753.1549 -7630.7643 296.8465 -9383.9191 -7630.7643 296.8465 -894.4339 -820.7241 31090.5777 -894.4339 -820.7241
ENERGY: 300000 0.8029 0.6507 0.0049 0.0000 -10790.9739 1421.9118 0.0000 0.0000 1765.4926 -7602.1109 298.9355 -9367.6035 -7585.0886 297.6338 -87.0198 13.2703 29943.3502 -215.9863 -141.3842
ENERGY: 600000 0.0186 0.4646 0.0349 0.0000 -10830.5181 1448.3662 0.0000 0.0000 1730.1982 -7651.4355 292.9594 -9381.6338 -7606.0646 295.5418 -197.6691 -73.4730 30383.2953 -333.1729 -252.9459
ENERGY: 900000 0.1320 0.4601 0.0191 0.0000 -10911.5843 1558.6613 0.0000 0.0000 1787.3011 -7565.0107 302.6281 -9352.3118 -7606.1097 296.5333 794.2622 860.2542 30480.1615 -141.7050 -66.4851
ENERGY: 1200000 1.1914 0.6561 0.4768 0.0000 -10779.5944 1445.0430 0.0000 0.0000 1739.3724 -7592.8546 294.5128 -9332.2270 -7604.6586 296.3044 -28.6611 32.0500 30365.3425 -40.4323 39.0550
ENERGY: 1500000 0.0503 0.2678 0.6370 0.0000 -10769.9489 1434.1477 0.0000 0.0000 1748.5146 -7586.3315 296.0608 -9334.8461 -7593.3493 297.4740 -209.0941 -150.4605 30776.3299 -80.4723 -7.1131
TCL: Running FEP window   7: Lambda1 0.6999999999999997 Lambda2 0.6499999999999997 [dLambda -0.050000000000000044]
TCL: Setting parameter firsttimestep to 0
TCL: Setting parameter alchLambda to 0.6999999999999997
Info: NONBONDED TABLE R-SQUARED SPACING: 0.0625
Info: NONBONDED TABLE SIZE: 705 POINTS
TCL: Setting parameter alchLambda2 to 0.6499999999999997
Info: NONBONDED TABLE R-SQUARED SPACING: 0.0625
Info: NONBONDED TABLE SIZE: 705 POINTS
TCL: Running for 1500000 steps
ETITLE: TS BOND ANGLE DIHED IMPRP ELECT VDW BOUNDARY MISC KINETIC TOTAL TEMP POTENTIAL TOTALAVG TEMPAVG PRESSURE GPRESSURE VOLUME PRESSAVG GPRESSAVG
ENERGY: 0 0.0503 0.2678 0.6370 0.0000 -10768.7830 1433.5967 0.0000 0.0000 1747.6655 -7586.5657 295.9170 -9334.2312 -7586.5657 295.9170 -236.6345 -157.5035 30776.3299 -236.6345 -157.5035
ENERGY: 300000 0.0001 1.2372 0.0413 0.0000 -10844.2503 1406.0299 0.0000 0.0000 1711.8450 -7725.0969 289.8518 -9436.9419 -7616.0125 299.3394 -692.4751 -565.3334 30523.5244 -283.4315 -193.6491
ENERGY: 600000 0.4312 1.5575 0.0793 0.0000 -10765.9861 1405.4804 0.0000 0.0000 1799.8271 -7558.6107 304.7491 -9358.4377 -7616.5316 297.5918 -280.5511 -285.0495 30513.1584 -250.9438 -182.8032
ENERGY: 900000 0.4209 0.7995 0.0520 0.0000 -10792.7503 1472.6250 0.0000 0.0000 1823.3196 -7495.5333 308.7268 -9318.8529 -7599.3058 299.4339 241.0306 225.0395 30766.4699 -313.8742 -264.0927
ENERGY: 1200000 0.0887 0.1260 0.3269 0.0000 -10878.2240 1527.6140 0.0000 0.0000 1801.5122 -7548.5562 305.0344 -9350.0684 -7587.0496 299.6772 441.0908 512.3544 30804.0259 -193.8444 -139.7587
ENERGY: 1500000 0.0305 0.2511 0.4606 0.0000 -10624.2445 1279.3964 0.0000 0.0000 1760.6209 -7583.4849 298.1106 -9344.1059 -7584.9992 298.8926 -1278.6845 -1235.0011 30374.2951 -310.7119 -253.9874
TCL: Running FEP window   8: Lambda1 0.6499999999999997 Lambda2 0.5999999999999996 [dLambda -0.050000000000000044]
TCL: Setting parameter firsttimestep to 0
TCL: Setting parameter alchLambda to 0.6499999999999997
Info: NONBONDED TABLE R-SQUARED SPACING: 0.0625
Info: NONBONDED TABLE SIZE: 705 POINTS
TCL: Setting parameter alchLambda2 to 0.5999999999999996
Info: NONBONDED TABLE R-SQUARED SPACING: 0.0625
Info: NONBONDED TABLE SIZE: 705 POINTS
TCL: Running for 1500000 steps
ETITLE: TS BOND ANGLE DIHED IMPRP ELECT VDW BOUNDARY MISC KINETIC TOTAL TEMP POTENTIAL TOTALAVG TEMPAVG PRESSURE GPRESSURE VOLUME PRESSAVG GPRESSAVG
ENERGY: 0 0.0305 0.2511 0.4606 0.0000 -10623.0336 1279.2699 0.0000 0.0000 1759.7217 -7583.2997 297.9584 -9343.0215 -7583.2997 297.9584 -1332.0131 -1233.9869 30374.2951 -1332.0131 -1233.9869
ENERGY: 300000 0.0013 0.8553 0.0426 0.0000 -10813.9267 1490.9778 0.0000 0.0000 1772.5951 -7549.4544 300.1381 -9322.0496 -7557.4272 301.4473 161.9120 201.8558 30908.1371 -530.4703 -477.3021
ENERGY: 600000 0.1156 0.7158 0.0723 0.0000 -10735.4134 1360.2279 0.0000 0.0000 1820.4701 -7553.8116 308.2444 -9374.2818 -7557.5203 302.9098 -813.3505 -770.8348 30662.8456 -338.2583 -279.3069
ENERGY: 900000 0.0283 0.6273 0.3114 0.0000 -10743.8094 1424.1773 0.0000 0.0000 1770.1207 -7548.5445 299.7191 -9318.6652 -7556.5850 302.2038 -312.8220 -217.5175 30779.9749 -347.5282 -277.0084
ENERGY: 1200000 0.2223 2.0889 0.3871 0.0000 -10748.1517 1391.4348 0.0000 0.0000 1810.8562 -7543.1623 306.6165 -9354.0185 -7554.1983 302.5379 -458.5128 -386.4620 30556.3564 -266.7753 -200.2556
ENERGY: 1500000 0.0096 0.7625 0.0326 0.0000 -10920.4578 1494.8920 0.0000 0.0000 1790.9923 -7633.7687 303.2531 -9424.7611 -7550.3939 303.1882 115.6105 194.8275 30546.2821 -248.0882 -181.0163
TCL: Running FEP window   9: Lambda1 0.5999999999999996 Lambda2 0.5499999999999996 [dLambda -0.050000000000000044]
TCL: Setting parameter firsttimestep to 0
TCL: Setting parameter alchLambda to 0.5999999999999996
Info: NONBONDED TABLE R-SQUARED SPACING: 0.0625
Info: NONBONDED TABLE SIZE: 705 POINTS
TCL: Setting parameter alchLambda2 to 0.5499999999999996
Info: NONBONDED TABLE R-SQUARED SPACING: 0.0625
Info: NONBONDED TABLE SIZE: 705 POINTS
TCL: Running for 1500000 steps
ETITLE: TS BOND ANGLE DIHED IMPRP ELECT VDW BOUNDARY MISC KINETIC TOTAL TEMP POTENTIAL TOTALAVG TEMPAVG PRESSURE GPRESSURE VOLUME PRESSAVG GPRESSAVG
ENERGY: 0 0.0096 0.7625 0.0326 0.0000 -10919.6045 1494.6658 0.0000 0.0000 1790.0976 -7634.0363 303.1017 -9424.1340 -7634.0363 303.1017 90.0697 191.9961 30546.2821 90.0697 191.9961
ENERGY: 300000 0.7723 2.0243 0.5782 0.0000 -10794.5311 1424.1429 0.0000 0.0000 1750.8794 -7616.1340 296.4612 -9367.0134 -7574.6476 300.6253 -537.7557 -487.9962 31109.5133 -204.8789 -130.9566
ENERGY: 600000 0.2222 1.8342 0.0020 0.0000 -10857.0879 1446.9940 0.0000 0.0000 1767.8759 -7640.1595 299.3390 -9408.0355 -7593.9337 299.3968 -79.4886 2.8927 30168.4228 -140.7418 -76.3265
ENERGY: 900000 1.1785 0.9082 0.3790 0.0000 -10764.8297 1453.5175 0.0000 0.0000 1758.1340 -7550.7125 297.6895 -9308.8466 -7580.5303 299.5726 -174.5081 -101.0548 31012.5250 -17.3936 46.5672
ENERGY: 1200000 0.1740 0.5661 0.2814 0.0000 -10794.2362 1414.0580 0.0000 0.0000 1810.2092 -7568.9476 306.5070 -9379.1568 -7581.8816 300.5954 -475.1863 -322.3916 30335.7820 -92.1107 -16.8782
ENERGY: 1500000 1.8299 1.4049 0.4210 0.0000 -10805.0776 1448.3864 0.0000 0.0000 1800.3307 -7552.7047 304.8343 -9353.0354 -7581.0916 300.5718 -368.4122 -383.0905 31121.9214 -117.6427 -48.6065
TCL: Running FEP window  10: Lambda1 0.5499999999999996 Lambda2 0.4999999999999996 [dLambda -0.04999999999999999]
TCL: Setting parameter firsttimestep to 0
TCL: Setting parameter alchLambda to 0.5499999999999996
Info: NONBONDED TABLE R-SQUARED SPACING: 0.0625
Info: NONBONDED TABLE SIZE: 705 POINTS
TCL: Setting parameter alchLambda2 to 0.4999999999999996
Info: NONBONDED TABLE R-SQUARED SPACING: 0.0625
Info: NONBONDED TABLE SIZE: 705 POINTS
TCL: Running for 1500000 steps
ETITLE: TS BOND ANGLE DIHED IMPRP ELECT VDW BOUNDARY MISC KINETIC TOTAL TEMP POTENTIAL TOTALAVG TEMPAVG PRESSURE GPRESSURE VOLUME PRESSAVG GPRESSAVG
ENERGY: 0 1.8299 1.4049 0.4210 0.0000 -10805.2449 1448.4716 0.0000 0.0000 1799.4434 -7553.6741 304.6841 -9353.1175 -7553.6741 304.6841 -467.3869 -382.9977 31121.9214 -467.3869 -382.9977
ENERGY: 300000 0.2127 0.4974 0.1266 0.0000 -10896.9850 1477.3323 0.0000 0.0000 1777.0192 -7641.7967 300.8872 -9418.8160 -7595.8116 297.2875 118.7741 176.2048 30438.3556 -222.1190 -181.1510
ENERGY: 600000 0.0000 2.2506 0.5304 0.0000 -10887.9175 1473.2799 0.0000 0.0000 1812.2627 -7599.5939 306.8547 -9411.8566 -7602.8172 299.8591 -269.5710 -154.8546 31024.4078 -113.4687 -67.7396
ENERGY: 900000 0.0002 0.3070 0.3656 0.0000 -10735.7155 1423.0876 0.0000 0.0000 1726.6141 -7585.3409 292.3525 -9311.9550 -7582.5882 300.0727 -308.4997 -238.0160 30856.2877 -107.9217 -61.0828
ENERGY: 1200000 1.0887 0.0977 0.0514 0.0000 -10783.5863 1394.2495 0.0000 0.0000 1779.8634 -7608.2358 301.3688 -9388.0992 -7594.1682 299.2831 -776.1773 -692.4041 31032.0458 -137.3943 -86.2113
ENERGY: 1500000 1.2912 0.1417 0.5902 0.0000 -10791.8469 1427.9850 0.0000 0.0000 1680.8132 -7681.0256 284.5975 -9361.8387 -7604.4241 298.2806 -415.4515 -331.2879 30757.6560 -169.2510 -116.4933
TCL: Running FEP window  11: Lambda1 0.4999999999999996 Lambda2 0.4499999999999996 [dLambda -0.04999999999999999]
TCL: Setting parameter firsttimestep to 0
TCL: Setting parameter alchLambda to 0.4999999999999996
Info: NONBONDED TABLE R-SQUARED SPACING: 0.0625
Info: NONBONDED TABLE SIZE: 705 POINTS
TCL: Setting parameter alchLambda2 to 0.4499999999999996
Info: NONBONDED TABLE R-SQUARED SPACING: 0.0625
Info: NONBONDED TABLE SIZE: 705 POINTS
TCL: Running for 1500000 steps
ETITLE: TS BOND ANGLE DIHED IMPRP ELECT VDW BOUNDARY MISC KINETIC TOTAL TEMP POTENTIAL TOTALAVG TEMPAVG PRESSURE GPRESSURE VOLUME PRESSAVG GPRESSAVG
ENERGY: 0 1.2912 0.1417 0.5902 0.0000 -10791.3711 1427.9444 0.0000 0.0000 1679.9177 -7681.4858 284.4459 -9361.4036 -7681.4858 284.4459 -422.1286 -330.2662 30757.6560 -422.1286 -330.2662
ENERGY: 300000 0.0041 0.1930 0.4743 0.0000 -10809.7461 1488.2950 0.0000 0.0000 1788.1669 -7532.6128 302.7747 -9320.7796 -7563.2136 298.1524 426.8062 500.6495 30664.9901 -56.7846 17.0390
ENERGY: 600000 1.3743 0.1608 0.1996 0.0000 -10826.1279 1455.8844 0.0000 0.0000 1769.6275 -7598.8813 299.6356 -9368.5088 -7557.8888 299.3967 -182.8475 -109.8649 30800.3419 -121.6320 -49.4286
ENERGY: 900000 0.4339 0.6742 0.0873 0.0000 -10913.0229 1491.9305 0.0000 0.0000 1779.4602 -7640.4367 301.3005 -9419.8970 -7576.1922 299.3617 122.4866 155.4694 30600.1809 -122.1404 -52.1631
ENERGY: 1200000 0.1725 0.0873 0.1384 0.0000 -10844.2122 1472.9786 0.0000 0.0000 1746.5280 -7624.3074 295.7244 -9370.8354 -7577.2983 299.7211 211.7615 246.7509 30234.0313 -104.0821 -25.7225
ENERGY: 1500000 0.6429 0.3801 0.1216 0.0000 -10722.2436 1411.4961 0.0000 0.0000 1749.6341 -7559.9689 296.2503 -9309.6029 -7575.8979 299.0796 -284.4827 -234.8925 30651.7702 -143.8018 -69.4141
TCL: Running FEP window  12: Lambda1 0.4499999999999996 Lambda2 0.39999999999999963 [dLambda -0.04999999999999999]
TCL: Setting parameter firsttimestep to 0
TCL: Setting parameter alchLambda to 0.4499999999999996
Info: NONBONDED TABLE R-SQUARED SPACING: 0.0625
Info: NONBONDED TABLE SIZE: 705 POINTS
TCL: Setting parameter alchLambda2 to 0.39999999999999963
Info: NONBONDED TABLE R-SQUARED SPACING: 0.0625
Info: NONBONDED TABLE SIZE: 705 POINTS
TCL: Running for 1500000 steps
ETITLE: TS BOND ANGLE DIHED IMPRP ELECT VDW BOUNDARY MISC KINETIC TOTAL TEMP POTENTIAL TOTALAVG TEMPAVG PRESSURE GPRESSURE VOLUME PRESSAVG GPRESSAVG
ENERGY: 0 0.6429 0.3801 0.1216 0.0000 -10722.2438 1410.8648 0.0000 0.0000 1748.7913 -7561.4431 296.1076 -9310.2344 -7561.4431 296.1076 -332.3883 -239.2282 30651.7702 -332.3883 -239.2282
ENERGY: 300000 0.0526 0.0443 0.0750 0.0000 -10736.6419 1444.9482 0.0000 0.0000 1795.3783 -7496.1435 303.9958 -9291.5218 -7561.9339 302.3406 -8.8647 -12.6445 30730.0454 -384.4276 -338.9699
ENERGY: 600000 0.3762 0.3189 0.4256 0.0000 -10878.6599 1409.7445 0.0000 0.0000 1791.7889 -7676.0058 303.3880 -9467.7947 -7565.0142 302.0886 -234.8588 -213.7130 29954.0392 -237.8197 -190.6851
ENERGY: 900000 0.2097 0.1849 0.1373 0.0000 -10766.4437 1372.4064 0.0000 0.0000 1698.4857 -7695.0198 287.5898 -9393.5055 -7572.4278 299.1526 -842.8898 -718.0647 30441.8349 -269.6856 -218.2121
ENERGY: 1200000 0.2157 0.4169 0.0007 0.0000 -10835.7816 1518.0029 0.0000 0.0000 1821.1552 -7495.9900 308.3604 -9317.1453 -7569.6981 299.7229 763.0919 792.3036 30313.4931 -144.2486 -95.3017
ENERGY: 1500000 0.5690 0.3678 0.2459 0.0000 -10884.5691 1477.9646 0.0000 0.0000 1794.4373 -7610.9845 303.8364 -9405.4218 -7571.4346 300.1850 58.0946 97.9557 30404.9847 -103.2039 -55.4043
TCL: Running FEP window  13: Lambda1 0.39999999999999963 Lambda2 0.34999999999999964 [dLambda -0.04999999999999999]
TCL: Setting parameter firsttimestep to 0
TCL: Setting parameter alchLambda to 0.39999999999999963
Info: NONBONDED TABLE R-SQUARED SPACING: 0.0625
Info: NONBONDED TABLE SIZE: 705 POINTS
TCL: Setting parameter alchLambda2 to 0.34999999999999964
Info: NONBONDED TABLE R-SQUARED SPACING: 0.0625
Info: NONBONDED TABLE SIZE: 705 POINTS
TCL: Running for 1500000 steps
ETITLE: TS BOND ANGLE DIHED IMPRP ELECT VDW BOUNDARY MISC KINETIC TOTAL TEMP POTENTIAL TOTALAVG TEMPAVG PRESSURE GPRESSURE VOLUME PRESSAVG GPRESSAVG
ENERGY: 0 0.5690 0.3678 0.2459 0.0000 -10884.5693 1477.9656 0.0000 0.0000 1793.5739 -7611.8472 303.6902 -9405.4210 -7611.8472 303.6902 5.0083 95.6134 30404.9847 5.0083 95.6134
ENERGY: 300000 0.4214 1.4021 0.1341 0.0000 -10827.2876 1435.8559 0.0000 0.0000 1787.5473 -7601.9268 302.6698 -9389.4741 -7618.2955 301.1456 -320.0184 -264.6627 30710.7474 -17.4960 32.3704
ENERGY: 600000 1.9788 1.2641 0.2158 0.0000 -10751.1353 1432.2664 0.0000 0.0000 1804.7817 -7510.6285 305.5880 -9315.4102 -7590.1756 301.7663 -399.6964 -315.1222 31117.6910 -140.8819 -82.7862
ENERGY: 900000 0.6243 0.3964 0.4777 0.0000 -10669.8995 1393.0517 0.0000 0.0000 1742.8815 -7532.4679 295.1070 -9275.3494 -7565.9885 300.8795 -389.4115 -366.9240 30885.3564 -175.7033 -117.7238
ENERGY: 1200000 0.4204 0.4077 0.0015 0.0000 -10708.4872 1455.1549 0.0000 0.0000 1834.4210 -7418.0817 310.6065 -9252.5027 -7555.0084 301.1586 279.9176 347.6901 30739.7934 -94.5575 -33.4686
ENERGY: 1500000 0.5457 0.5914 0.0241 0.0000 -10883.2987 1540.1481 0.0000 0.0000 1804.2732 -7537.7162 305.5019 -9341.9894 -7551.7926 302.1298 768.2005 741.0101 30422.2545 25.5251 74.2492
TCL: Running FEP window  14: Lambda1 0.34999999999999964 Lambda2 0.29999999999999966 [dLambda -0.04999999999999999]
TCL: Setting parameter firsttimestep to 0
TCL: Setting parameter alchLambda to 0.34999999999999964
Info: NONBONDED TABLE R-SQUARED SPACING: 0.0625
Info: NONBONDED TABLE SIZE: 705 POINTS
TCL: Setting parameter alchLambda2 to 0.29999999999999966
Info: NONBONDED TABLE R-SQUARED SPACING: 0.0625
Info: NONBONDED TABLE SIZE: 705 POINTS
TCL: Running for 1500000 steps
ETITLE: TS BOND ANGLE DIHED IMPRP ELECT VDW BOUNDARY MISC KINETIC TOTAL TEMP POTENTIAL TOTALAVG TEMPAVG PRESSURE GPRESSURE VOLUME PRESSAVG GPRESSAVG
ENERGY: 0 0.5457 0.5914 0.0241 0.0000 -10883.2980 1540.2697 0.0000 0.0000 1803.3984 -7538.4687 305.3537 -9341.8671 -7538.4687 305.3537 660.8327 739.0081 30422.2545 660.8327 739.0081
ENERGY: 300000 0.1267 0.7679 0.0611 0.0000 -10732.1338 1389.7546 0.0000 0.0000 1797.9249 -7543.4986 304.4270 -9341.4236 -7619.5237 299.0546 -598.0569 -597.2294 30822.8582 70.1048 130.1538
ENERGY: 600000 0.6024 0.1832 0.0704 0.0000 -10669.0587 1374.1093 0.0000 0.0000 1762.2231 -7531.8704 298.3819 -9294.0934 -7580.6129 299.9332 -269.5959 -223.9615 30374.3201 -154.7136 -94.5902
ENERGY: 900000 0.0449 0.4950 0.2108 0.0000 -10858.8808 1517.1634 0.0000 0.0000 1781.7775 -7559.1891 301.6929 -9340.9666 -7571.7201 300.0254 309.9705 407.7172 30771.5233 -81.6542 -15.5547
ENERGY: 1200000 0.8313 0.1789 0.2509 0.0000 -10870.9594 1464.6560 0.0000 0.0000 1807.4321 -7597.6102 306.0367 -9405.0422 -7566.0549 300.7727 -110.2419 -79.2830 30577.1704 -89.7508 -31.4218
ENERGY: 1500000 0.0532 0.1927 0.5833 0.0000 -10871.4604 1437.4207 0.0000 0.0000 1811.6841 -7621.5262 306.7567 -9433.2104 -7562.5694 301.8295 194.9916 290.8479 29616.0113 -51.5393 13.9230
TCL: Running FEP window  15: Lambda1 0.29999999999999966 Lambda2 0.24999999999999967 [dLambda -0.04999999999999999]
TCL: Setting parameter firsttimestep to 0
TCL: Setting parameter alchLambda to 0.29999999999999966
Info: NONBONDED TABLE R-SQUARED SPACING: 0.0625
Info: NONBONDED TABLE SIZE: 705 POINTS
TCL: Setting parameter alchLambda2 to 0.24999999999999967
Info: NONBONDED TABLE R-SQUARED SPACING: 0.0625
Info: NONBONDED TABLE SIZE: 705 POINTS
TCL: Running for 1500000 steps
ETITLE: TS BOND ANGLE DIHED IMPRP ELECT VDW BOUNDARY MISC KINETIC TOTAL TEMP POTENTIAL TOTALAVG TEMPAVG PRESSURE GPRESSURE VOLUME PRESSAVG GPRESSAVG
ENERGY: 0 0.0532 0.1927 0.5833 0.0000 -10871.4616 1437.3196 0.0000 0.0000 1810.7824 -7622.5303 306.6040 -9433.3127 -7622.5303 306.6040 208.6254 290.0698 29616.0113 208.6254 290.0698
ENERGY: 300000 0.1006 0.7003 0.4822 0.0000 -10685.0621 1388.4167 0.0000 0.0000 1763.4253 -7531.9370 298.5855 -9295.3624 -7556.7668 304.6190 -416.7969 -365.8218 30741.1925 -222.9885 -165.4630
ENERGY: 600000 0.1503 0.2294 0.0072 0.0000 -10794.0978 1489.1164 0.0000 0.0000 1733.7889 -7570.8057 293.5674 -9304.5945 -7559.5694 300.1891 485.0000 516.6068 30302.2255 7.8776 46.4434
ENERGY: 900000 0.0930 1.2008 0.5709 0.0000 -10791.4905 1467.9836 0.0000 0.0000 1776.0397 -7545.6025 300.7213 -9321.6422 -7549.7014 299.9075 168.7080 224.6328 30720.2782 124.3719 161.8572
ENERGY: 1200000 1.1584 1.6530 0.0196 0.0000 -10933.7679 1551.6890 0.0000 0.0000 1824.1251 -7555.1227 308.8632 -9379.2478 -7541.4599 300.9458 657.5780 755.2018 30580.0255 185.9691 231.5571
ENERGY: 1500000 0.0111 0.7911 0.3000 0.0000 -10859.2752 1506.5666 0.0000 0.0000 1726.8209 -7624.7856 292.3875 -9351.6065 -7545.8672 300.5906 559.9696 672.7089 30005.3005 118.4826 173.2892
TCL: Running FEP window  16: Lambda1 0.24999999999999967 Lambda2 0.19999999999999968 [dLambda -0.04999999999999999]
TCL: Setting parameter firsttimestep to 0
TCL: Setting parameter alchLambda to 0.24999999999999967
Info: NONBONDED TABLE R-SQUARED SPACING: 0.0625
Info: NONBONDED TABLE SIZE: 705 POINTS
TCL: Setting parameter alchLambda2 to 0.19999999999999968
Info: NONBONDED TABLE R-SQUARED SPACING: 0.0625
Info: NONBONDED TABLE SIZE: 705 POINTS
TCL: Running for 1500000 steps
ETITLE: TS BOND ANGLE DIHED IMPRP ELECT VDW BOUNDARY MISC KINETIC TOTAL TEMP POTENTIAL TOTALAVG TEMPAVG PRESSURE GPRESSURE VOLUME PRESSAVG GPRESSAVG
ENERGY: 0 0.0111 0.7911 0.3000 0.0000 -10859.2755 1506.6012 0.0000 0.0000 1725.9092 -7625.6629 292.2332 -9351.5721 -7625.6629 292.2332 577.0600 672.5878 30005.3005 577.0600 672.5878
ENERGY: 300000 0.1452 0.1954 0.1278 0.0000 -10823.8820 1454.7245 0.0000 0.0000 1805.7303 -7562.9588 305.7486 -9368.6891 -7599.0377 298.9850 -308.6588 -216.9831 30988.6130 -189.9017 -140.1083
ENERGY: 600000 0.0155 1.4808 0.4439 0.0000 -10819.9898 1472.1608 0.0000 0.0000 1791.0990 -7554.7898 303.2712 -9345.8888 -7597.8972 298.9067 173.8195 151.3190 30613.4740 -119.4025 -79.2852
ENERGY: 900000 0.1110 0.6774 0.5420 0.0000 -11016.3024 1568.5483 0.0000 0.0000 1754.8909 -7691.5328 297.1404 -9446.4237 -7601.8526 299.3468 687.8420 701.8797 30434.7763 -16.0058 16.2379
ENERGY: 1200000 0.3420 0.5764 0.1848 0.0000 -10786.8023 1413.4070 0.0000 0.0000 1738.6039 -7633.6883 294.3827 -9372.2922 -7601.9498 299.2177 -506.8226 -404.7953 30681.6487 -142.5488 -89.6851
ENERGY: 1500000 0.0003 0.5043 0.5484 0.0000 -10906.4768 1519.5635 0.0000 0.0000 1778.9856 -7606.8747 301.2202 -9385.8604 -7604.1421 298.8930 545.6949 649.7739 30102.6591 -47.3527 10.5160
TCL: Running FEP window  17: Lambda1 0.19999999999999968 Lambda2 0.1499999999999997 [dLambda -0.04999999999999999]
TCL: Setting parameter firsttimestep to 0
TCL: Setting parameter alchLambda to 0.19999999999999968
Info: NONBONDED TABLE R-SQUARED SPACING: 0.0625
Info: NONBONDED TABLE SIZE: 705 POINTS
TCL: Setting parameter alchLambda2 to 0.1499999999999997
Info: NONBONDED TABLE R-SQUARED SPACING: 0.0625
Info: NONBONDED TABLE SIZE: 705 POINTS
TCL: Running for 1500000 steps
ETITLE: TS BOND ANGLE DIHED IMPRP ELECT VDW BOUNDARY MISC KINETIC TOTAL TEMP POTENTIAL TOTALAVG TEMPAVG PRESSURE GPRESSURE VOLUME PRESSAVG GPRESSAVG
ENERGY: 0 0.0003 0.5043 0.5484 0.0000 -10906.4780 1519.5252 0.0000 0.0000 1778.1010 -7607.7988 301.0704 -9385.8997 -7607.7988 301.0704 565.3994 649.1760 30102.6591 565.3994 649.1760
ENERGY: 300000 0.1071 0.0800 0.0349 0.0000 -10781.2946 1480.6339 0.0000 0.0000 1723.9697 -7576.4690 291.9048 -9300.4388 -7605.9224 299.9636 306.2305 418.4815 30393.1190 -59.8154 23.3565
ENERGY: 600000 0.3267 0.5712 0.0342 0.0000 -10741.9448 1379.9127 0.0000 0.0000 1785.1770 -7575.9229 302.2685 -9361.0999 -7583.6965 300.0112 -644.7596 -560.1279 30589.3440 -62.4390 11.6004
ENERGY: 900000 0.0540 0.7768 0.1124 0.0000 -10807.7543 1544.1849 0.0000 0.0000 1749.2226 -7513.4036 296.1806 -9262.6262 -7577.2993 299.6388 1004.1868 1100.1308 30366.0623 111.4812 184.3223
ENERGY: 1200000 0.4402 0.2109 0.6806 0.0000 -10891.6120 1542.1573 0.0000 0.0000 1788.4905 -7559.6324 302.8295 -9348.1229 -7564.4702 300.8978 588.4882 665.8525 30337.8516 55.4956 122.9915
ENERGY: 1500000 0.0090 1.0249 0.1344 0.0000 -10886.2046 1478.1000 0.0000 0.0000 1827.3985 -7579.5377 309.4175 -9406.9362 -7562.3330 301.0066 326.9233 327.7983 30042.9682 36.5949 103.0430
TCL: Running FEP window  18: Lambda1 0.1499999999999997 Lambda2 0.09999999999999969 [dLambda -0.05 ]
TCL: Setting parameter firsttimestep to 0
TCL: Setting parameter alchLambda to 0.1499999999999997
Info: NONBONDED TABLE R-SQUARED SPACING: 0.0625
Info: NONBONDED TABLE SIZE: 705 POINTS
TCL: Setting parameter alchLambda2 to 0.09999999999999969
Info: NONBONDED TABLE R-SQUARED SPACING: 0.0625
Info: NONBONDED TABLE SIZE: 705 POINTS
TCL: Running for 1500000 steps
ETITLE: TS BOND ANGLE DIHED IMPRP ELECT VDW BOUNDARY MISC KINETIC TOTAL TEMP POTENTIAL TOTALAVG TEMPAVG PRESSURE GPRESSURE VOLUME PRESSAVG GPRESSAVG
ENERGY: 0 0.0090 1.0249 0.1344 0.0000 -10886.2026 1477.9903 0.0000 0.0000 1826.5321 -7580.5118 309.2708 -9407.0439 -7580.5118 309.2708 240.0444 330.8084 30042.9682 240.0444 330.8084
ENERGY: 300000 0.0898 0.4474 0.0007 0.0000 -10784.2595 1482.5937 0.0000 0.0000 1703.8278 -7597.3000 288.4943 -9301.1279 -7624.0715 297.8024 52.7616 152.3193 30743.8681 259.1560 341.3337
ENERGY: 600000 0.0149 0.5077 0.0262 0.0000 -10892.6471 1525.5062 0.0000 0.0000 1716.1612 -7650.4309 290.5826 -9366.5921 -7620.5288 296.8131 324.4704 382.9004 30614.7659 113.5766 176.7349
ENERGY: 900000 0.0255 2.5644 0.1565 0.0000 -10746.7746 1425.5320 0.0000 0.0000 1727.0473 -7591.4489 292.4259 -9318.4961 -7602.6985 296.9796 -150.4236 -125.7447 30695.3685 60.8040 118.1952
ENERGY: 1200000 0.6638 1.5387 0.0535 0.0000 -10728.6381 1427.8864 0.0000 0.0000 1790.2776 -7508.2180 303.1321 -9298.4956 -7585.7645 299.5475 57.3800 116.5844 30460.2643 100.9030 159.3901
ENERGY: 1500000 1.0017 2.2616 0.0869 0.0000 -10711.0094 1367.7044 0.0000 0.0000 1774.7993 -7565.1556 300.5113 -9339.9549 -7575.2623 299.9032 -616.5866 -611.4166 30645.2197 -7.6214 52.7978
TCL: Running FEP window  19: Lambda1 0.09999999999999969 Lambda2 0.049999999999999684 [dLambda -0.05 ]
TCL: Setting parameter firsttimestep to 0
TCL: Setting parameter alchLambda to 0.09999999999999969
Info: NONBONDED TABLE R-SQUARED SPACING: 0.0625
Info: NONBONDED TABLE SIZE: 705 POINTS
TCL: Setting parameter alchLambda2 to 0.049999999999999684
Info: NONBONDED TABLE R-SQUARED SPACING: 0.0625
Info: NONBONDED TABLE SIZE: 705 POINTS
TCL: Running for 1500000 steps
ETITLE: TS BOND ANGLE DIHED IMPRP ELECT VDW BOUNDARY MISC KINETIC TOTAL TEMP POTENTIAL TOTALAVG TEMPAVG PRESSURE GPRESSURE VOLUME PRESSAVG GPRESSAVG
ENERGY: 0 1.0017 2.2616 0.0869 0.0000 -10711.0099 1367.6375 0.0000 0.0000 1773.9016 -7566.1207 300.3593 -9340.0223 -7566.1207 300.3593 -701.3330 -610.2922 30645.2197 -701.3330 -610.2922
ENERGY: 300000 0.2714 1.5829 0.0165 0.0000 -10766.0936 1429.6151 0.0000 0.0000 1725.4513 -7609.1564 292.1557 -9334.6077 -7594.7614 297.8926 14.9937 55.3867 30190.9268 132.1028 187.4573
ENERGY: 600000 1.3675 0.6910 0.8133 0.0000 -10695.9542 1384.2763 0.0000 0.0000 1796.9077 -7511.8982 304.2547 -9308.8060 -7577.2606 300.4559 -370.7617 -275.7721 30467.3676 -47.4108 4.7772
ENERGY: 900000 0.0005 2.0446 0.3689 0.0000 -10863.4148 1432.3714 0.0000 0.0000 1748.7740 -7679.8554 296.1047 -9428.6294 -7583.7288 300.2165 -291.0182 -271.6466 30457.8301 14.7436 74.5996
ENERGY: 1200000 0.3723 0.5839 0.0015 0.0000 -10726.8041 1354.0259 0.0000 0.0000 1744.8516 -7626.9688 295.4405 -9371.8204 -7570.6709 299.9933 -919.2300 -880.7580 30731.7328 -119.1097 -64.5481
ENERGY: 1500000 0.0141 0.4045 0.6763 0.0000 -10660.8498 1373.7799 0.0000 0.0000 1773.9008 -7512.0743 300.3592 -9285.9751 -7570.7589 300.0859 -474.5743 -470.5045 30608.0262 -159.9819 -109.3406
TCL: Running FEP window  20: Lambda1 0.049999999999999684 Lambda2 0.0    [dLambda -0.049999999999999684]
TCL: Setting parameter firsttimestep to 0
TCL: Setting parameter alchLambda to 0.049999999999999684
Info: NONBONDED TABLE R-SQUARED SPACING: 0.0625
Info: NONBONDED TABLE SIZE: 705 POINTS
TCL: Setting parameter alchLambda2 to 0.0
Info: NONBONDED TABLE R-SQUARED SPACING: 0.0625
Info: NONBONDED TABLE SIZE: 705 POINTS
TCL: Running for 1500000 steps
ETITLE: TS BOND ANGLE DIHED IMPRP ELECT VDW BOUNDARY MISC KINETIC TOTAL TEMP POTENTIAL TOTALAVG TEMPAVG PRESSURE GPRESSURE VOLUME PRESSAVG GPRESSAVG
ENERGY: 0 0.0141 0.4045 0.6763 0.0000 -10660.8489 1373.7840 0.0000 0.0000 1772.9960 -7512.9740 300.2060 -9285.9700 -7512.9740 300.2060 -554.5408 -469.4183 30608.0262 -554.5408 -469.4183
ENERGY: 300000 0.3381 1.3131 0.7803 0.0000 -10721.4680 1424.7647 0.0000 0.0000 1817.5270 -7476.7449 307.7460 -9294.2719 -7517.2651 304.2101 -192.2933 -71.0319 30696.1617 -56.5999 26.1041
ENERGY: 600000 0.0202 0.9519 0.7511 0.0000 -10913.8529 1536.1687 0.0000 0.0000 1745.2420 -7630.7188 295.5066 -9375.9608 -7557.8695 300.7577 570.3651 578.3262 30440.3226 -70.6571 -1.1320
ENERGY: 900000 0.0015 0.3022 0.3409 0.0000 -10860.2807 1450.1284 0.0000 0.0000 1799.9678 -7609.5398 304.7729 -9409.5076 -7569.1458 301.8948 -189.8544 -113.0040 30435.2592 24.1728 88.0401
ENERGY: 1200000 0.0007 2.0032 0.1260 0.0000 -10779.7576 1442.1542 0.0000 0.0000 1676.2171 -7659.2565 283.8192 -9335.4735 -7576.6178 301.0302 -213.7791 -175.7202 30763.0537 12.9150 78.1716
ENERGY: 1500000 0.2024 0.6845 0.0170 0.0000 -10764.7062 1475.7221 0.0000 0.0000 1738.3733 -7549.7068 294.3436 -9288.0801 -7573.5539 301.2422 178.3879 205.9827 30907.5229 38.8175 102.2036
TCL: Exiting due to exit command.
