Info: SIMULATION PARAMETERS:
Info: TIMESTEP               2
Info: NUMBER OF STEPS        0
Info: STEPS PER CYCLE        10
Info: PERIODIC CELL BASIS 1  34.986 0 0
Info: PERIODIC CELL BASIS 2  0 33.542 0
Info: PERIODIC CELL BASIS 3  0 0 37.451
Info: PERIODIC CELL CENTER   0 0 0
Info: WRAPPING WATERS AROUND PERIODIC BOUNDARIES ON OUTPUT.
Info: WRAPPING ALL CLUSTERS AROUND PERIODIC BOUNDARIES ON OUTPUT.
Info: FIRST LDB TIMESTEP     50
Info: LAST LDB TIMESTEP     -1
Info: HOM BACKGROUND SCALING 1
Info: PME BACKGROUND SCALING 1
Info: MIN ATOMS PER PATCH    40
Info: EMPTY PATCH LOAD       40 ATOMS
Info: INITIAL TEMPERATURE    300
Info: CENTER OF MASS MOVING INITIALLY? NO
Info: DIELECTRIC             1
Info: EXCLUDE                SCALED ONE-FOUR
Info: 1-4 ELECTROSTATICS SCALED BY 0.833333
Info: MODIFIED 1-4 VDW PARAMETERS WILL BE USED
Info: DCD FILENAME           mobley_2972345_equil.dcd
Info: DCD FREQUENCY          100000
Info: DCD FIRST STEP         100000
Info: DCD FILE WILL CONTAIN UNIT CELL DATA
Info: XST FILENAME           mobley_2972345_equil.xst
Info: XST FREQUENCY          100000
Info: NO VELOCITY DCD OUTPUT
Info: NO FORCE DCD OUTPUT
Info: OUTPUT FILENAME        mobley_2972345_equil
Info: BINARY OUTPUT FILES WILL BE USED
Info: RESTART FILENAME       mobley_2972345_equil.restart
Info: RESTART FREQUENCY      100000
Info: BINARY RESTART FILES WILL BE USED
Info: CUTOFF                 9
Info: PAIRLIST DISTANCE      11
Info: PAIRLIST SHRINK RATE   0.01
Info: PAIRLIST GROW RATE     0.01
Info: PAIRLIST TRIGGER       0.3
Info: PAIRLISTS PER CYCLE    2
Info: PAIRLISTS ENABLED
Info: MARGIN                 8
Info: HYDROGEN GROUP CUTOFF  2.5
Info: PATCH DIMENSION        21.5
Info: ENERGY OUTPUT STEPS    100000
Info: ENERGY EVALUATION STEPS    100000
Info: OUTPUT ENERGY PRECISION 4
Info: CROSSTERM ENERGY INCLUDED IN DIHEDRAL
Info: TIMING OUTPUT STEPS    1000000
Info: PRESSURE OUTPUT STEPS  100000
Info: LANGEVIN DYNAMICS ACTIVE
Info: LANGEVIN TEMPERATURE   30
Info: LANGEVIN USING BBK INTEGRATOR
Info: LANGEVIN DAMPING COEFFICIENT IS 1 INVERSE PS
Info: LANGEVIN DYNAMICS APPLIED TO HYDROGENS
Info: LANGEVIN PISTON PRESSURE CONTROL ACTIVE
Info:        TARGET PRESSURE IS 1.01325 BAR
Info:     OSCILLATION PERIOD IS 50 FS
Info:             DECAY TIME IS 25 FS
Info:     PISTON TEMPERATURE IS 300 K
Info:       PRESSURE CONTROL IS GROUP-BASED
Info:    INITIAL STRAIN RATE IS 0 0 0
Info:       CELL FLUCTUATION IS ISOTROPIC
Info: PARTICLE MESH EWALD (PME) ACTIVE
Info: PME TOLERANCE               1e-06
Info: PME EWALD COEFFICIENT       0.348832
Info: PME INTERPOLATION ORDER     4
Info: PME GRID DIMENSIONS         36 36 40
Info: PME MAXIMUM GRID SPACING    1
Info: FULL ELECTROSTATIC EVALUATION FREQUENCY      2
Info: USING VERLET I (r-RESPA) MTS SCHEME.
Info: C1 SPLITTING OF LONG RANGE ELECTROSTATICS
Info: PLACING ATOMS IN PATCHES BY HYDROGEN GROUPS
Info: RIGID BONDS TO HYDROGEN : ALL
Info:         ERROR TOLERANCE : 1e-08
Info:          MAX ITERATIONS : 100
Info: RIGID WATER USING SETTLE ALGORITHM
Info: RANDOM NUMBER SEED     1743222915
Info: USE HYDROGEN BONDS?    NO
Info: Using AMBER format force field!
Info: AMBER PARM FILE        mobley_2972345.prmtop
Info: COORDINATE PDB         mobley_2972345.pdb
Info: Exclusions will be read from PARM file!
Info: SCNB (VDW SCALING)     2
Info: USING ARITHMETIC MEAN TO COMBINE L-J SIGMA PARAMETERS
Info: BINARY COORDINATES     mobley_2972345_min.coor
Info: SUMMARY OF PARAMETERS:
Info: 6 BONDS
Info: 6 ANGLES
Info:   6 HARMONIC
Info:   0 COSINE-BASED
Info: 3 DIHEDRAL
Info: 0 IMPROPER
Info: 0 CROSSTERM
Info: 0 VDW
Info: 21 VDW_PAIRS
Info: 0 NBTHOLE_PAIRS
Info: STRUCTURE SUMMARY:
Info: 2993 ATOMS
Info: 2995 BONDS
Info: 48 ANGLES
Info: 84 DIHEDRALS
Info: 0 IMPROPERS
Info: 0 CROSSTERMS
Info: 3106 EXCLUSIONS
Info: 2979 RIGID BONDS
Info: 6000 DEGREES OF FREEDOM
Info: 1003 HYDROGEN GROUPS
Info: 3 ATOMS IN LARGEST HYDROGEN GROUP
Info: 1003 MIGRATION GROUPS
Info: 3 ATOMS IN LARGEST MIGRATION GROUP
Info: TOTAL MASS = 17998.1 amu
Info: TOTAL CHARGE = -0.000200078 e
Info: MASS DENSITY = 0.680046 g/cm^3
Info: ATOM DENSITY = 0.068102 atoms/A^3
Info: ADDED 0 IMPLICIT EXCLUSIONS
Info: NONBONDED TABLE R-SQUARED SPACING: 0.0625
Info: NONBONDED TABLE SIZE: 705 POINTS
Info: REMOVING COM VELOCITY -0.15947 -0.0348756 -0.302907
TCL: Running for 100000 steps
ETITLE: TS BOND ANGLE DIHED IMPRP ELECT VDW BOUNDARY MISC KINETIC TOTAL TEMP POTENTIAL TOTAL3 TEMPAVG PRESSURE GPRESSURE VOLUME PRESSAVG GPRESSAVG
ENERGY: 0 0.4421 0.4007 0.0959 0.0000 -13744.7942 2384.9126 0.0000 0.0000 1741.9079 -9617.0350 292.1893 -11358.9430 -9616.6972 292.1893 321.0926 364.7796 43948.7639 321.0926 364.7796
ENERGY: 100000 0.9528 0.9865 0.6411 0.0000 -14307.9101 2420.6527 0.0000 0.0000 181.1596 -11703.5176 30.3879 -11884.6771 -11702.9126 30.9322 -487.8122 -455.5956 28914.2868 4.3158 4.3556
TCL: Running 100000 steps at 60 kelvin.
TCL: Setting parameter langevinTemp to 60
TCL: Running for 100000 steps
ETITLE: TS BOND ANGLE DIHED IMPRP ELECT VDW BOUNDARY MISC KINETIC TOTAL TEMP POTENTIAL TOTAL3 TEMPAVG PRESSURE GPRESSURE VOLUME PRESSAVG GPRESSAVG
ENERGY: 100000 0.9528 0.9865 0.6411 0.0000 -14307.9101 2420.6527 0.0000 0.0000 181.0714 -11703.6058 30.3731 -11884.6771 -11703.1732 30.3731 -505.8492 -455.4660 28914.2868 -505.8492 -455.4660
ENERGY: 200000 1.5447 2.1397 1.5252 0.0000 -14133.7258 2338.3814 0.0000 0.0000 361.2829 -11428.8518 60.6019 -11790.1347 -11428.1665 60.0210 -856.4377 -820.6902 28979.8697 3.7775 3.7851
TCL: Running 100000 steps at 90 kelvin.
TCL: Setting parameter langevinTemp to 90
TCL: Running for 100000 steps
ETITLE: TS BOND ANGLE DIHED IMPRP ELECT VDW BOUNDARY MISC KINETIC TOTAL TEMP POTENTIAL TOTAL3 TEMPAVG PRESSURE GPRESSURE VOLUME PRESSAVG GPRESSAVG
ENERGY: 200000 1.5447 2.1397 1.5252 0.0000 -14133.7258 2338.3814 0.0000 0.0000 361.0995 -11429.0352 60.5712 -11790.1347 -11428.2050 60.5712 -874.9722 -821.4050 28979.8697 -874.9722 -821.4050
ENERGY: 300000 2.3945 2.8936 2.1948 0.0000 -14000.9041 2291.5673 0.0000 0.0000 532.9198 -11168.9341 89.3925 -11701.8539 -11166.6005 90.0321 -970.1583 -918.0056 29189.3857 4.1497 4.1587
TCL: Running 100000 steps at 120 kelvin.
TCL: Setting parameter langevinTemp to 120
TCL: Running for 100000 steps
ETITLE: TS BOND ANGLE DIHED IMPRP ELECT VDW BOUNDARY MISC KINETIC TOTAL TEMP POTENTIAL TOTAL3 TEMPAVG PRESSURE GPRESSURE VOLUME PRESSAVG GPRESSAVG
ENERGY: 300000 2.3945 2.8936 2.1948 0.0000 -14000.9041 2291.5673 0.0000 0.0000 532.6469 -11169.2070 89.3467 -11701.8539 -11168.0714 89.3467 -961.5290 -917.0412 29189.3857 -961.5290 -917.0412
ENERGY: 400000 3.0943 3.3483 1.9868 0.0000 -13915.0748 2337.2712 0.0000 0.0000 711.7933 -10857.5809 119.3969 -11569.3742 -10856.4213 119.8370 -291.9603 -217.3240 29348.8030 4.2247 4.3156
TCL: Running 100000 steps at 150 kelvin.
TCL: Setting parameter langevinTemp to 150
TCL: Running for 100000 steps
ETITLE: TS BOND ANGLE DIHED IMPRP ELECT VDW BOUNDARY MISC KINETIC TOTAL TEMP POTENTIAL TOTAL3 TEMPAVG PRESSURE GPRESSURE VOLUME PRESSAVG GPRESSAVG
ENERGY: 400000 3.0943 3.3483 1.9868 0.0000 -13915.0748 2337.2712 0.0000 0.0000 711.4472 -10857.9270 119.3388 -11569.3742 -10856.3637 119.3388 -262.8170 -218.5782 29348.8030 -262.8170 -218.5782
ENERGY: 500000 1.7079 3.4178 3.0936 0.0000 -13603.6940 2239.9321 0.0000 0.0000 894.4676 -10461.0750 150.0388 -11355.5425 -10458.9006 150.0243 -395.5800 -382.7101 29552.0333 6.1068 6.0007
TCL: Running 100000 steps at 180 kelvin.
TCL: Setting parameter langevinTemp to 180
TCL: Running for 100000 steps
ETITLE: TS BOND ANGLE DIHED IMPRP ELECT VDW BOUNDARY MISC KINETIC TOTAL TEMP POTENTIAL TOTAL3 TEMPAVG PRESSURE GPRESSURE VOLUME PRESSAVG GPRESSAVG
ENERGY: 500000 1.7079 3.4178 3.0936 0.0000 -13603.6940 2239.9321 0.0000 0.0000 894.0010 -10461.5416 149.9606 -11355.5425 -10459.8521 149.9606 -435.8253 -381.9049 29552.0333 -435.8253 -381.9049
ENERGY: 600000 3.4690 7.0824 3.3664 0.0000 -13278.2612 2138.1347 0.0000 0.0000 1064.8889 -10061.3199 178.6255 -11126.2088 -10057.8323 180.2376 -237.6296 -179.1207 29391.4861 4.4706 4.3682
TCL: Running 100000 steps at 210 kelvin.
TCL: Setting parameter langevinTemp to 210
TCL: Running for 100000 steps
ETITLE: TS BOND ANGLE DIHED IMPRP ELECT VDW BOUNDARY MISC KINETIC TOTAL TEMP POTENTIAL TOTAL3 TEMPAVG PRESSURE GPRESSURE VOLUME PRESSAVG GPRESSAVG
ENERGY: 600000 3.4690 7.0824 3.3664 0.0000 -13278.2612 2138.1347 0.0000 0.0000 1064.3744 -10061.8344 178.5392 -11126.2088 -10059.3637 178.5392 -226.6274 -178.4523 29391.4861 -226.6274 -178.4523
ENERGY: 700000 4.3525 4.7566 5.6773 0.0000 -12557.8446 1953.1567 0.0000 0.0000 1245.1099 -9344.7915 208.8559 -10589.9015 -9341.8669 209.9386 393.3784 473.1748 29140.1054 3.1435 3.1134
TCL: Running 100000 steps at 240 kelvin.
TCL: Setting parameter langevinTemp to 240
TCL: Running for 100000 steps
ETITLE: TS BOND ANGLE DIHED IMPRP ELECT VDW BOUNDARY MISC KINETIC TOTAL TEMP POTENTIAL TOTAL3 TEMPAVG PRESSURE GPRESSURE VOLUME PRESSAVG GPRESSAVG
ENERGY: 700000 4.3525 4.7566 5.6773 0.0000 -12557.8446 1953.1567 0.0000 0.0000 1244.4850 -9345.4165 208.7511 -10589.9015 -9343.4746 208.7511 391.4603 473.2602 29140.1054 391.4603 473.2602
ENERGY: 800000 3.7057 6.3130 3.4174 0.0000 -11943.8599 1737.9490 0.0000 0.0000 1430.5383 -8761.9365 239.9599 -10192.4747 -8759.5590 240.2847 195.9182 309.0935 29072.4425 4.5019 4.4848
TCL: Running 100000 steps at 270 kelvin.
TCL: Setting parameter langevinTemp to 270
TCL: Running for 100000 steps
ETITLE: TS BOND ANGLE DIHED IMPRP ELECT VDW BOUNDARY MISC KINETIC TOTAL TEMP POTENTIAL TOTAL3 TEMPAVG PRESSURE GPRESSURE VOLUME PRESSAVG GPRESSAVG
ENERGY: 800000 3.7057 6.3130 3.4174 0.0000 -11943.8599 1737.9490 0.0000 0.0000 1429.8339 -8762.6409 239.8417 -10192.4747 -8759.8497 239.8417 208.0807 308.3723 29072.4425 208.0807 308.3723
ENERGY: 900000 2.7280 8.2479 2.9981 0.0000 -11198.2706 1475.7417 0.0000 0.0000 1603.0762 -8105.4786 268.9016 -9708.5549 -8105.5872 269.9629 -668.2646 -561.9961 30028.8797 2.9988 3.0305
TCL: Running 1000000 steps at 300 kelvin.
TCL: Setting parameter langevinTemp to 300
TCL: Running for 1000000 steps
ETITLE: TS BOND ANGLE DIHED IMPRP ELECT VDW BOUNDARY MISC KINETIC TOTAL TEMP POTENTIAL TOTAL3 TEMPAVG PRESSURE GPRESSURE VOLUME PRESSAVG GPRESSAVG
ENERGY: 900000 2.7280 8.2479 2.9981 0.0000 -11198.2706 1475.7417 0.0000 0.0000 1602.3071 -8106.2477 268.7725 -9708.5549 -8103.5202 268.7725 -653.7323 -564.0942 30028.8797 -653.7323 -564.0942
ENERGY: 1100000 3.9434 7.8729 4.8173 0.0000 -10810.9519 1470.0491 0.0000 0.0000 1789.2176 -7535.0516 300.1251 -9324.2691 -7530.3990 300.2286 225.9022 216.2899 30829.5579 1.8699 2.2036
ENERGY: 1300000 6.7555 11.5035 5.3927 0.0000 -10881.4127 1435.2751 0.0000 0.0000 1859.2252 -7563.2607 311.8682 -9422.4859 -7559.8088 300.0570 -296.1317 -230.8021 30974.7823 4.6070 4.3290
ENERGY: 1500000 3.4739 8.0663 3.0563 0.0000 -10761.4670 1379.9112 0.0000 0.0000 1836.0077 -7530.9517 307.9737 -9366.9594 -7525.5108 299.6000 -950.2999 -783.9712 31215.0385 4.1112 4.1180
ENERGY: 1700000 5.1609 9.0427 5.6725 0.0000 -10624.7775 1387.5763 0.0000 0.0000 1817.2665 -7400.0586 304.8300 -9217.3251 -7395.9120 300.0666 -37.1924 -39.6846 30964.3431 3.2123 3.2274
ENERGY: 1900000 3.6462 7.5405 6.7893 0.0000 -10932.3305 1544.3481 0.0000 0.0000 1815.1631 -7554.8432 304.4772 -9370.0064 -7550.1235 300.5225 567.3898 614.8328 30807.4396 4.3552 4.3200
TCL: Exiting due to exit command.
