Info: SIMULATION PARAMETERS:
Info: TIMESTEP               2
Info: NUMBER OF STEPS        0
Info: STEPS PER CYCLE        10
Info: PERIODIC CELL BASIS 1  36.592 0 0
Info: PERIODIC CELL BASIS 2  0 32.293 0
Info: PERIODIC CELL BASIS 3  0 0 37.195
Info: PERIODIC CELL CENTER   0 0 0
Info: WRAPPING WATERS AROUND PERIODIC BOUNDARIES ON OUTPUT.
Info: WRAPPING ALL CLUSTERS AROUND PERIODIC BOUNDARIES ON OUTPUT.
Info: FIRST LDB TIMESTEP     50
Info: LAST LDB TIMESTEP     -1
Info: HOM BACKGROUND SCALING 1
Info: PME BACKGROUND SCALING 1
Info: MIN ATOMS PER PATCH    40
Info: EMPTY PATCH LOAD       40 ATOMS
Info: INITIAL TEMPERATURE    300
Info: CENTER OF MASS MOVING INITIALLY? NO
Info: DIELECTRIC             1
Info: EXCLUDE                SCALED ONE-FOUR
Info: 1-4 ELECTROSTATICS SCALED BY 0.833333
Info: MODIFIED 1-4 VDW PARAMETERS WILL BE USED
Info: DCD FILENAME           mobley_3265457_equil.dcd
Info: DCD FREQUENCY          100000
Info: DCD FIRST STEP         100000
Info: DCD FILE WILL CONTAIN UNIT CELL DATA
Info: XST FILENAME           mobley_3265457_equil.xst
Info: XST FREQUENCY          100000
Info: NO VELOCITY DCD OUTPUT
Info: NO FORCE DCD OUTPUT
Info: OUTPUT FILENAME        mobley_3265457_equil
Info: BINARY OUTPUT FILES WILL BE USED
Info: RESTART FILENAME       mobley_3265457_equil.restart
Info: RESTART FREQUENCY      100000
Info: BINARY RESTART FILES WILL BE USED
Info: CUTOFF                 9
Info: PAIRLIST DISTANCE      11
Info: PAIRLIST SHRINK RATE   0.01
Info: PAIRLIST GROW RATE     0.01
Info: PAIRLIST TRIGGER       0.3
Info: PAIRLISTS PER CYCLE    2
Info: PAIRLISTS ENABLED
Info: MARGIN                 8
Info: HYDROGEN GROUP CUTOFF  2.5
Info: PATCH DIMENSION        21.5
Info: ENERGY OUTPUT STEPS    100000
Info: ENERGY EVALUATION STEPS    100000
Info: OUTPUT ENERGY PRECISION 4
Info: CROSSTERM ENERGY INCLUDED IN DIHEDRAL
Info: TIMING OUTPUT STEPS    1000000
Info: PRESSURE OUTPUT STEPS  100000
Info: LANGEVIN DYNAMICS ACTIVE
Info: LANGEVIN TEMPERATURE   30
Info: LANGEVIN USING BBK INTEGRATOR
Info: LANGEVIN DAMPING COEFFICIENT IS 1 INVERSE PS
Info: LANGEVIN DYNAMICS APPLIED TO HYDROGENS
Info: LANGEVIN PISTON PRESSURE CONTROL ACTIVE
Info:        TARGET PRESSURE IS 1.01325 BAR
Info:     OSCILLATION PERIOD IS 50 FS
Info:             DECAY TIME IS 25 FS
Info:     PISTON TEMPERATURE IS 300 K
Info:       PRESSURE CONTROL IS GROUP-BASED
Info:    INITIAL STRAIN RATE IS 0 0 0
Info:       CELL FLUCTUATION IS ISOTROPIC
Info: PARTICLE MESH EWALD (PME) ACTIVE
Info: PME TOLERANCE               1e-06
Info: PME EWALD COEFFICIENT       0.348832
Info: PME INTERPOLATION ORDER     4
Info: PME GRID DIMENSIONS         40 36 40
Info: PME MAXIMUM GRID SPACING    1
Info: FULL ELECTROSTATIC EVALUATION FREQUENCY      2
Info: USING VERLET I (r-RESPA) MTS SCHEME.
Info: C1 SPLITTING OF LONG RANGE ELECTROSTATICS
Info: PLACING ATOMS IN PATCHES BY HYDROGEN GROUPS
Info: RIGID BONDS TO HYDROGEN : ALL
Info:         ERROR TOLERANCE : 1e-08
Info:          MAX ITERATIONS : 100
Info: RIGID WATER USING SETTLE ALGORITHM
Info: RANDOM NUMBER SEED     1743251570
Info: USE HYDROGEN BONDS?    NO
Info: Using AMBER format force field!
Info: AMBER PARM FILE        mobley_3265457.prmtop
Info: COORDINATE PDB         mobley_3265457.pdb
Info: Exclusions will be read from PARM file!
Info: SCNB (VDW SCALING)     2
Info: USING ARITHMETIC MEAN TO COMBINE L-J SIGMA PARAMETERS
Info: BINARY COORDINATES     mobley_3265457_min.coor
Info: SUMMARY OF PARAMETERS:
Info: 13 BONDS
Info: 13 ANGLES
Info:   13 HARMONIC
Info:   0 COSINE-BASED
Info: 6 DIHEDRAL
Info: 0 IMPROPER
Info: 0 CROSSTERM
Info: 0 VDW
Info: 66 VDW_PAIRS
Info: 0 NBTHOLE_PAIRS
Info: STRUCTURE SUMMARY:
Info: 2957 ATOMS
Info: 2957 BONDS
Info: 36 ANGLES
Info: 47 DIHEDRALS
Info: 0 IMPROPERS
Info: 0 CROSSTERMS
Info: 3030 EXCLUSIONS
Info: 2943 RIGID BONDS
Info: 5928 DEGREES OF FREEDOM
Info: 992 HYDROGEN GROUPS
Info: 4 ATOMS IN LARGEST HYDROGEN GROUP
Info: 992 MIGRATION GROUPS
Info: 4 ATOMS IN LARGEST MIGRATION GROUP
Info: TOTAL MASS = 17836.3 amu
Info: TOTAL CHARGE = -0.000299972 e
Info: MASS DENSITY = 0.673882 g/cm^3
Info: ATOM DENSITY = 0.0672779 atoms/A^3
Info: ADDED 0 IMPLICIT EXCLUSIONS
Info: NONBONDED TABLE R-SQUARED SPACING: 0.0625
Info: NONBONDED TABLE SIZE: 705 POINTS
Info: REMOVING COM VELOCITY -0.0231138 0.120224 0.011709
TCL: Running for 100000 steps
ETITLE: TS BOND ANGLE DIHED IMPRP ELECT VDW BOUNDARY MISC KINETIC TOTAL TEMP POTENTIAL TOTAL3 TEMPAVG PRESSURE GPRESSURE VOLUME PRESSAVG GPRESSAVG
ENERGY: 0 0.5288 0.4223 7.2380 0.0000 -13620.5904 2393.8722 0.0000 0.0000 1762.2537 -9456.2755 299.1924 -11218.5292 -9455.9279 299.1924 471.1586 510.0068 43952.0466 471.1586 510.0068
ENERGY: 100000 1.7879 0.9779 6.3265 0.0000 -14174.3295 2471.7051 0.0000 0.0000 175.0819 -11518.4501 29.7251 -11693.5320 -11518.1369 30.8505 -70.2651 -12.9399 29478.2340 3.0086 3.0289
TCL: Running 100000 steps at 60 kelvin.
TCL: Setting parameter langevinTemp to 60
TCL: Running for 100000 steps
ETITLE: TS BOND ANGLE DIHED IMPRP ELECT VDW BOUNDARY MISC KINETIC TOTAL TEMP POTENTIAL TOTAL3 TEMPAVG PRESSURE GPRESSURE VOLUME PRESSAVG GPRESSAVG
ENERGY: 100000 1.7879 0.9779 6.3265 0.0000 -14174.3295 2471.7051 0.0000 0.0000 174.9939 -11518.5381 29.7102 -11693.5320 -11518.1382 29.7102 -78.6734 -12.9965 29478.2340 -78.6734 -12.9965
ENERGY: 200000 0.6340 1.5983 6.2943 0.0000 -14123.7578 2450.4932 0.0000 0.0000 352.5431 -11312.1948 59.8542 -11664.7379 -11311.4747 60.1028 93.5448 148.2340 29176.4556 4.7080 4.7337
TCL: Running 100000 steps at 90 kelvin.
TCL: Setting parameter langevinTemp to 90
TCL: Running for 100000 steps
ETITLE: TS BOND ANGLE DIHED IMPRP ELECT VDW BOUNDARY MISC KINETIC TOTAL TEMP POTENTIAL TOTAL3 TEMPAVG PRESSURE GPRESSURE VOLUME PRESSAVG GPRESSAVG
ENERGY: 200000 0.6340 1.5983 6.2943 0.0000 -14123.7578 2450.4932 0.0000 0.0000 352.3690 -11312.3689 59.8246 -11664.7379 -11311.4220 59.8246 86.8832 148.1824 29176.4556 86.8832 148.1824
ENERGY: 300000 1.4543 3.2735 5.0283 0.0000 -13988.4586 2428.7026 0.0000 0.0000 506.5964 -11043.4035 86.0091 -11549.9998 -11042.1677 90.0197 361.2617 364.4662 29025.3502 4.5178 4.3765
TCL: Running 100000 steps at 120 kelvin.
TCL: Setting parameter langevinTemp to 120
TCL: Running for 100000 steps
ETITLE: TS BOND ANGLE DIHED IMPRP ELECT VDW BOUNDARY MISC KINETIC TOTAL TEMP POTENTIAL TOTAL3 TEMPAVG PRESSURE GPRESSURE VOLUME PRESSAVG GPRESSAVG
ENERGY: 300000 1.4543 3.2735 5.0283 0.0000 -13988.4586 2428.7026 0.0000 0.0000 506.3369 -11043.6629 85.9650 -11549.9998 -11042.6736 85.9650 316.8009 364.5381 29025.3502 316.8009 364.5381
ENERGY: 400000 2.0950 2.8350 5.9578 0.0000 -13999.8978 2541.9604 0.0000 0.0000 698.4385 -10748.6110 118.5797 -11447.0494 -10746.3982 119.7969 1693.5981 1686.0746 28857.4098 4.8756 4.8128
TCL: Running 100000 steps at 150 kelvin.
TCL: Setting parameter langevinTemp to 150
TCL: Running for 100000 steps
ETITLE: TS BOND ANGLE DIHED IMPRP ELECT VDW BOUNDARY MISC KINETIC TOTAL TEMP POTENTIAL TOTAL3 TEMPAVG PRESSURE GPRESSURE VOLUME PRESSAVG GPRESSAVG
ENERGY: 400000 2.0950 2.8350 5.9578 0.0000 -13999.8978 2541.9604 0.0000 0.0000 698.0882 -10748.9612 118.5202 -11447.0494 -10748.0725 118.5202 1639.1314 1688.0939 28857.4098 1639.1314 1688.0939
ENERGY: 500000 1.8664 2.4603 8.7223 0.0000 -13415.3970 2139.0889 0.0000 0.0000 894.0410 -10369.2181 151.7888 -11263.2591 -10365.2839 150.1797 -838.7940 -816.9863 29316.6413 3.5899 3.6511
TCL: Running 100000 steps at 180 kelvin.
TCL: Setting parameter langevinTemp to 180
TCL: Running for 100000 steps
ETITLE: TS BOND ANGLE DIHED IMPRP ELECT VDW BOUNDARY MISC KINETIC TOTAL TEMP POTENTIAL TOTAL3 TEMPAVG PRESSURE GPRESSURE VOLUME PRESSAVG GPRESSAVG
ENERGY: 500000 1.8664 2.4603 8.7223 0.0000 -13415.3970 2139.0889 0.0000 0.0000 893.6080 -10369.6511 151.7153 -11263.2591 -10367.8075 151.7153 -870.5689 -814.9426 29316.6413 -870.5689 -814.9426
ENERGY: 600000 0.8517 3.2520 9.0660 0.0000 -13023.4721 2009.0511 0.0000 0.0000 1031.3146 -9969.9367 175.0948 -11001.2512 -9967.3087 179.9683 -963.9123 -888.4588 28925.6715 3.9258 3.8164
TCL: Running 100000 steps at 210 kelvin.
TCL: Setting parameter langevinTemp to 210
TCL: Running for 100000 steps
ETITLE: TS BOND ANGLE DIHED IMPRP ELECT VDW BOUNDARY MISC KINETIC TOTAL TEMP POTENTIAL TOTAL3 TEMPAVG PRESSURE GPRESSURE VOLUME PRESSAVG GPRESSAVG
ENERGY: 600000 0.8517 3.2520 9.0660 0.0000 -13023.4721 2009.0511 0.0000 0.0000 1030.7758 -9970.4754 175.0034 -11001.2512 -9967.8861 175.0034 -957.9291 -889.2045 28925.6715 -957.9291 -889.2045
ENERGY: 700000 2.0114 5.5373 6.4581 0.0000 -12466.2870 1932.5299 0.0000 0.0000 1240.3754 -9279.3750 210.5888 -10519.7503 -9277.9886 209.5110 269.6922 309.1035 29154.5842 3.0964 3.1547
TCL: Running 100000 steps at 240 kelvin.
TCL: Setting parameter langevinTemp to 240
TCL: Running for 100000 steps
ETITLE: TS BOND ANGLE DIHED IMPRP ELECT VDW BOUNDARY MISC KINETIC TOTAL TEMP POTENTIAL TOTAL3 TEMPAVG PRESSURE GPRESSURE VOLUME PRESSAVG GPRESSAVG
ENERGY: 700000 2.0114 5.5373 6.4581 0.0000 -12466.2870 1932.5299 0.0000 0.0000 1239.7446 -9280.0058 210.4817 -10519.7503 -9278.1890 210.4817 238.9568 309.8229 29154.5842 238.9568 309.8229
ENERGY: 800000 4.9812 7.3951 7.7965 0.0000 -11829.3010 1755.4900 0.0000 0.0000 1432.5173 -8621.1208 243.2104 -10053.6381 -8618.4619 239.9464 195.4040 275.0835 29371.6491 3.7563 3.8645
TCL: Running 100000 steps at 270 kelvin.
TCL: Setting parameter langevinTemp to 270
TCL: Running for 100000 steps
ETITLE: TS BOND ANGLE DIHED IMPRP ELECT VDW BOUNDARY MISC KINETIC TOTAL TEMP POTENTIAL TOTAL3 TEMPAVG PRESSURE GPRESSURE VOLUME PRESSAVG GPRESSAVG
ENERGY: 800000 4.9812 7.3951 7.7965 0.0000 -11829.3010 1755.4900 0.0000 0.0000 1431.8018 -8621.8363 243.0889 -10053.6381 -8620.0065 243.0889 193.8090 273.9744 29371.6491 193.8090 273.9744
ENERGY: 900000 2.9457 5.4103 7.4056 0.0000 -11182.3655 1474.9763 0.0000 0.0000 1609.6835 -8081.9441 273.2893 -9691.6276 -8077.6695 269.6375 -859.8788 -749.4664 29910.5318 4.2353 4.0976
TCL: Running 1000000 steps at 300 kelvin.
TCL: Setting parameter langevinTemp to 300
TCL: Running for 1000000 steps
ETITLE: TS BOND ANGLE DIHED IMPRP ELECT VDW BOUNDARY MISC KINETIC TOTAL TEMP POTENTIAL TOTAL3 TEMPAVG PRESSURE GPRESSURE VOLUME PRESSAVG GPRESSAVG
ENERGY: 900000 2.9457 5.4103 7.4056 0.0000 -11182.3655 1474.9763 0.0000 0.0000 1608.8767 -8082.7509 273.1524 -9691.6276 -8079.4625 273.1524 -834.7682 -748.0364 29910.5318 -834.7682 -748.0364
ENERGY: 1100000 3.6249 6.6594 6.9814 0.0000 -10589.3363 1438.8338 0.0000 0.0000 1796.9889 -7336.2479 305.0897 -9133.2368 -7333.8169 298.8445 104.0333 289.9719 30893.5630 4.8059 5.0189
ENERGY: 1300000 8.9695 9.2730 5.1589 0.0000 -10914.4363 1533.7409 0.0000 0.0000 1768.5247 -7588.7693 300.2571 -9357.2939 -7584.2306 300.4231 624.1239 720.6789 29826.5634 2.2464 2.2880
ENERGY: 1500000 2.2870 9.7348 13.3885 0.0000 -10645.9966 1410.6968 0.0000 0.0000 1773.7959 -7436.0936 301.1521 -9209.8895 -7432.7419 299.8649 -268.3269 -127.0629 30671.1720 2.5326 2.6644
ENERGY: 1700000 5.3382 6.4076 10.8831 0.0000 -10806.2024 1502.3888 0.0000 0.0000 1717.1374 -7564.0472 291.5327 -9281.1846 -7562.8483 299.8994 119.4100 141.8152 31107.6807 1.8885 2.0435
ENERGY: 1900000 6.3343 7.5138 7.6094 0.0000 -10746.2864 1489.6740 0.0000 0.0000 1750.8157 -7484.3393 297.2505 -9235.1549 -7481.0156 299.7816 543.6726 641.1719 30217.5078 2.2822 2.2850
TCL: Exiting due to exit command.
