Info: SIMULATION PARAMETERS:
Info: TIMESTEP               2
Info: NUMBER OF STEPS        0
Info: STEPS PER CYCLE        10
Info: PERIODIC CELL BASIS 1  36.005 0 0
Info: PERIODIC CELL BASIS 2  0 34.26 0
Info: PERIODIC CELL BASIS 3  0 0 35.723
Info: PERIODIC CELL CENTER   0 0 0
Info: WRAPPING WATERS AROUND PERIODIC BOUNDARIES ON OUTPUT.
Info: WRAPPING ALL CLUSTERS AROUND PERIODIC BOUNDARIES ON OUTPUT.
Info: FIRST LDB TIMESTEP     50
Info: LAST LDB TIMESTEP     -1
Info: HOM BACKGROUND SCALING 1
Info: PME BACKGROUND SCALING 1
Info: MIN ATOMS PER PATCH    40
Info: EMPTY PATCH LOAD       40 ATOMS
Info: INITIAL TEMPERATURE    300
Info: CENTER OF MASS MOVING INITIALLY? NO
Info: DIELECTRIC             1
Info: EXCLUDE                SCALED ONE-FOUR
Info: 1-4 ELECTROSTATICS SCALED BY 0.833333
Info: MODIFIED 1-4 VDW PARAMETERS WILL BE USED
Info: DCD FILENAME           mobley_9073553_equil.dcd
Info: DCD FREQUENCY          100000
Info: DCD FIRST STEP         100000
Info: DCD FILE WILL CONTAIN UNIT CELL DATA
Info: XST FILENAME           mobley_9073553_equil.xst
Info: XST FREQUENCY          100000
Info: NO VELOCITY DCD OUTPUT
Info: NO FORCE DCD OUTPUT
Info: OUTPUT FILENAME        mobley_9073553_equil
Info: BINARY OUTPUT FILES WILL BE USED
Info: RESTART FILENAME       mobley_9073553_equil.restart
Info: RESTART FREQUENCY      100000
Info: BINARY RESTART FILES WILL BE USED
Info: CUTOFF                 9
Info: PAIRLIST DISTANCE      11
Info: PAIRLIST SHRINK RATE   0.01
Info: PAIRLIST GROW RATE     0.01
Info: PAIRLIST TRIGGER       0.3
Info: PAIRLISTS PER CYCLE    2
Info: PAIRLISTS ENABLED
Info: MARGIN                 8
Info: HYDROGEN GROUP CUTOFF  2.5
Info: PATCH DIMENSION        21.5
Info: ENERGY OUTPUT STEPS    100000
Info: ENERGY EVALUATION STEPS    100000
Info: OUTPUT ENERGY PRECISION 4
Info: CROSSTERM ENERGY INCLUDED IN DIHEDRAL
Info: TIMING OUTPUT STEPS    1000000
Info: PRESSURE OUTPUT STEPS  100000
Info: LANGEVIN DYNAMICS ACTIVE
Info: LANGEVIN TEMPERATURE   30
Info: LANGEVIN USING BBK INTEGRATOR
Info: LANGEVIN DAMPING COEFFICIENT IS 1 INVERSE PS
Info: LANGEVIN DYNAMICS APPLIED TO HYDROGENS
Info: LANGEVIN PISTON PRESSURE CONTROL ACTIVE
Info:        TARGET PRESSURE IS 1.01325 BAR
Info:     OSCILLATION PERIOD IS 50 FS
Info:             DECAY TIME IS 25 FS
Info:     PISTON TEMPERATURE IS 300 K
Info:       PRESSURE CONTROL IS GROUP-BASED
Info:    INITIAL STRAIN RATE IS 0 0 0
Info:       CELL FLUCTUATION IS ISOTROPIC
Info: PARTICLE MESH EWALD (PME) ACTIVE
Info: PME TOLERANCE               1e-06
Info: PME EWALD COEFFICIENT       0.348832
Info: PME INTERPOLATION ORDER     4
Info: PME GRID DIMENSIONS         40 36 36
Info: PME MAXIMUM GRID SPACING    1
Info: FULL ELECTROSTATIC EVALUATION FREQUENCY      2
Info: USING VERLET I (r-RESPA) MTS SCHEME.
Info: C1 SPLITTING OF LONG RANGE ELECTROSTATICS
Info: PLACING ATOMS IN PATCHES BY HYDROGEN GROUPS
Info: RIGID BONDS TO HYDROGEN : ALL
Info:         ERROR TOLERANCE : 1e-08
Info:          MAX ITERATIONS : 100
Info: RIGID WATER USING SETTLE ALGORITHM
Info: RANDOM NUMBER SEED     1743160236
Info: USE HYDROGEN BONDS?    NO
Info: Using AMBER format force field!
Info: AMBER PARM FILE        mobley_9073553.prmtop
Info: COORDINATE PDB         mobley_9073553.pdb
Info: Exclusions will be read from PARM file!
Info: SCNB (VDW SCALING)     2
Info: USING ARITHMETIC MEAN TO COMBINE L-J SIGMA PARAMETERS
Info: BINARY COORDINATES     mobley_9073553_min.coor
Info: SUMMARY OF PARAMETERS:
Info: 4 BONDS
Info: 3 ANGLES
Info:   3 HARMONIC
Info:   0 COSINE-BASED
Info: 1 DIHEDRAL
Info: 0 IMPROPER
Info: 0 CROSSTERM
Info: 0 VDW
Info: 15 VDW_PAIRS
Info: 0 NBTHOLE_PAIRS
Info: STRUCTURE SUMMARY:
Info: 2925 ATOMS
Info: 2924 BONDS
Info: 13 ANGLES
Info: 6 DIHEDRALS
Info: 0 IMPROPERS
Info: 0 CROSSTERMS
Info: 2943 EXCLUSIONS
Info: 2922 RIGID BONDS
Info: 5853 DEGREES OF FREEDOM
Info: 975 HYDROGEN GROUPS
Info: 4 ATOMS IN LARGEST HYDROGEN GROUP
Info: 975 MIGRATION GROUPS
Info: 4 ATOMS IN LARGEST MIGRATION GROUP
Info: TOTAL MASS = 17573.7 amu
Info: TOTAL CHARGE = 0.00029999 e
Info: MASS DENSITY = 0.662253 g/cm^3
Info: ATOM DENSITY = 0.0663786 atoms/A^3
Info: ADDED 0 IMPLICIT EXCLUSIONS
Info: NONBONDED TABLE R-SQUARED SPACING: 0.0625
Info: NONBONDED TABLE SIZE: 705 POINTS
Info: REMOVING COM VELOCITY 0.0232138 -0.0495223 0.0462207
TCL: Running for 100000 steps
ETITLE: TS BOND ANGLE DIHED IMPRP ELECT VDW BOUNDARY MISC KINETIC TOTAL TEMP POTENTIAL TOTAL3 TEMPAVG PRESSURE GPRESSURE VOLUME PRESSAVG GPRESSAVG
ENERGY: 0 0.0041 0.1244 0.0330 0.0000 -13462.6751 2338.0595 0.0000 0.0000 1771.4739 -9352.9802 304.6117 -11124.4540 -9352.6178 304.6117 230.4071 258.4651 44065.4386 230.4071 258.4651
ENERGY: 100000 0.0219 0.4018 0.0828 0.0000 -14171.7097 2550.1488 0.0000 0.0000 175.4672 -11445.5871 30.1723 -11621.0543 -11445.1590 30.9236 971.7677 1038.1256 28684.7131 4.9029 4.8964
TCL: Running 100000 steps at 60 kelvin.
TCL: Setting parameter langevinTemp to 60
TCL: Running for 100000 steps
ETITLE: TS BOND ANGLE DIHED IMPRP ELECT VDW BOUNDARY MISC KINETIC TOTAL TEMP POTENTIAL TOTAL3 TEMPAVG PRESSURE GPRESSURE VOLUME PRESSAVG GPRESSAVG
ENERGY: 100000 0.0219 0.4018 0.0828 0.0000 -14171.7097 2550.1488 0.0000 0.0000 175.3812 -11445.6730 30.1575 -11621.0543 -11445.3411 30.1575 969.8379 1038.1615 28684.7131 969.8379 1038.1615
ENERGY: 200000 0.0470 0.3981 0.2850 0.0000 -13969.5642 2399.1891 0.0000 0.0000 349.5383 -11220.1065 60.1045 -11569.6449 -11219.7084 59.9017 -291.1264 -219.4192 28855.5097 3.5721 3.4947
TCL: Running 100000 steps at 90 kelvin.
TCL: Setting parameter langevinTemp to 90
TCL: Running for 100000 steps
ETITLE: TS BOND ANGLE DIHED IMPRP ELECT VDW BOUNDARY MISC KINETIC TOTAL TEMP POTENTIAL TOTAL3 TEMPAVG PRESSURE GPRESSURE VOLUME PRESSAVG GPRESSAVG
ENERGY: 200000 0.0470 0.3981 0.2850 0.0000 -13969.5642 2399.1891 0.0000 0.0000 349.3682 -11220.2767 60.0752 -11569.6449 -11219.4481 60.0752 -272.4721 -220.3081 28855.5097 -272.4721 -220.3081
ENERGY: 300000 0.0272 0.9951 0.0494 0.0000 -13907.4323 2409.2399 0.0000 0.0000 523.3629 -10973.7579 89.9943 -11497.1208 -10973.0143 89.9715 96.0352 136.1435 28742.1299 3.9196 3.8568
TCL: Running 100000 steps at 120 kelvin.
TCL: Setting parameter langevinTemp to 120
TCL: Running for 100000 steps
ETITLE: TS BOND ANGLE DIHED IMPRP ELECT VDW BOUNDARY MISC KINETIC TOTAL TEMP POTENTIAL TOTAL3 TEMPAVG PRESSURE GPRESSURE VOLUME PRESSAVG GPRESSAVG
ENERGY: 300000 0.0272 0.9951 0.0494 0.0000 -13907.4323 2409.2399 0.0000 0.0000 523.1102 -10974.0106 89.9508 -11497.1208 -10972.7946 89.9508 79.8871 135.6038 28742.1299 79.8871 135.6038
ENERGY: 400000 0.1201 1.0758 0.0515 0.0000 -13768.8992 2415.1285 0.0000 0.0000 719.4750 -10633.0484 123.7165 -11352.5234 -10630.6825 120.0367 693.2478 737.3809 28623.3221 4.2096 4.2204
TCL: Running 100000 steps at 150 kelvin.
TCL: Setting parameter langevinTemp to 150
TCL: Running for 100000 steps
ETITLE: TS BOND ANGLE DIHED IMPRP ELECT VDW BOUNDARY MISC KINETIC TOTAL TEMP POTENTIAL TOTAL3 TEMPAVG PRESSURE GPRESSURE VOLUME PRESSAVG GPRESSAVG
ENERGY: 400000 0.1201 1.0758 0.0515 0.0000 -13768.8992 2415.1285 0.0000 0.0000 719.1174 -10633.4060 123.6550 -11352.5234 -10631.7897 123.6550 668.2451 737.9208 28623.3221 668.2451 737.9208
ENERGY: 500000 0.0987 1.5932 0.0633 0.0000 -13471.9063 2246.2980 0.0000 0.0000 853.3990 -10370.4541 146.7452 -11223.8531 -10368.6544 150.1902 -138.4190 -128.1316 28855.1293 4.2469 4.1343
TCL: Running 100000 steps at 180 kelvin.
TCL: Setting parameter langevinTemp to 180
TCL: Running for 100000 steps
ETITLE: TS BOND ANGLE DIHED IMPRP ELECT VDW BOUNDARY MISC KINETIC TOTAL TEMP POTENTIAL TOTAL3 TEMPAVG PRESSURE GPRESSURE VOLUME PRESSAVG GPRESSAVG
ENERGY: 500000 0.0987 1.5932 0.0633 0.0000 -13471.9063 2246.2980 0.0000 0.0000 852.9743 -10370.8788 146.6722 -11223.8531 -10368.8185 146.6722 -171.1682 -128.2556 28855.1293 -171.1682 -128.2556
ENERGY: 600000 0.3278 1.8663 0.5134 0.0000 -13124.9836 2203.8514 0.0000 0.0000 1066.1852 -9852.2395 183.3346 -10918.4247 -9849.7904 179.8430 575.9629 648.3858 28747.7611 4.3634 4.4301
TCL: Running 100000 steps at 210 kelvin.
TCL: Setting parameter langevinTemp to 210
TCL: Running for 100000 steps
ETITLE: TS BOND ANGLE DIHED IMPRP ELECT VDW BOUNDARY MISC KINETIC TOTAL TEMP POTENTIAL TOTAL3 TEMPAVG PRESSURE GPRESSURE VOLUME PRESSAVG GPRESSAVG
ENERGY: 600000 0.3278 1.8663 0.5134 0.0000 -13124.9836 2203.8514 0.0000 0.0000 1065.6756 -9852.7491 183.2470 -10918.4247 -9850.9955 183.2470 576.1967 648.2131 28747.7611 576.1967 648.2131
ENERGY: 700000 0.5400 1.9047 0.8079 0.0000 -12364.8600 1924.7285 0.0000 0.0000 1211.6419 -9225.2370 208.3465 -10436.8789 -9223.6631 209.7682 111.8035 225.4564 28553.2929 2.4632 2.5564
TCL: Running 100000 steps at 240 kelvin.
TCL: Setting parameter langevinTemp to 240
TCL: Running for 100000 steps
ETITLE: TS BOND ANGLE DIHED IMPRP ELECT VDW BOUNDARY MISC KINETIC TOTAL TEMP POTENTIAL TOTAL3 TEMPAVG PRESSURE GPRESSURE VOLUME PRESSAVG GPRESSAVG
ENERGY: 700000 0.5400 1.9047 0.8079 0.0000 -12364.8600 1924.7285 0.0000 0.0000 1211.0243 -9225.8546 208.2403 -10436.8789 -9223.8797 208.2403 148.5947 223.9079 28553.2929 148.5947 223.9079
ENERGY: 800000 0.7140 2.5285 1.7088 0.0000 -11630.8620 1639.9714 0.0000 0.0000 1396.3461 -8589.5932 240.1071 -9985.9392 -8585.7616 239.8244 -346.4568 -258.8275 28542.5235 2.5753 2.5861
TCL: Running 100000 steps at 270 kelvin.
TCL: Setting parameter langevinTemp to 270
TCL: Running for 100000 steps
ETITLE: TS BOND ANGLE DIHED IMPRP ELECT VDW BOUNDARY MISC KINETIC TOTAL TEMP POTENTIAL TOTAL3 TEMPAVG PRESSURE GPRESSURE VOLUME PRESSAVG GPRESSAVG
ENERGY: 800000 0.7140 2.5285 1.7088 0.0000 -11630.8620 1639.9714 0.0000 0.0000 1395.6366 -8590.3026 239.9851 -9985.9392 -8588.0531 239.9851 -347.9171 -258.5761 28542.5235 -347.9171 -258.5761
ENERGY: 900000 0.1609 5.4474 1.7555 0.0000 -11145.0711 1564.5601 0.0000 0.0000 1550.7816 -8022.3654 266.6628 -9573.1470 -8019.5659 269.1347 154.1770 223.8596 29190.3067 2.9834 2.9124
TCL: Running 1000000 steps at 300 kelvin.
TCL: Setting parameter langevinTemp to 300
TCL: Running for 1000000 steps
ETITLE: TS BOND ANGLE DIHED IMPRP ELECT VDW BOUNDARY MISC KINETIC TOTAL TEMP POTENTIAL TOTAL3 TEMPAVG PRESSURE GPRESSURE VOLUME PRESSAVG GPRESSAVG
ENERGY: 900000 0.1609 5.4474 1.7555 0.0000 -11145.0711 1564.5601 0.0000 0.0000 1550.0138 -8023.1332 266.5308 -9573.1470 -8021.0580 266.5308 141.4392 221.7184 29190.3067 141.4392 221.7184
ENERGY: 1100000 0.2383 4.9536 0.1926 0.0000 -10584.2797 1420.1521 0.0000 0.0000 1756.8403 -7401.9029 302.0954 -9158.7431 -7397.8813 300.2858 103.5797 166.8505 30211.4866 3.4164 3.4937
ENERGY: 1300000 0.3225 5.2189 0.2229 0.0000 -10458.6357 1322.5568 0.0000 0.0000 1811.8772 -7318.4374 311.5592 -9130.3146 -7314.2619 299.6153 -768.0561 -670.1697 30492.4269 4.1176 4.1045
ENERGY: 1500000 0.0865 5.9780 1.0695 0.0000 -10717.2593 1483.4103 0.0000 0.0000 1766.6544 -7460.0606 303.7830 -9226.7150 -7456.3031 300.2624 578.4026 718.9914 29492.3807 2.3970 2.4349
ENERGY: 1700000 0.9769 4.4923 0.0538 0.0000 -10672.5648 1423.2025 0.0000 0.0000 1745.6912 -7498.1480 300.1783 -9243.8393 -7493.7242 300.1314 -293.1133 -189.3392 30008.3780 4.5189 4.4662
ENERGY: 1900000 0.2961 4.6951 0.5393 0.0000 -10651.2989 1425.6834 0.0000 0.0000 1671.7267 -7548.3584 287.4598 -9220.0851 -7546.3949 300.4911 59.2656 119.3148 29552.8598 3.4513 3.5069
TCL: Exiting due to exit command.
