Info: SIMULATION PARAMETERS:
Info: TIMESTEP               2
Info: NUMBER OF STEPS        0
Info: STEPS PER CYCLE        10
Info: PERIODIC CELL BASIS 1  34.986 0 0
Info: PERIODIC CELL BASIS 2  0 33.542 0
Info: PERIODIC CELL BASIS 3  0 0 37.195
Info: PERIODIC CELL CENTER   0 0 0
Info: WRAPPING WATERS AROUND PERIODIC BOUNDARIES ON OUTPUT.
Info: WRAPPING ALL CLUSTERS AROUND PERIODIC BOUNDARIES ON OUTPUT.
Info: FIRST LDB TIMESTEP     50
Info: LAST LDB TIMESTEP     -1
Info: HOM BACKGROUND SCALING 1
Info: PME BACKGROUND SCALING 1
Info: MIN ATOMS PER PATCH    40
Info: EMPTY PATCH LOAD       40 ATOMS
Info: INITIAL TEMPERATURE    300
Info: CENTER OF MASS MOVING INITIALLY? NO
Info: DIELECTRIC             1
Info: EXCLUDE                SCALED ONE-FOUR
Info: 1-4 ELECTROSTATICS SCALED BY 0.833333
Info: MODIFIED 1-4 VDW PARAMETERS WILL BE USED
Info: DCD FILENAME           mobley_8809274_equil.dcd
Info: DCD FREQUENCY          100000
Info: DCD FIRST STEP         100000
Info: DCD FILE WILL CONTAIN UNIT CELL DATA
Info: XST FILENAME           mobley_8809274_equil.xst
Info: XST FREQUENCY          100000
Info: NO VELOCITY DCD OUTPUT
Info: NO FORCE DCD OUTPUT
Info: OUTPUT FILENAME        mobley_8809274_equil
Info: BINARY OUTPUT FILES WILL BE USED
Info: RESTART FILENAME       mobley_8809274_equil.restart
Info: RESTART FREQUENCY      100000
Info: BINARY RESTART FILES WILL BE USED
Info: CUTOFF                 9
Info: PAIRLIST DISTANCE      11
Info: PAIRLIST SHRINK RATE   0.01
Info: PAIRLIST GROW RATE     0.01
Info: PAIRLIST TRIGGER       0.3
Info: PAIRLISTS PER CYCLE    2
Info: PAIRLISTS ENABLED
Info: MARGIN                 8
Info: HYDROGEN GROUP CUTOFF  2.5
Info: PATCH DIMENSION        21.5
Info: ENERGY OUTPUT STEPS    100000
Info: ENERGY EVALUATION STEPS    100000
Info: OUTPUT ENERGY PRECISION 4
Info: CROSSTERM ENERGY INCLUDED IN DIHEDRAL
Info: TIMING OUTPUT STEPS    1000000
Info: PRESSURE OUTPUT STEPS  100000
Info: LANGEVIN DYNAMICS ACTIVE
Info: LANGEVIN TEMPERATURE   30
Info: LANGEVIN USING BBK INTEGRATOR
Info: LANGEVIN DAMPING COEFFICIENT IS 1 INVERSE PS
Info: LANGEVIN DYNAMICS APPLIED TO HYDROGENS
Info: LANGEVIN PISTON PRESSURE CONTROL ACTIVE
Info:        TARGET PRESSURE IS 1.01325 BAR
Info:     OSCILLATION PERIOD IS 50 FS
Info:             DECAY TIME IS 25 FS
Info:     PISTON TEMPERATURE IS 300 K
Info:       PRESSURE CONTROL IS GROUP-BASED
Info:    INITIAL STRAIN RATE IS 0 0 0
Info:       CELL FLUCTUATION IS ISOTROPIC
Info: PARTICLE MESH EWALD (PME) ACTIVE
Info: PME TOLERANCE               1e-06
Info: PME EWALD COEFFICIENT       0.348832
Info: PME INTERPOLATION ORDER     4
Info: PME GRID DIMENSIONS         36 36 40
Info: PME MAXIMUM GRID SPACING    1
Info: FULL ELECTROSTATIC EVALUATION FREQUENCY      2
Info: USING VERLET I (r-RESPA) MTS SCHEME.
Info: C1 SPLITTING OF LONG RANGE ELECTROSTATICS
Info: PLACING ATOMS IN PATCHES BY HYDROGEN GROUPS
Info: RIGID BONDS TO HYDROGEN : ALL
Info:         ERROR TOLERANCE : 1e-08
Info:          MAX ITERATIONS : 100
Info: RIGID WATER USING SETTLE ALGORITHM
Info: RANDOM NUMBER SEED     1743212310
Info: USE HYDROGEN BONDS?    NO
Info: Using AMBER format force field!
Info: AMBER PARM FILE        mobley_8809274.prmtop
Info: COORDINATE PDB         mobley_8809274.pdb
Info: Exclusions will be read from PARM file!
Info: SCNB (VDW SCALING)     2
Info: USING ARITHMETIC MEAN TO COMBINE L-J SIGMA PARAMETERS
Info: BINARY COORDINATES     mobley_8809274_min.coor
Info: SUMMARY OF PARAMETERS:
Info: 6 BONDS
Info: 5 ANGLES
Info:   5 HARMONIC
Info:   0 COSINE-BASED
Info: 3 DIHEDRAL
Info: 0 IMPROPER
Info: 0 CROSSTERM
Info: 0 VDW
Info: 21 VDW_PAIRS
Info: 0 NBTHOLE_PAIRS
Info: STRUCTURE SUMMARY:
Info: 2940 ATOMS
Info: 2940 BONDS
Info: 24 ANGLES
Info: 36 DIHEDRALS
Info: 0 IMPROPERS
Info: 0 CROSSTERMS
Info: 2991 EXCLUSIONS
Info: 2930 RIGID BONDS
Info: 5890 DEGREES OF FREEDOM
Info: 985 HYDROGEN GROUPS
Info: 3 ATOMS IN LARGEST HYDROGEN GROUP
Info: 985 MIGRATION GROUPS
Info: 3 ATOMS IN LARGEST MIGRATION GROUP
Info: TOTAL MASS = 17711.7 amu
Info: TOTAL CHARGE = 9.99644e-05 e
Info: MASS DENSITY = 0.673832 g/cm^3
Info: ATOM DENSITY = 0.0673565 atoms/A^3
Info: ADDED 0 IMPLICIT EXCLUSIONS
Info: NONBONDED TABLE R-SQUARED SPACING: 0.0625
Info: NONBONDED TABLE SIZE: 705 POINTS
Info: REMOVING COM VELOCITY -0.152537 0.122063 -0.0308792
TCL: Running for 100000 steps
ETITLE: TS BOND ANGLE DIHED IMPRP ELECT VDW BOUNDARY MISC KINETIC TOTAL TEMP POTENTIAL TOTAL3 TEMPAVG PRESSURE GPRESSURE VOLUME PRESSAVG GPRESSAVG
ENERGY: 0 0.3280 0.1265 0.0097 0.0000 -13610.3818 2454.5172 0.0000 0.0000 1729.7750 -9425.6254 295.5730 -11155.4004 -9425.3013 295.5730 761.1416 796.5769 43648.3478 761.1416 796.5769
ENERGY: 100000 0.9985 0.5582 0.3849 0.0000 -14226.2830 2512.1704 0.0000 0.0000 176.4803 -11535.6907 30.1558 -11712.1710 -11534.9844 30.9366 346.6735 391.2352 28540.4079 4.0924 4.0563
TCL: Running 100000 steps at 60 kelvin.
TCL: Setting parameter langevinTemp to 60
TCL: Running for 100000 steps
ETITLE: TS BOND ANGLE DIHED IMPRP ELECT VDW BOUNDARY MISC KINETIC TOTAL TEMP POTENTIAL TOTAL3 TEMPAVG PRESSURE GPRESSURE VOLUME PRESSAVG GPRESSAVG
ENERGY: 100000 0.9985 0.5582 0.3849 0.0000 -14226.2830 2512.1704 0.0000 0.0000 176.3903 -11535.7807 30.1404 -11712.1710 -11535.4015 30.1404 336.5050 391.5303 28540.4079 336.5050 391.5303
ENERGY: 200000 1.1605 1.1525 1.1119 0.0000 -14013.4844 2400.6119 0.0000 0.0000 354.4245 -11255.0230 60.5618 -11609.4476 -11254.1233 59.9728 -323.5217 -264.3233 28552.3808 3.3903 3.4095
TCL: Running 100000 steps at 90 kelvin.
TCL: Setting parameter langevinTemp to 90
TCL: Running for 100000 steps
ETITLE: TS BOND ANGLE DIHED IMPRP ELECT VDW BOUNDARY MISC KINETIC TOTAL TEMP POTENTIAL TOTAL3 TEMPAVG PRESSURE GPRESSURE VOLUME PRESSAVG GPRESSAVG
ENERGY: 200000 1.1605 1.1525 1.1119 0.0000 -14013.4844 2400.6119 0.0000 0.0000 354.2561 -11255.1914 60.5330 -11609.4476 -11254.5023 60.5330 -327.9355 -264.1913 28552.3808 -327.9355 -264.1913
ENERGY: 300000 1.3656 1.8219 0.3935 0.0000 -13802.8817 2320.7745 0.0000 0.0000 531.8140 -10946.7123 90.8730 -11478.5262 -10945.8701 89.9092 -540.6987 -473.6488 28632.9777 3.9231 3.8880
TCL: Running 100000 steps at 120 kelvin.
TCL: Setting parameter langevinTemp to 120
TCL: Running for 100000 steps
ETITLE: TS BOND ANGLE DIHED IMPRP ELECT VDW BOUNDARY MISC KINETIC TOTAL TEMP POTENTIAL TOTAL3 TEMPAVG PRESSURE GPRESSURE VOLUME PRESSAVG GPRESSAVG
ENERGY: 300000 1.3656 1.8219 0.3935 0.0000 -13802.8817 2320.7745 0.0000 0.0000 531.5540 -10946.9722 90.8286 -11478.5262 -10945.7591 90.8286 -524.2777 -473.7044 28632.9777 -524.2777 -473.7044
ENERGY: 400000 1.5973 1.7515 0.8666 0.0000 -13717.9546 2324.1548 0.0000 0.0000 694.9947 -10694.5897 118.7563 -11389.5844 -10692.6624 119.5940 -16.5202 67.1944 28505.5809 4.0073 4.0300
TCL: Running 100000 steps at 150 kelvin.
TCL: Setting parameter langevinTemp to 150
TCL: Running for 100000 steps
ETITLE: TS BOND ANGLE DIHED IMPRP ELECT VDW BOUNDARY MISC KINETIC TOTAL TEMP POTENTIAL TOTAL3 TEMPAVG PRESSURE GPRESSURE VOLUME PRESSAVG GPRESSAVG
ENERGY: 400000 1.5973 1.7515 0.8666 0.0000 -13717.9546 2324.1548 0.0000 0.0000 694.6431 -10694.9413 118.6962 -11389.5844 -10693.6075 118.6962 17.8870 67.5787 28505.5809 17.8870 67.5787
ENERGY: 500000 1.0361 4.7027 1.5718 0.0000 -13378.4207 2185.2085 0.0000 0.0000 879.2923 -10306.6092 150.2479 -11185.9016 -10305.1338 150.2064 -242.0187 -205.8559 28695.8674 2.9615 3.1661
TCL: Running 100000 steps at 180 kelvin.
TCL: Setting parameter langevinTemp to 180
TCL: Running for 100000 steps
ETITLE: TS BOND ANGLE DIHED IMPRP ELECT VDW BOUNDARY MISC KINETIC TOTAL TEMP POTENTIAL TOTAL3 TEMPAVG PRESSURE GPRESSURE VOLUME PRESSAVG GPRESSAVG
ENERGY: 500000 1.0361 4.7027 1.5718 0.0000 -13378.4207 2185.2085 0.0000 0.0000 878.8733 -10307.0283 150.1763 -11185.9016 -10305.3311 150.1763 -252.9724 -206.9347 28695.8674 -252.9724 -206.9347
ENERGY: 600000 2.3287 1.7188 1.9787 0.0000 -13014.8010 2082.7085 0.0000 0.0000 1075.4882 -9850.5781 183.7726 -10926.0663 -9848.3475 179.4903 -209.3702 -134.7142 28566.1707 3.7991 3.7715
TCL: Running 100000 steps at 210 kelvin.
TCL: Setting parameter langevinTemp to 210
TCL: Running for 100000 steps
ETITLE: TS BOND ANGLE DIHED IMPRP ELECT VDW BOUNDARY MISC KINETIC TOTAL TEMP POTENTIAL TOTAL3 TEMPAVG PRESSURE GPRESSURE VOLUME PRESSAVG GPRESSAVG
ENERGY: 600000 2.3287 1.7188 1.9787 0.0000 -13014.8010 2082.7085 0.0000 0.0000 1074.9776 -9851.0886 183.6854 -10926.0663 -9849.2210 183.6854 -196.4616 -133.9435 28566.1707 -196.4616 -133.9435
ENERGY: 700000 1.5155 3.1452 0.4953 0.0000 -12370.3225 1936.2858 0.0000 0.0000 1237.6817 -9191.1990 211.4872 -10428.8807 -9189.2911 210.4908 381.6098 455.0185 28859.0204 3.0186 2.9413
TCL: Running 100000 steps at 240 kelvin.
TCL: Setting parameter langevinTemp to 240
TCL: Running for 100000 steps
ETITLE: TS BOND ANGLE DIHED IMPRP ELECT VDW BOUNDARY MISC KINETIC TOTAL TEMP POTENTIAL TOTAL3 TEMPAVG PRESSURE GPRESSURE VOLUME PRESSAVG GPRESSAVG
ENERGY: 700000 1.5155 3.1452 0.4953 0.0000 -12370.3225 1936.2858 0.0000 0.0000 1237.0843 -9191.7964 211.3851 -10428.8807 -9189.7587 211.3851 384.0624 455.7427 28859.0204 384.0624 455.7427
ENERGY: 800000 3.0442 2.7235 0.7954 0.0000 -11648.8040 1654.3343 0.0000 0.0000 1401.5142 -8586.3925 239.4819 -9987.9067 -8583.3611 240.5632 -525.0963 -454.6448 29207.8892 3.5299 3.4923
TCL: Running 100000 steps at 270 kelvin.
TCL: Setting parameter langevinTemp to 270
TCL: Running for 100000 steps
ETITLE: TS BOND ANGLE DIHED IMPRP ELECT VDW BOUNDARY MISC KINETIC TOTAL TEMP POTENTIAL TOTAL3 TEMPAVG PRESSURE GPRESSURE VOLUME PRESSAVG GPRESSAVG
ENERGY: 800000 3.0442 2.7235 0.7954 0.0000 -11648.8040 1654.3343 0.0000 0.0000 1400.8091 -8587.0976 239.3614 -9987.9067 -8584.7765 239.3614 -531.7886 -455.1202 29207.8892 -531.7886 -455.1202
ENERGY: 900000 3.5698 3.2098 3.1093 0.0000 -11043.2586 1423.0644 0.0000 0.0000 1604.7687 -8005.5366 274.2127 -9610.3053 -8002.6863 269.6627 -1102.6578 -1046.7000 29468.3184 3.1753 3.3994
TCL: Running 1000000 steps at 300 kelvin.
TCL: Setting parameter langevinTemp to 300
TCL: Running for 1000000 steps
ETITLE: TS BOND ANGLE DIHED IMPRP ELECT VDW BOUNDARY MISC KINETIC TOTAL TEMP POTENTIAL TOTAL3 TEMPAVG PRESSURE GPRESSURE VOLUME PRESSAVG GPRESSAVG
ENERGY: 900000 3.5698 3.2098 3.1093 0.0000 -11043.2586 1423.0644 0.0000 0.0000 1603.9873 -8006.3181 274.0792 -9610.3053 -8003.2786 274.0792 -1122.5553 -1047.1913 29468.3184 -1122.5553 -1047.1913
ENERGY: 1100000 1.2163 4.2053 2.6426 0.0000 -10616.0720 1401.4865 0.0000 0.0000 1716.5558 -7489.9656 293.3141 -9206.5214 -7484.3164 299.5946 -601.4466 -442.6907 30556.8388 1.9996 2.0518
ENERGY: 1300000 2.9349 3.9349 4.0504 0.0000 -10631.9754 1434.0634 0.0000 0.0000 1731.8096 -7455.1822 295.9206 -9186.9918 -7450.1104 299.7560 76.6580 223.8352 30118.4113 3.3143 3.2267
ENERGY: 1500000 3.0793 3.3836 3.1045 0.0000 -10534.3356 1321.0909 0.0000 0.0000 1758.0997 -7445.5777 300.4129 -9203.6774 -7442.3633 300.0058 -1037.4634 -911.1806 30600.7786 1.6961 1.7490
ENERGY: 1700000 2.4370 3.0796 1.4777 0.0000 -10754.0328 1489.4234 0.0000 0.0000 1770.7893 -7486.8258 302.5812 -9257.6151 -7481.0962 299.6731 268.3908 347.7815 30133.6475 3.0145 3.1754
ENERGY: 1900000 2.8669 4.3284 2.5752 0.0000 -10665.7633 1464.9785 0.0000 0.0000 1825.4322 -7365.5821 311.9182 -9191.0142 -7362.3642 300.2760 363.6920 422.9995 30348.3515 3.8580 3.8721
TCL: Exiting due to exit command.
