Info: SIMULATION PARAMETERS:
Info: TIMESTEP               2
Info: NUMBER OF STEPS        0
Info: STEPS PER CYCLE        10
Info: PERIODIC CELL BASIS 1  36.592 0 0
Info: PERIODIC CELL BASIS 2  0 34.1 0
Info: PERIODIC CELL BASIS 3  0 0 35.856
Info: PERIODIC CELL CENTER   0 0 0
Info: WRAPPING WATERS AROUND PERIODIC BOUNDARIES ON OUTPUT.
Info: WRAPPING ALL CLUSTERS AROUND PERIODIC BOUNDARIES ON OUTPUT.
Info: FIRST LDB TIMESTEP     50
Info: LAST LDB TIMESTEP     -1
Info: HOM BACKGROUND SCALING 1
Info: PME BACKGROUND SCALING 1
Info: MIN ATOMS PER PATCH    40
Info: EMPTY PATCH LOAD       40 ATOMS
Info: INITIAL TEMPERATURE    300
Info: CENTER OF MASS MOVING INITIALLY? NO
Info: DIELECTRIC             1
Info: EXCLUDE                SCALED ONE-FOUR
Info: 1-4 ELECTROSTATICS SCALED BY 0.833333
Info: MODIFIED 1-4 VDW PARAMETERS WILL BE USED
Info: DCD FILENAME           mobley_8208692_equil.dcd
Info: DCD FREQUENCY          100000
Info: DCD FIRST STEP         100000
Info: DCD FILE WILL CONTAIN UNIT CELL DATA
Info: XST FILENAME           mobley_8208692_equil.xst
Info: XST FREQUENCY          100000
Info: NO VELOCITY DCD OUTPUT
Info: NO FORCE DCD OUTPUT
Info: OUTPUT FILENAME        mobley_8208692_equil
Info: BINARY OUTPUT FILES WILL BE USED
Info: RESTART FILENAME       mobley_8208692_equil.restart
Info: RESTART FREQUENCY      100000
Info: BINARY RESTART FILES WILL BE USED
Info: CUTOFF                 9
Info: PAIRLIST DISTANCE      11
Info: PAIRLIST SHRINK RATE   0.01
Info: PAIRLIST GROW RATE     0.01
Info: PAIRLIST TRIGGER       0.3
Info: PAIRLISTS PER CYCLE    2
Info: PAIRLISTS ENABLED
Info: MARGIN                 8
Info: HYDROGEN GROUP CUTOFF  2.5
Info: PATCH DIMENSION        21.5
Info: ENERGY OUTPUT STEPS    100000
Info: ENERGY EVALUATION STEPS    100000
Info: OUTPUT ENERGY PRECISION 4
Info: CROSSTERM ENERGY INCLUDED IN DIHEDRAL
Info: TIMING OUTPUT STEPS    1000000
Info: PRESSURE OUTPUT STEPS  100000
Info: LANGEVIN DYNAMICS ACTIVE
Info: LANGEVIN TEMPERATURE   30
Info: LANGEVIN USING BBK INTEGRATOR
Info: LANGEVIN DAMPING COEFFICIENT IS 1 INVERSE PS
Info: LANGEVIN DYNAMICS APPLIED TO HYDROGENS
Info: LANGEVIN PISTON PRESSURE CONTROL ACTIVE
Info:        TARGET PRESSURE IS 1.01325 BAR
Info:     OSCILLATION PERIOD IS 50 FS
Info:             DECAY TIME IS 25 FS
Info:     PISTON TEMPERATURE IS 300 K
Info:       PRESSURE CONTROL IS GROUP-BASED
Info:    INITIAL STRAIN RATE IS 0 0 0
Info:       CELL FLUCTUATION IS ISOTROPIC
Info: PARTICLE MESH EWALD (PME) ACTIVE
Info: PME TOLERANCE               1e-06
Info: PME EWALD COEFFICIENT       0.348832
Info: PME INTERPOLATION ORDER     4
Info: PME GRID DIMENSIONS         40 36 36
Info: PME MAXIMUM GRID SPACING    1
Info: FULL ELECTROSTATIC EVALUATION FREQUENCY      2
Info: USING VERLET I (r-RESPA) MTS SCHEME.
Info: C1 SPLITTING OF LONG RANGE ELECTROSTATICS
Info: PLACING ATOMS IN PATCHES BY HYDROGEN GROUPS
Info: RIGID BONDS TO HYDROGEN : ALL
Info:         ERROR TOLERANCE : 1e-08
Info:          MAX ITERATIONS : 100
Info: RIGID WATER USING SETTLE ALGORITHM
Info: RANDOM NUMBER SEED     1743236239
Info: USE HYDROGEN BONDS?    NO
Info: Using AMBER format force field!
Info: AMBER PARM FILE        mobley_8208692.prmtop
Info: COORDINATE PDB         mobley_8208692.pdb
Info: Exclusions will be read from PARM file!
Info: SCNB (VDW SCALING)     2
Info: USING ARITHMETIC MEAN TO COMBINE L-J SIGMA PARAMETERS
Info: BINARY COORDINATES     mobley_8208692_min.coor
Info: SUMMARY OF PARAMETERS:
Info: 7 BONDS
Info: 8 ANGLES
Info:   8 HARMONIC
Info:   0 COSINE-BASED
Info: 3 DIHEDRAL
Info: 0 IMPROPER
Info: 0 CROSSTERM
Info: 0 VDW
Info: 15 VDW_PAIRS
Info: 0 NBTHOLE_PAIRS
Info: STRUCTURE SUMMARY:
Info: 2965 ATOMS
Info: 2966 BONDS
Info: 36 ANGLES
Info: 64 DIHEDRALS
Info: 0 IMPROPERS
Info: 0 CROSSTERMS
Info: 3048 EXCLUSIONS
Info: 2945 RIGID BONDS
Info: 5950 DEGREES OF FREEDOM
Info: 1001 HYDROGEN GROUPS
Info: 3 ATOMS IN LARGEST HYDROGEN GROUP
Info: 1001 MIGRATION GROUPS
Info: 3 ATOMS IN LARGEST MIGRATION GROUP
Info: TOTAL MASS = 18103.4 amu
Info: TOTAL CHARGE = 0.000100007 e
Info: MASS DENSITY = 0.67192 g/cm^3
Info: ATOM DENSITY = 0.0662708 atoms/A^3
Info: ADDED 0 IMPLICIT EXCLUSIONS
Info: NONBONDED TABLE R-SQUARED SPACING: 0.0625
Info: NONBONDED TABLE SIZE: 705 POINTS
Info: REMOVING COM VELOCITY -0.0215847 -0.114515 0.0352223
TCL: Running for 100000 steps
ETITLE: TS BOND ANGLE DIHED IMPRP ELECT VDW BOUNDARY MISC KINETIC TOTAL TEMP POTENTIAL TOTAL3 TEMPAVG PRESSURE GPRESSURE VOLUME PRESSAVG GPRESSAVG
ENERGY: 0 0.7412 0.3597 7.4608 0.0000 -13594.6527 2393.1274 0.0000 0.0000 1754.8082 -9438.1555 296.8268 -11192.9637 -9437.8068 296.8268 419.7837 446.7141 44740.6578 419.7837 446.7141
ENERGY: 100000 1.3899 0.8014 7.8513 0.0000 -14163.5308 2470.2147 0.0000 0.0000 185.3541 -11497.9194 31.3528 -11683.2735 -11497.3721 30.9552 31.1615 109.5216 30198.2906 5.3447 5.3554
TCL: Running 100000 steps at 60 kelvin.
TCL: Setting parameter langevinTemp to 60
TCL: Running for 100000 steps
ETITLE: TS BOND ANGLE DIHED IMPRP ELECT VDW BOUNDARY MISC KINETIC TOTAL TEMP POTENTIAL TOTAL3 TEMPAVG PRESSURE GPRESSURE VOLUME PRESSAVG GPRESSAVG
ENERGY: 100000 1.3899 0.8014 7.8513 0.0000 -14163.5308 2470.2147 0.0000 0.0000 185.2678 -11498.0057 31.3381 -11683.2735 -11497.6958 31.3381 38.8462 109.5873 30198.2906 38.8462 109.5873
ENERGY: 200000 1.6090 1.1530 8.1343 0.0000 -14091.6831 2442.3578 0.0000 0.0000 363.2461 -11275.1829 61.4433 -11638.4290 -11274.2238 59.9602 198.2699 274.3412 29579.0725 2.8629 2.8624
TCL: Running 100000 steps at 90 kelvin.
TCL: Setting parameter langevinTemp to 90
TCL: Running for 100000 steps
ETITLE: TS BOND ANGLE DIHED IMPRP ELECT VDW BOUNDARY MISC KINETIC TOTAL TEMP POTENTIAL TOTAL3 TEMPAVG PRESSURE GPRESSURE VOLUME PRESSAVG GPRESSAVG
ENERGY: 200000 1.6090 1.1530 8.1343 0.0000 -14091.6831 2442.3578 0.0000 0.0000 363.0748 -11275.3542 61.4143 -11638.4290 -11274.5359 61.4143 206.6266 274.6381 29579.0725 206.6266 274.6381
ENERGY: 300000 2.7286 1.4959 9.5196 0.0000 -13910.3077 2322.5881 0.0000 0.0000 514.1923 -11059.7831 86.9759 -11573.9754 -11058.1326 89.8486 -605.4590 -533.2303 29276.7390 4.5511 4.3706
TCL: Running 100000 steps at 120 kelvin.
TCL: Setting parameter langevinTemp to 120
TCL: Running for 100000 steps
ETITLE: TS BOND ANGLE DIHED IMPRP ELECT VDW BOUNDARY MISC KINETIC TOTAL TEMP POTENTIAL TOTAL3 TEMPAVG PRESSURE GPRESSURE VOLUME PRESSAVG GPRESSAVG
ENERGY: 300000 2.7286 1.4959 9.5196 0.0000 -13910.3077 2322.5881 0.0000 0.0000 513.9335 -11060.0419 86.9321 -11573.9754 -11058.8516 86.9321 -583.8793 -532.4594 29276.7390 -583.8793 -532.4594
ENERGY: 400000 2.1483 1.4886 9.4346 0.0000 -13905.1283 2416.1752 0.0000 0.0000 720.9381 -10754.9434 121.9471 -11475.8815 -10752.8651 119.8542 860.3844 917.3288 28814.9211 3.1679 3.1499
TCL: Running 100000 steps at 150 kelvin.
TCL: Setting parameter langevinTemp to 150
TCL: Running for 100000 steps
ETITLE: TS BOND ANGLE DIHED IMPRP ELECT VDW BOUNDARY MISC KINETIC TOTAL TEMP POTENTIAL TOTAL3 TEMPAVG PRESSURE GPRESSURE VOLUME PRESSAVG GPRESSAVG
ENERGY: 400000 2.1483 1.4886 9.4346 0.0000 -13905.1283 2416.1752 0.0000 0.0000 720.5864 -10755.2951 121.8876 -11475.8815 -10754.2331 121.8876 855.0014 917.4987 28814.9211 855.0014 917.4987
ENERGY: 500000 3.6035 2.6164 8.5291 0.0000 -13592.3406 2277.9638 0.0000 0.0000 881.4033 -10418.2245 149.0899 -11299.6278 -10417.0326 149.6131 344.1472 404.8129 28878.2490 2.8596 2.8307
TCL: Running 100000 steps at 180 kelvin.
TCL: Setting parameter langevinTemp to 180
TCL: Running for 100000 steps
ETITLE: TS BOND ANGLE DIHED IMPRP ELECT VDW BOUNDARY MISC KINETIC TOTAL TEMP POTENTIAL TOTAL3 TEMPAVG PRESSURE GPRESSURE VOLUME PRESSAVG GPRESSAVG
ENERGY: 500000 3.6035 2.6164 8.5291 0.0000 -13592.3406 2277.9638 0.0000 0.0000 880.9775 -10418.6503 149.0178 -11299.6278 -10416.8833 149.0178 365.7954 404.1232 28878.2490 365.7954 404.1232
ENERGY: 600000 4.5144 1.2505 10.6663 0.0000 -13110.6177 2051.0368 0.0000 0.0000 1058.4339 -9984.7159 179.0347 -11043.1497 -9982.3540 179.8566 -491.3834 -443.9373 29021.0463 4.1703 4.2725
TCL: Running 100000 steps at 210 kelvin.
TCL: Setting parameter langevinTemp to 210
TCL: Running for 100000 steps
ETITLE: TS BOND ANGLE DIHED IMPRP ELECT VDW BOUNDARY MISC KINETIC TOTAL TEMP POTENTIAL TOTAL3 TEMPAVG PRESSURE GPRESSURE VOLUME PRESSAVG GPRESSAVG
ENERGY: 600000 4.5144 1.2505 10.6663 0.0000 -13110.6177 2051.0368 0.0000 0.0000 1057.9145 -9985.2352 178.9468 -11043.1497 -9983.3013 178.9468 -504.7059 -443.8839 29021.0463 -504.7059 -443.8839
ENERGY: 700000 3.5622 3.7573 10.2547 0.0000 -12526.6791 1934.3662 0.0000 0.0000 1284.8476 -9289.8912 217.3327 -10574.7388 -9287.5128 209.7947 425.2005 562.0092 28981.6370 5.0568 5.1274
TCL: Running 100000 steps at 240 kelvin.
TCL: Setting parameter langevinTemp to 240
TCL: Running for 100000 steps
ETITLE: TS BOND ANGLE DIHED IMPRP ELECT VDW BOUNDARY MISC KINETIC TOTAL TEMP POTENTIAL TOTAL3 TEMPAVG PRESSURE GPRESSURE VOLUME PRESSAVG GPRESSAVG
ENERGY: 700000 3.5622 3.7573 10.2547 0.0000 -12526.6791 1934.3662 0.0000 0.0000 1284.2240 -9290.5148 217.2272 -10574.7388 -9288.5302 217.2272 495.9745 561.5592 28981.6370 495.9745 561.5592
ENERGY: 800000 2.9389 4.7674 12.1579 0.0000 -11869.3545 1739.8857 0.0000 0.0000 1460.4828 -8649.1218 247.0415 -10109.6046 -8646.1034 240.1396 104.7767 198.8464 29461.5222 3.8642 3.9116
TCL: Running 100000 steps at 270 kelvin.
TCL: Setting parameter langevinTemp to 270
TCL: Running for 100000 steps
ETITLE: TS BOND ANGLE DIHED IMPRP ELECT VDW BOUNDARY MISC KINETIC TOTAL TEMP POTENTIAL TOTAL3 TEMPAVG PRESSURE GPRESSURE VOLUME PRESSAVG GPRESSAVG
ENERGY: 800000 2.9389 4.7674 12.1579 0.0000 -11869.3545 1739.8857 0.0000 0.0000 1459.7838 -8649.8208 246.9232 -10109.6046 -8646.9755 246.9232 108.6483 198.5843 29461.5222 108.6483 198.5843
ENERGY: 900000 7.2694 4.3887 14.9028 0.0000 -11214.7722 1557.9359 0.0000 0.0000 1582.2689 -8048.0065 267.6417 -9630.2755 -8041.1015 269.4900 -206.6992 -83.1758 30199.9207 2.4447 2.4110
TCL: Running 1000000 steps at 300 kelvin.
TCL: Setting parameter langevinTemp to 300
TCL: Running for 1000000 steps
ETITLE: TS BOND ANGLE DIHED IMPRP ELECT VDW BOUNDARY MISC KINETIC TOTAL TEMP POTENTIAL TOTAL3 TEMPAVG PRESSURE GPRESSURE VOLUME PRESSAVG GPRESSAVG
ENERGY: 900000 7.2694 4.3887 14.9028 0.0000 -11214.7722 1557.9359 0.0000 0.0000 1581.4756 -8048.7999 267.5075 -9630.2755 -8046.1523 267.5075 -162.1078 -78.9891 30199.9207 -162.1078 -78.9891
ENERGY: 1100000 8.6275 8.0622 12.3685 0.0000 -10633.2438 1353.5722 0.0000 0.0000 1767.4843 -7483.1290 298.9710 -9250.6134 -7480.2719 299.5690 -553.2461 -466.1123 30957.9018 3.3663 3.5353
ENERGY: 1300000 11.3542 9.0353 10.6871 0.0000 -10662.9277 1467.9014 0.0000 0.0000 1824.4085 -7339.5412 308.5997 -9163.9497 -7335.2249 300.4647 298.4835 381.4926 30918.7676 2.8394 2.8419
ENERGY: 1500000 8.7212 4.6786 12.2866 0.0000 -10619.0361 1344.0673 0.0000 0.0000 1847.7006 -7401.5818 312.5396 -9249.2824 -7398.1359 301.2387 -566.6883 -597.9457 30996.7211 1.8477 1.8308
ENERGY: 1700000 4.9010 5.5074 16.1790 0.0000 -10737.5368 1443.5708 0.0000 0.0000 1822.4265 -7444.9520 308.2645 -9267.3785 -7443.4575 300.5302 315.5055 399.2913 30666.1812 3.9004 3.9391
ENERGY: 1900000 9.0130 1.7110 11.6233 0.0000 -10567.1753 1366.8887 0.0000 0.0000 1737.0308 -7440.9085 293.8197 -9177.9393 -7437.3113 300.6476 -387.2169 -297.2436 31003.9096 2.9495 2.8540
TCL: Exiting due to exit command.
