Info: SIMULATION PARAMETERS:
Info: TIMESTEP               2
Info: NUMBER OF STEPS        0
Info: STEPS PER CYCLE        10
Info: PERIODIC CELL BASIS 1  33.998 0 0
Info: PERIODIC CELL BASIS 2  0 34.26 0
Info: PERIODIC CELL BASIS 3  0 0 36.583
Info: PERIODIC CELL CENTER   0 0 0
Info: WRAPPING WATERS AROUND PERIODIC BOUNDARIES ON OUTPUT.
Info: WRAPPING ALL CLUSTERS AROUND PERIODIC BOUNDARIES ON OUTPUT.
Info: FIRST LDB TIMESTEP     50
Info: LAST LDB TIMESTEP     -1
Info: HOM BACKGROUND SCALING 1
Info: PME BACKGROUND SCALING 1
Info: MIN ATOMS PER PATCH    40
Info: EMPTY PATCH LOAD       40 ATOMS
Info: INITIAL TEMPERATURE    300
Info: CENTER OF MASS MOVING INITIALLY? NO
Info: DIELECTRIC             1
Info: EXCLUDE                SCALED ONE-FOUR
Info: 1-4 ELECTROSTATICS SCALED BY 0.833333
Info: MODIFIED 1-4 VDW PARAMETERS WILL BE USED
Info: DCD FILENAME           mobley_6973347_equil.dcd
Info: DCD FREQUENCY          100000
Info: DCD FIRST STEP         100000
Info: DCD FILE WILL CONTAIN UNIT CELL DATA
Info: XST FILENAME           mobley_6973347_equil.xst
Info: XST FREQUENCY          100000
Info: NO VELOCITY DCD OUTPUT
Info: NO FORCE DCD OUTPUT
Info: OUTPUT FILENAME        mobley_6973347_equil
Info: BINARY OUTPUT FILES WILL BE USED
Info: RESTART FILENAME       mobley_6973347_equil.restart
Info: RESTART FREQUENCY      100000
Info: BINARY RESTART FILES WILL BE USED
Info: CUTOFF                 9
Info: PAIRLIST DISTANCE      11
Info: PAIRLIST SHRINK RATE   0.01
Info: PAIRLIST GROW RATE     0.01
Info: PAIRLIST TRIGGER       0.3
Info: PAIRLISTS PER CYCLE    2
Info: PAIRLISTS ENABLED
Info: MARGIN                 8
Info: HYDROGEN GROUP CUTOFF  2.5
Info: PATCH DIMENSION        21.5
Info: ENERGY OUTPUT STEPS    100000
Info: ENERGY EVALUATION STEPS    100000
Info: OUTPUT ENERGY PRECISION 4
Info: CROSSTERM ENERGY INCLUDED IN DIHEDRAL
Info: TIMING OUTPUT STEPS    1000000
Info: PRESSURE OUTPUT STEPS  100000
Info: LANGEVIN DYNAMICS ACTIVE
Info: LANGEVIN TEMPERATURE   30
Info: LANGEVIN USING BBK INTEGRATOR
Info: LANGEVIN DAMPING COEFFICIENT IS 1 INVERSE PS
Info: LANGEVIN DYNAMICS APPLIED TO HYDROGENS
Info: LANGEVIN PISTON PRESSURE CONTROL ACTIVE
Info:        TARGET PRESSURE IS 1.01325 BAR
Info:     OSCILLATION PERIOD IS 50 FS
Info:             DECAY TIME IS 25 FS
Info:     PISTON TEMPERATURE IS 300 K
Info:       PRESSURE CONTROL IS GROUP-BASED
Info:    INITIAL STRAIN RATE IS 0 0 0
Info:       CELL FLUCTUATION IS ISOTROPIC
Info: PARTICLE MESH EWALD (PME) ACTIVE
Info: PME TOLERANCE               1e-06
Info: PME EWALD COEFFICIENT       0.348832
Info: PME INTERPOLATION ORDER     4
Info: PME GRID DIMENSIONS         36 36 40
Info: PME MAXIMUM GRID SPACING    1
Info: FULL ELECTROSTATIC EVALUATION FREQUENCY      2
Info: USING VERLET I (r-RESPA) MTS SCHEME.
Info: C1 SPLITTING OF LONG RANGE ELECTROSTATICS
Info: PLACING ATOMS IN PATCHES BY HYDROGEN GROUPS
Info: RIGID BONDS TO HYDROGEN : ALL
Info:         ERROR TOLERANCE : 1e-08
Info:          MAX ITERATIONS : 100
Info: RIGID WATER USING SETTLE ALGORITHM
Info: RANDOM NUMBER SEED     1743228173
Info: USE HYDROGEN BONDS?    NO
Info: Using AMBER format force field!
Info: AMBER PARM FILE        mobley_6973347.prmtop
Info: COORDINATE PDB         mobley_6973347.pdb
Info: Exclusions will be read from PARM file!
Info: SCNB (VDW SCALING)     2
Info: USING ARITHMETIC MEAN TO COMBINE L-J SIGMA PARAMETERS
Info: BINARY COORDINATES     mobley_6973347_min.coor
Info: SUMMARY OF PARAMETERS:
Info: 9 BONDS
Info: 11 ANGLES
Info:   11 HARMONIC
Info:   0 COSINE-BASED
Info: 15 DIHEDRAL
Info: 0 IMPROPER
Info: 0 CROSSTERM
Info: 0 VDW
Info: 36 VDW_PAIRS
Info: 0 NBTHOLE_PAIRS
Info: STRUCTURE SUMMARY:
Info: 2921 ATOMS
Info: 2920 BONDS
Info: 22 ANGLES
Info: 34 DIHEDRALS
Info: 0 IMPROPERS
Info: 0 CROSSTERMS
Info: 2962 EXCLUSIONS
Info: 2915 RIGID BONDS
Info: 5848 DEGREES OF FREEDOM
Info: 975 HYDROGEN GROUPS
Info: 4 ATOMS IN LARGEST HYDROGEN GROUP
Info: 975 MIGRATION GROUPS
Info: 4 ATOMS IN LARGEST MIGRATION GROUP
Info: TOTAL MASS = 17545.6 amu
Info: TOTAL CHARGE = 0.000100005 e
Info: MASS DENSITY = 0.683766 g/cm^3
Info: ATOM DENSITY = 0.0685506 atoms/A^3
Info: ADDED 0 IMPLICIT EXCLUSIONS
Info: NONBONDED TABLE R-SQUARED SPACING: 0.0625
Info: NONBONDED TABLE SIZE: 705 POINTS
Info: REMOVING COM VELOCITY 0.123105 -0.055897 0.00360855
TCL: Running for 100000 steps
ETITLE: TS BOND ANGLE DIHED IMPRP ELECT VDW BOUNDARY MISC KINETIC TOTAL TEMP POTENTIAL TOTAL3 TEMPAVG PRESSURE GPRESSURE VOLUME PRESSAVG GPRESSAVG
ENERGY: 0 0.0290 0.3518 4.7497 0.0000 -13548.3153 2326.9683 0.0000 0.0000 1741.6991 -9474.5174 299.7479 -11216.2165 -9474.1539 299.7479 89.4933 132.6890 42610.8351 89.4933 132.6890
ENERGY: 100000 0.1779 0.6117 5.0279 0.0000 -14151.2669 2486.0579 0.0000 0.0000 176.0858 -11483.3057 30.3045 -11659.3915 -11482.7753 30.8548 330.3887 389.0609 28594.1774 4.3430 4.3870
TCL: Running 100000 steps at 60 kelvin.
TCL: Setting parameter langevinTemp to 60
TCL: Running for 100000 steps
ETITLE: TS BOND ANGLE DIHED IMPRP ELECT VDW BOUNDARY MISC KINETIC TOTAL TEMP POTENTIAL TOTAL3 TEMPAVG PRESSURE GPRESSURE VOLUME PRESSAVG GPRESSAVG
ENERGY: 100000 0.1779 0.6117 5.0279 0.0000 -14151.2669 2486.0579 0.0000 0.0000 176.0002 -11483.3913 30.2898 -11659.3915 -11483.0739 30.2898 328.4704 389.0962 28594.1774 328.4704 389.0962
ENERGY: 200000 1.0252 1.4489 5.0654 0.0000 -13982.2712 2367.1752 0.0000 0.0000 351.7137 -11255.8429 60.5302 -11607.5566 -11254.6029 60.0198 -259.0052 -189.9131 28296.5246 4.3807 4.3099
TCL: Running 100000 steps at 90 kelvin.
TCL: Setting parameter langevinTemp to 90
TCL: Running for 100000 steps
ETITLE: TS BOND ANGLE DIHED IMPRP ELECT VDW BOUNDARY MISC KINETIC TOTAL TEMP POTENTIAL TOTAL3 TEMPAVG PRESSURE GPRESSURE VOLUME PRESSAVG GPRESSAVG
ENERGY: 200000 1.0252 1.4489 5.0654 0.0000 -13982.2712 2367.1752 0.0000 0.0000 351.5413 -11256.0154 60.5005 -11607.5566 -11255.2702 60.5005 -232.2411 -189.5682 28296.5246 -232.2411 -189.5682
ENERGY: 300000 0.3065 2.9838 4.9652 0.0000 -13960.3158 2462.1038 0.0000 0.0000 537.7323 -10952.2242 92.5442 -11489.9565 -10950.9921 90.2802 827.7764 868.2551 28252.2210 4.3780 4.3962
TCL: Running 100000 steps at 120 kelvin.
TCL: Setting parameter langevinTemp to 120
TCL: Running for 100000 steps
ETITLE: TS BOND ANGLE DIHED IMPRP ELECT VDW BOUNDARY MISC KINETIC TOTAL TEMP POTENTIAL TOTAL3 TEMPAVG PRESSURE GPRESSURE VOLUME PRESSAVG GPRESSAVG
ENERGY: 300000 0.3065 2.9838 4.9652 0.0000 -13960.3158 2462.1038 0.0000 0.0000 537.4625 -10952.4939 92.4978 -11489.9565 -10951.3187 92.4978 817.6163 868.6199 28252.2210 817.6163 868.6199
ENERGY: 400000 0.3551 3.6141 4.8373 0.0000 -13613.6690 2227.6684 0.0000 0.0000 710.6548 -10666.5394 122.3043 -11377.1941 -10663.6985 120.2322 -523.8306 -473.1689 28245.6629 3.5636 3.5922
TCL: Running 100000 steps at 150 kelvin.
TCL: Setting parameter langevinTemp to 150
TCL: Running for 100000 steps
ETITLE: TS BOND ANGLE DIHED IMPRP ELECT VDW BOUNDARY MISC KINETIC TOTAL TEMP POTENTIAL TOTAL3 TEMPAVG PRESSURE GPRESSURE VOLUME PRESSAVG GPRESSAVG
ENERGY: 400000 0.3551 3.6141 4.8373 0.0000 -13613.6690 2227.6684 0.0000 0.0000 710.3098 -10666.8844 122.2449 -11377.1941 -10665.4551 122.2449 -528.8835 -472.7902 28245.6629 -528.8835 -472.7902
ENERGY: 500000 0.4268 5.4328 5.2883 0.0000 -13338.0689 2141.6616 0.0000 0.0000 917.4998 -10267.7596 157.9025 -11185.2594 -10264.8725 150.2541 -802.5970 -735.1073 28821.0111 2.1821 2.1354
TCL: Running 100000 steps at 180 kelvin.
TCL: Setting parameter langevinTemp to 180
TCL: Running for 100000 steps
ETITLE: TS BOND ANGLE DIHED IMPRP ELECT VDW BOUNDARY MISC KINETIC TOTAL TEMP POTENTIAL TOTAL3 TEMPAVG PRESSURE GPRESSURE VOLUME PRESSAVG GPRESSAVG
ENERGY: 500000 0.4268 5.4328 5.2883 0.0000 -13338.0689 2141.6616 0.0000 0.0000 917.0445 -10268.2150 157.8241 -11185.2594 -10265.8639 157.8241 -784.1067 -736.2498 28821.0111 -784.1067 -736.2498
ENERGY: 600000 0.1081 3.1871 5.3785 0.0000 -12927.3802 2032.4746 0.0000 0.0000 1067.7283 -9818.5037 183.7569 -10886.2319 -9815.9252 179.4701 -510.2082 -441.8376 28645.5572 4.1392 4.0854
TCL: Running 100000 steps at 210 kelvin.
TCL: Setting parameter langevinTemp to 210
TCL: Running for 100000 steps
ETITLE: TS BOND ANGLE DIHED IMPRP ELECT VDW BOUNDARY MISC KINETIC TOTAL TEMP POTENTIAL TOTAL3 TEMPAVG PRESSURE GPRESSURE VOLUME PRESSAVG GPRESSAVG
ENERGY: 600000 0.1081 3.1871 5.3785 0.0000 -12927.3802 2032.4746 0.0000 0.0000 1067.2145 -9819.0175 183.6685 -10886.2319 -9816.5521 183.6685 -503.6905 -442.2289 28645.5572 -503.6905 -442.2289
ENERGY: 700000 0.6382 5.0050 4.1438 0.0000 -12364.4540 1862.4286 0.0000 0.0000 1226.4190 -9265.8194 211.0677 -10492.2383 -9262.6193 209.5723 -281.8670 -187.9447 28458.5754 3.7288 3.8248
TCL: Running 100000 steps at 240 kelvin.
TCL: Setting parameter langevinTemp to 240
TCL: Running for 100000 steps
ETITLE: TS BOND ANGLE DIHED IMPRP ELECT VDW BOUNDARY MISC KINETIC TOTAL TEMP POTENTIAL TOTAL3 TEMPAVG PRESSURE GPRESSURE VOLUME PRESSAVG GPRESSAVG
ENERGY: 700000 0.6382 5.0050 4.1438 0.0000 -12364.4540 1862.4286 0.0000 0.0000 1225.8376 -9266.4007 210.9677 -10492.2383 -9264.1244 210.9677 -261.0101 -187.7531 28458.5754 -261.0101 -187.7531
ENERGY: 800000 2.2808 5.2958 5.1394 0.0000 -11727.1737 1788.4995 0.0000 0.0000 1412.7055 -8513.2528 243.1278 -9925.9583 -8509.6681 239.9979 869.9477 997.5760 28741.2539 2.8800 2.8429
TCL: Running 100000 steps at 270 kelvin.
TCL: Setting parameter langevinTemp to 270
TCL: Running for 100000 steps
ETITLE: TS BOND ANGLE DIHED IMPRP ELECT VDW BOUNDARY MISC KINETIC TOTAL TEMP POTENTIAL TOTAL3 TEMPAVG PRESSURE GPRESSURE VOLUME PRESSAVG GPRESSAVG
ENERGY: 800000 2.2808 5.2958 5.1394 0.0000 -11727.1737 1788.4995 0.0000 0.0000 1412.0172 -8513.9411 243.0094 -9925.9583 -8512.2564 243.0094 913.2232 999.5994 28741.2539 913.2232 999.5994
ENERGY: 900000 0.9970 5.3372 5.7050 0.0000 -11053.5739 1497.6145 0.0000 0.0000 1568.5633 -7975.3570 269.9511 -9543.9202 -7971.2253 270.1770 -252.8444 -209.7752 29450.0083 4.5045 4.3727
TCL: Running 1000000 steps at 300 kelvin.
TCL: Setting parameter langevinTemp to 300
TCL: Running for 1000000 steps
ETITLE: TS BOND ANGLE DIHED IMPRP ELECT VDW BOUNDARY MISC KINETIC TOTAL TEMP POTENTIAL TOTAL3 TEMPAVG PRESSURE GPRESSURE VOLUME PRESSAVG GPRESSAVG
ENERGY: 900000 0.9970 5.3372 5.7050 0.0000 -11053.5739 1497.6145 0.0000 0.0000 1567.7855 -7976.1347 269.8172 -9543.9202 -7973.6660 269.8172 -293.9245 -209.0392 29450.0083 -293.9245 -209.0392
ENERGY: 1100000 2.4379 6.3548 5.4526 0.0000 -10604.8898 1496.5648 0.0000 0.0000 1755.5176 -7338.5621 302.1261 -9094.0797 -7336.3227 300.2073 678.4586 795.4184 30162.7518 3.1505 2.9898
ENERGY: 1300000 1.0858 6.9382 5.7774 0.0000 -10613.7287 1448.6438 0.0000 0.0000 1739.2296 -7412.0539 299.3229 -9151.2835 -7408.5799 300.3817 12.1046 61.1875 30361.1001 1.4482 1.4228
ENERGY: 1500000 3.1982 5.0164 6.7324 0.0000 -10752.1158 1513.1393 0.0000 0.0000 1765.1799 -7458.8496 303.7890 -9224.0295 -7455.2738 299.9245 511.8323 660.0588 30009.3765 3.7702 3.6952
ENERGY: 1700000 1.0940 6.3200 6.2010 0.0000 -10723.8231 1488.9522 0.0000 0.0000 1764.0071 -7457.2489 303.5871 -9221.2559 -7454.1198 300.3258 416.2105 532.0604 30025.0099 3.8815 3.8397
ENERGY: 1900000 1.0277 8.6012 5.8678 0.0000 -10735.5315 1483.8321 0.0000 0.0000 1770.5440 -7465.6587 304.7121 -9236.2027 -7462.4378 299.6426 835.7308 833.2621 29477.7640 3.2918 3.1125
TCL: Exiting due to exit command.
