Info: SIMULATION PARAMETERS:
Info: TIMESTEP               2
Info: NUMBER OF STEPS        0
Info: STEPS PER CYCLE        10
Info: PERIODIC CELL BASIS 1  39.512 0 0
Info: PERIODIC CELL BASIS 2  0 34.26 0
Info: PERIODIC CELL BASIS 3  0 0 33.088
Info: PERIODIC CELL CENTER   0 0 0
Info: WRAPPING WATERS AROUND PERIODIC BOUNDARIES ON OUTPUT.
Info: WRAPPING ALL CLUSTERS AROUND PERIODIC BOUNDARIES ON OUTPUT.
Info: FIRST LDB TIMESTEP     50
Info: LAST LDB TIMESTEP     -1
Info: HOM BACKGROUND SCALING 1
Info: PME BACKGROUND SCALING 1
Info: MIN ATOMS PER PATCH    40
Info: EMPTY PATCH LOAD       40 ATOMS
Info: INITIAL TEMPERATURE    300
Info: CENTER OF MASS MOVING INITIALLY? NO
Info: DIELECTRIC             1
Info: EXCLUDE                SCALED ONE-FOUR
Info: 1-4 ELECTROSTATICS SCALED BY 0.833333
Info: MODIFIED 1-4 VDW PARAMETERS WILL BE USED
Info: DCD FILENAME           mobley_7913234_equil.dcd
Info: DCD FREQUENCY          100000
Info: DCD FIRST STEP         100000
Info: DCD FILE WILL CONTAIN UNIT CELL DATA
Info: XST FILENAME           mobley_7913234_equil.xst
Info: XST FREQUENCY          100000
Info: NO VELOCITY DCD OUTPUT
Info: NO FORCE DCD OUTPUT
Info: OUTPUT FILENAME        mobley_7913234_equil
Info: BINARY OUTPUT FILES WILL BE USED
Info: RESTART FILENAME       mobley_7913234_equil.restart
Info: RESTART FREQUENCY      100000
Info: BINARY RESTART FILES WILL BE USED
Info: CUTOFF                 9
Info: PAIRLIST DISTANCE      11
Info: PAIRLIST SHRINK RATE   0.01
Info: PAIRLIST GROW RATE     0.01
Info: PAIRLIST TRIGGER       0.3
Info: PAIRLISTS PER CYCLE    2
Info: PAIRLISTS ENABLED
Info: MARGIN                 8
Info: HYDROGEN GROUP CUTOFF  2.5
Info: PATCH DIMENSION        21.5
Info: ENERGY OUTPUT STEPS    100000
Info: ENERGY EVALUATION STEPS    100000
Info: OUTPUT ENERGY PRECISION 4
Info: CROSSTERM ENERGY INCLUDED IN DIHEDRAL
Info: TIMING OUTPUT STEPS    1000000
Info: PRESSURE OUTPUT STEPS  100000
Info: LANGEVIN DYNAMICS ACTIVE
Info: LANGEVIN TEMPERATURE   30
Info: LANGEVIN USING BBK INTEGRATOR
Info: LANGEVIN DAMPING COEFFICIENT IS 1 INVERSE PS
Info: LANGEVIN DYNAMICS APPLIED TO HYDROGENS
Info: LANGEVIN PISTON PRESSURE CONTROL ACTIVE
Info:        TARGET PRESSURE IS 1.01325 BAR
Info:     OSCILLATION PERIOD IS 50 FS
Info:             DECAY TIME IS 25 FS
Info:     PISTON TEMPERATURE IS 300 K
Info:       PRESSURE CONTROL IS GROUP-BASED
Info:    INITIAL STRAIN RATE IS 0 0 0
Info:       CELL FLUCTUATION IS ISOTROPIC
Info: PARTICLE MESH EWALD (PME) ACTIVE
Info: PME TOLERANCE               1e-06
Info: PME EWALD COEFFICIENT       0.348832
Info: PME INTERPOLATION ORDER     4
Info: PME GRID DIMENSIONS         40 36 36
Info: PME MAXIMUM GRID SPACING    1
Info: FULL ELECTROSTATIC EVALUATION FREQUENCY      2
Info: USING VERLET I (r-RESPA) MTS SCHEME.
Info: C1 SPLITTING OF LONG RANGE ELECTROSTATICS
Info: PLACING ATOMS IN PATCHES BY HYDROGEN GROUPS
Info: RIGID BONDS TO HYDROGEN : ALL
Info:         ERROR TOLERANCE : 1e-08
Info:          MAX ITERATIONS : 100
Info: RIGID WATER USING SETTLE ALGORITHM
Info: RANDOM NUMBER SEED     1743260710
Info: USE HYDROGEN BONDS?    NO
Info: Using AMBER format force field!
Info: AMBER PARM FILE        mobley_7913234.prmtop
Info: COORDINATE PDB         mobley_7913234.pdb
Info: Exclusions will be read from PARM file!
Info: SCNB (VDW SCALING)     2
Info: USING ARITHMETIC MEAN TO COMBINE L-J SIGMA PARAMETERS
Info: BINARY COORDINATES     mobley_7913234_min.coor
Info: SUMMARY OF PARAMETERS:
Info: 8 BONDS
Info: 11 ANGLES
Info:   11 HARMONIC
Info:   0 COSINE-BASED
Info: 14 DIHEDRAL
Info: 0 IMPROPER
Info: 0 CROSSTERM
Info: 0 VDW
Info: 28 VDW_PAIRS
Info: 0 NBTHOLE_PAIRS
Info: STRUCTURE SUMMARY:
Info: 2998 ATOMS
Info: 2997 BONDS
Info: 44 ANGLES
Info: 69 DIHEDRALS
Info: 0 IMPROPERS
Info: 0 CROSSTERMS
Info: 3095 EXCLUSIONS
Info: 2989 RIGID BONDS
Info: 6005 DEGREES OF FREEDOM
Info: 1000 HYDROGEN GROUPS
Info: 4 ATOMS IN LARGEST HYDROGEN GROUP
Info: 1000 MIGRATION GROUPS
Info: 4 ATOMS IN LARGEST MIGRATION GROUP
Info: TOTAL MASS = 17986.1 amu
Info: TOTAL CHARGE = -0.000300016 e
Info: MASS DENSITY = 0.666819 g/cm^3
Info: ATOM DENSITY = 0.0669337 atoms/A^3
Info: ADDED 0 IMPLICIT EXCLUSIONS
Info: NONBONDED TABLE R-SQUARED SPACING: 0.0625
Info: NONBONDED TABLE SIZE: 705 POINTS
Info: REMOVING COM VELOCITY 0.128199 -0.0092896 -0.0840652
TCL: Running for 100000 steps
ETITLE: TS BOND ANGLE DIHED IMPRP ELECT VDW BOUNDARY MISC KINETIC TOTAL TEMP POTENTIAL TOTAL3 TEMPAVG PRESSURE GPRESSURE VOLUME PRESSAVG GPRESSAVG
ENERGY: 0 0.1198 0.4048 4.5132 0.0000 -13737.5745 2410.8312 0.0000 0.0000 1804.5254 -9517.1802 302.4408 -11321.7055 -9516.8305 302.4408 378.8759 405.3086 44790.6009 378.8759 405.3086
ENERGY: 100000 0.2475 1.3262 4.0392 0.0000 -14282.8390 2426.6927 0.0000 0.0000 178.9007 -11671.6328 29.9840 -11850.5335 -11671.3260 30.9672 -462.8957 -422.3098 29563.4974 2.7152 2.7600
TCL: Running 100000 steps at 60 kelvin.
TCL: Setting parameter langevinTemp to 60
TCL: Running for 100000 steps
ETITLE: TS BOND ANGLE DIHED IMPRP ELECT VDW BOUNDARY MISC KINETIC TOTAL TEMP POTENTIAL TOTAL3 TEMPAVG PRESSURE GPRESSURE VOLUME PRESSAVG GPRESSAVG
ENERGY: 100000 0.2475 1.3262 4.0392 0.0000 -14282.8390 2426.6927 0.0000 0.0000 178.8106 -11671.7229 29.9689 -11850.5335 -11671.3019 29.9689 -481.5068 -422.5022 29563.4974 -481.5068 -422.5022
ENERGY: 200000 2.7139 2.2491 4.4984 0.0000 -14249.2406 2442.4593 0.0000 0.0000 350.1271 -11447.1927 58.6818 -11797.3199 -11446.3976 60.1024 -196.4692 -133.8444 29467.8430 3.4076 3.4018
TCL: Running 100000 steps at 90 kelvin.
TCL: Setting parameter langevinTemp to 90
TCL: Running for 100000 steps
ETITLE: TS BOND ANGLE DIHED IMPRP ELECT VDW BOUNDARY MISC KINETIC TOTAL TEMP POTENTIAL TOTAL3 TEMPAVG PRESSURE GPRESSURE VOLUME PRESSAVG GPRESSAVG
ENERGY: 200000 2.7139 2.2491 4.4984 0.0000 -14249.2406 2442.4593 0.0000 0.0000 349.9486 -11447.3712 58.6518 -11797.3199 -11446.6903 58.6518 -183.4996 -133.7513 29467.8430 -183.4996 -133.7513
ENERGY: 300000 0.6088 3.7879 4.9223 0.0000 -14146.5777 2441.1684 0.0000 0.0000 533.1321 -11162.9582 89.3536 -11696.0904 -11162.1594 90.0561 275.6059 304.4761 29197.4112 3.3385 3.3063
TCL: Running 100000 steps at 120 kelvin.
TCL: Setting parameter langevinTemp to 120
TCL: Running for 100000 steps
ETITLE: TS BOND ANGLE DIHED IMPRP ELECT VDW BOUNDARY MISC KINETIC TOTAL TEMP POTENTIAL TOTAL3 TEMPAVG PRESSURE GPRESSURE VOLUME PRESSAVG GPRESSAVG
ENERGY: 300000 0.6088 3.7879 4.9223 0.0000 -14146.5777 2441.1684 0.0000 0.0000 532.8529 -11163.2375 89.3068 -11696.0904 -11162.2062 89.3068 251.6724 303.9012 29197.4112 251.6724 303.9012
ENERGY: 400000 0.8800 6.9531 4.4850 0.0000 -13911.9034 2350.0682 0.0000 0.0000 735.6200 -10813.8972 123.2909 -11549.5171 -10811.6837 120.2170 135.3865 153.2982 29184.7055 5.7748 5.8214
TCL: Running 100000 steps at 150 kelvin.
TCL: Setting parameter langevinTemp to 150
TCL: Running for 100000 steps
ETITLE: TS BOND ANGLE DIHED IMPRP ELECT VDW BOUNDARY MISC KINETIC TOTAL TEMP POTENTIAL TOTAL3 TEMPAVG PRESSURE GPRESSURE VOLUME PRESSAVG GPRESSAVG
ENERGY: 400000 0.8800 6.9531 4.4850 0.0000 -13911.9034 2350.0682 0.0000 0.0000 735.2667 -10814.2504 123.2317 -11549.5171 -10812.6914 123.2317 99.7850 153.8881 29184.7055 99.7850 153.8881
ENERGY: 500000 1.6916 8.4479 4.8165 0.0000 -13556.0034 2146.3357 0.0000 0.0000 880.6111 -10514.1006 147.5916 -11394.7117 -10511.8317 150.1312 -1239.8886 -1198.4934 29689.6186 4.2951 4.3155
TCL: Running 100000 steps at 180 kelvin.
TCL: Setting parameter langevinTemp to 180
TCL: Running for 100000 steps
ETITLE: TS BOND ANGLE DIHED IMPRP ELECT VDW BOUNDARY MISC KINETIC TOTAL TEMP POTENTIAL TOTAL3 TEMPAVG PRESSURE GPRESSURE VOLUME PRESSAVG GPRESSAVG
ENERGY: 500000 1.6916 8.4479 4.8165 0.0000 -13556.0034 2146.3357 0.0000 0.0000 880.1769 -10514.5348 147.5188 -11394.7117 -10512.4159 147.5188 -1252.4186 -1198.3968 29689.6186 -1252.4186 -1198.3968
ENERGY: 600000 3.2108 5.2620 4.8865 0.0000 -13359.3244 2214.0655 0.0000 0.0000 1092.0423 -10039.8573 183.0277 -11131.8996 -10036.7157 180.0222 498.0942 515.0490 29159.0260 3.3973 3.4243
TCL: Running 100000 steps at 210 kelvin.
TCL: Setting parameter langevinTemp to 210
TCL: Running for 100000 steps
ETITLE: TS BOND ANGLE DIHED IMPRP ELECT VDW BOUNDARY MISC KINETIC TOTAL TEMP POTENTIAL TOTAL3 TEMPAVG PRESSURE GPRESSURE VOLUME PRESSAVG GPRESSAVG
ENERGY: 600000 3.2108 5.2620 4.8865 0.0000 -13359.3244 2214.0655 0.0000 0.0000 1091.4967 -10040.4028 182.9363 -11131.8996 -10038.1387 182.9363 455.0452 516.6997 29159.0260 455.0452 516.6997
ENERGY: 700000 1.6266 7.6519 9.4447 0.0000 -12485.3986 1844.3205 0.0000 0.0000 1257.9726 -9364.3823 210.8378 -10622.3549 -9362.8461 209.8532 -480.8781 -427.9922 29152.4389 3.9844 4.1648
TCL: Running 100000 steps at 240 kelvin.
TCL: Setting parameter langevinTemp to 240
TCL: Running for 100000 steps
ETITLE: TS BOND ANGLE DIHED IMPRP ELECT VDW BOUNDARY MISC KINETIC TOTAL TEMP POTENTIAL TOTAL3 TEMPAVG PRESSURE GPRESSURE VOLUME PRESSAVG GPRESSAVG
ENERGY: 700000 1.6266 7.6519 9.4447 0.0000 -12485.3986 1844.3205 0.0000 0.0000 1257.3632 -9364.9917 210.7357 -10622.3549 -9362.8563 210.7357 -495.5493 -429.6491 29152.4389 -495.5493 -429.6491
ENERGY: 800000 2.7267 11.0814 4.5691 0.0000 -11922.8670 1661.6523 0.0000 0.0000 1413.8644 -8828.9732 236.9655 -10242.8376 -8826.6874 240.1757 -818.6833 -714.5974 29536.0726 2.0724 2.0897
TCL: Running 100000 steps at 270 kelvin.
TCL: Setting parameter langevinTemp to 270
TCL: Running for 100000 steps
ETITLE: TS BOND ANGLE DIHED IMPRP ELECT VDW BOUNDARY MISC KINETIC TOTAL TEMP POTENTIAL TOTAL3 TEMPAVG PRESSURE GPRESSURE VOLUME PRESSAVG GPRESSAVG
ENERGY: 800000 2.7267 11.0814 4.5691 0.0000 -11922.8670 1661.6523 0.0000 0.0000 1413.1256 -8829.7119 236.8417 -10242.8376 -8827.0938 236.8417 -812.6995 -714.5201 29536.0726 -812.6995 -714.5201
ENERGY: 900000 6.1778 12.9699 4.1775 0.0000 -11199.7248 1487.9046 0.0000 0.0000 1616.4189 -8072.0761 270.9139 -9688.4950 -8068.2798 270.3221 -554.5671 -463.1387 30263.4297 3.6463 3.6305
TCL: Running 1000000 steps at 300 kelvin.
TCL: Setting parameter langevinTemp to 300
TCL: Running for 1000000 steps
ETITLE: TS BOND ANGLE DIHED IMPRP ELECT VDW BOUNDARY MISC KINETIC TOTAL TEMP POTENTIAL TOTAL3 TEMPAVG PRESSURE GPRESSURE VOLUME PRESSAVG GPRESSAVG
ENERGY: 900000 6.1778 12.9699 4.1775 0.0000 -11199.7248 1487.9046 0.0000 0.0000 1615.6575 -8072.8375 270.7863 -9688.4950 -8070.4844 270.7863 -561.0267 -463.1415 30263.4297 -561.0267 -463.1415
ENERGY: 1100000 2.3680 8.1124 6.3029 0.0000 -10636.2041 1325.7777 0.0000 0.0000 1776.2304 -7517.4128 297.6985 -9293.6432 -7512.1570 300.0831 -862.0781 -796.4738 30942.7608 2.8681 2.8420
ENERGY: 1300000 1.2344 11.8935 6.3156 0.0000 -10775.6115 1429.5601 0.0000 0.0000 1801.3370 -7525.2709 301.9064 -9326.6079 -7522.6245 299.2323 -154.3635 -33.0079 30970.8810 2.2109 2.2922
ENERGY: 1500000 5.8598 9.6979 6.6803 0.0000 -10802.8218 1485.9597 0.0000 0.0000 1756.5133 -7538.1108 294.3939 -9294.6241 -7534.6715 300.0371 225.5763 261.7434 31132.2843 3.6118 3.6485
ENERGY: 1700000 2.0422 9.4714 5.5367 0.0000 -10854.8286 1454.6135 0.0000 0.0000 1842.1091 -7541.0557 308.7399 -9383.1648 -7538.1200 299.8667 22.6953 109.0077 30959.6640 2.2962 2.2986
ENERGY: 1900000 2.0327 7.7393 5.8845 0.0000 -10738.0966 1410.5189 0.0000 0.0000 1788.9134 -7523.0078 299.8242 -9311.9212 -7518.6064 299.6878 -443.9847 -267.3077 31163.3731 3.0001 2.8420
TCL: Exiting due to exit command.
