Info: SIMULATION PARAMETERS:
Info: TIMESTEP               2
Info: NUMBER OF STEPS        0
Info: STEPS PER CYCLE        10
Info: PERIODIC CELL BASIS 1  38.861 0 0
Info: PERIODIC CELL BASIS 2  0 33.404 0
Info: PERIODIC CELL BASIS 3  0 0 34.229
Info: PERIODIC CELL CENTER   0 0 0
Info: WRAPPING WATERS AROUND PERIODIC BOUNDARIES ON OUTPUT.
Info: WRAPPING ALL CLUSTERS AROUND PERIODIC BOUNDARIES ON OUTPUT.
Info: FIRST LDB TIMESTEP     50
Info: LAST LDB TIMESTEP     -1
Info: HOM BACKGROUND SCALING 1
Info: PME BACKGROUND SCALING 1
Info: MIN ATOMS PER PATCH    40
Info: EMPTY PATCH LOAD       40 ATOMS
Info: INITIAL TEMPERATURE    300
Info: CENTER OF MASS MOVING INITIALLY? NO
Info: DIELECTRIC             1
Info: EXCLUDE                SCALED ONE-FOUR
Info: 1-4 ELECTROSTATICS SCALED BY 0.833333
Info: MODIFIED 1-4 VDW PARAMETERS WILL BE USED
Info: DCD FILENAME           mobley_1770205_equil.dcd
Info: DCD FREQUENCY          100000
Info: DCD FIRST STEP         100000
Info: DCD FILE WILL CONTAIN UNIT CELL DATA
Info: XST FILENAME           mobley_1770205_equil.xst
Info: XST FREQUENCY          100000
Info: NO VELOCITY DCD OUTPUT
Info: NO FORCE DCD OUTPUT
Info: OUTPUT FILENAME        mobley_1770205_equil
Info: BINARY OUTPUT FILES WILL BE USED
Info: RESTART FILENAME       mobley_1770205_equil.restart
Info: RESTART FREQUENCY      100000
Info: BINARY RESTART FILES WILL BE USED
Info: CUTOFF                 9
Info: PAIRLIST DISTANCE      11
Info: PAIRLIST SHRINK RATE   0.01
Info: PAIRLIST GROW RATE     0.01
Info: PAIRLIST TRIGGER       0.3
Info: PAIRLISTS PER CYCLE    2
Info: PAIRLISTS ENABLED
Info: MARGIN                 8
Info: HYDROGEN GROUP CUTOFF  2.5
Info: PATCH DIMENSION        21.5
Info: ENERGY OUTPUT STEPS    100000
Info: ENERGY EVALUATION STEPS    100000
Info: OUTPUT ENERGY PRECISION 4
Info: CROSSTERM ENERGY INCLUDED IN DIHEDRAL
Info: TIMING OUTPUT STEPS    1000000
Info: PRESSURE OUTPUT STEPS  100000
Info: LANGEVIN DYNAMICS ACTIVE
Info: LANGEVIN TEMPERATURE   30
Info: LANGEVIN USING BBK INTEGRATOR
Info: LANGEVIN DAMPING COEFFICIENT IS 1 INVERSE PS
Info: LANGEVIN DYNAMICS APPLIED TO HYDROGENS
Info: LANGEVIN PISTON PRESSURE CONTROL ACTIVE
Info:        TARGET PRESSURE IS 1.01325 BAR
Info:     OSCILLATION PERIOD IS 50 FS
Info:             DECAY TIME IS 25 FS
Info:     PISTON TEMPERATURE IS 300 K
Info:       PRESSURE CONTROL IS GROUP-BASED
Info:    INITIAL STRAIN RATE IS 0 0 0
Info:       CELL FLUCTUATION IS ISOTROPIC
Info: PARTICLE MESH EWALD (PME) ACTIVE
Info: PME TOLERANCE               1e-06
Info: PME EWALD COEFFICIENT       0.348832
Info: PME INTERPOLATION ORDER     4
Info: PME GRID DIMENSIONS         40 36 36
Info: PME MAXIMUM GRID SPACING    1
Info: FULL ELECTROSTATIC EVALUATION FREQUENCY      2
Info: USING VERLET I (r-RESPA) MTS SCHEME.
Info: C1 SPLITTING OF LONG RANGE ELECTROSTATICS
Info: PLACING ATOMS IN PATCHES BY HYDROGEN GROUPS
Info: RIGID BONDS TO HYDROGEN : ALL
Info:         ERROR TOLERANCE : 1e-08
Info:          MAX ITERATIONS : 100
Info: RIGID WATER USING SETTLE ALGORITHM
Info: RANDOM NUMBER SEED     1743260419
Info: USE HYDROGEN BONDS?    NO
Info: Using AMBER format force field!
Info: AMBER PARM FILE        mobley_1770205.prmtop
Info: COORDINATE PDB         mobley_1770205.pdb
Info: Exclusions will be read from PARM file!
Info: SCNB (VDW SCALING)     2
Info: USING ARITHMETIC MEAN TO COMBINE L-J SIGMA PARAMETERS
Info: BINARY COORDINATES     mobley_1770205_min.coor
Info: SUMMARY OF PARAMETERS:
Info: 18 BONDS
Info: 24 ANGLES
Info:   24 HARMONIC
Info:   0 COSINE-BASED
Info: 14 DIHEDRAL
Info: 0 IMPROPER
Info: 0 CROSSTERM
Info: 0 VDW
Info: 78 VDW_PAIRS
Info: 0 NBTHOLE_PAIRS
Info: STRUCTURE SUMMARY:
Info: 2932 ATOMS
Info: 2933 BONDS
Info: 53 ANGLES
Info: 71 DIHEDRALS
Info: 0 IMPROPERS
Info: 0 CROSSTERMS
Info: 3041 EXCLUSIONS
Info: 2913 RIGID BONDS
Info: 5883 DEGREES OF FREEDOM
Info: 986 HYDROGEN GROUPS
Info: 4 ATOMS IN LARGEST HYDROGEN GROUP
Info: 986 MIGRATION GROUPS
Info: 4 ATOMS IN LARGEST MIGRATION GROUP
Info: TOTAL MASS = 17738.8 amu
Info: TOTAL CHARGE = 9.99719e-05 e
Info: MASS DENSITY = 0.662944 g/cm^3
Info: ATOM DENSITY = 0.0659868 atoms/A^3
Info: ADDED 0 IMPLICIT EXCLUSIONS
Info: NONBONDED TABLE R-SQUARED SPACING: 0.0625
Info: NONBONDED TABLE SIZE: 705 POINTS
Info: REMOVING COM VELOCITY 0.0282067 -0.0361658 -0.00493741
TCL: Running for 100000 steps
ETITLE: TS BOND ANGLE DIHED IMPRP ELECT VDW BOUNDARY MISC KINETIC TOTAL TEMP POTENTIAL TOTAL3 TEMPAVG PRESSURE GPRESSURE VOLUME PRESSAVG GPRESSAVG
ENERGY: 0 0.6641 9.8430 15.2552 0.0000 -13487.8857 2362.7731 0.0000 0.0000 1732.3404 -9367.0101 296.3635 -11099.3505 -9366.7235 296.3635 508.2695 544.1566 44433.1045 508.2695 544.1566
ENERGY: 100000 1.6122 11.3208 15.2041 0.0000 -14204.9185 2555.5546 0.0000 0.0000 173.1502 -11448.0766 29.6220 -11621.2267 -11447.5475 30.9325 1152.6987 1221.4029 29115.6787 4.1418 4.1330
TCL: Running 100000 steps at 60 kelvin.
TCL: Setting parameter langevinTemp to 60
TCL: Running for 100000 steps
ETITLE: TS BOND ANGLE DIHED IMPRP ELECT VDW BOUNDARY MISC KINETIC TOTAL TEMP POTENTIAL TOTAL3 TEMPAVG PRESSURE GPRESSURE VOLUME PRESSAVG GPRESSAVG
ENERGY: 100000 1.6122 11.3208 15.2041 0.0000 -14204.9185 2555.5546 0.0000 0.0000 173.0602 -11448.1665 29.6066 -11621.2267 -11447.7901 29.6066 1164.0809 1221.6182 29115.6787 1164.0809 1221.6182
ENERGY: 200000 1.7588 12.3345 16.3163 0.0000 -13969.8493 2372.6249 0.0000 0.0000 357.3154 -11209.4994 61.1284 -11566.8148 -11209.0174 60.2117 -129.3159 -58.3921 28942.1183 3.3169 3.3127
TCL: Running 100000 steps at 90 kelvin.
TCL: Setting parameter langevinTemp to 90
TCL: Running for 100000 steps
ETITLE: TS BOND ANGLE DIHED IMPRP ELECT VDW BOUNDARY MISC KINETIC TOTAL TEMP POTENTIAL TOTAL3 TEMPAVG PRESSURE GPRESSURE VOLUME PRESSAVG GPRESSAVG
ENERGY: 200000 1.7588 12.3345 16.3163 0.0000 -13969.8493 2372.6249 0.0000 0.0000 357.1498 -11209.6650 61.1001 -11566.8148 -11208.7962 61.1001 -113.1076 -58.9374 28942.1183 -113.1076 -58.9374
ENERGY: 300000 2.2756 13.5974 15.7370 0.0000 -13868.5982 2365.1097 0.0000 0.0000 539.6648 -10932.2136 92.3242 -11471.8784 -10930.7248 89.8866 294.3397 319.6696 28722.3324 4.6431 4.6597
TCL: Running 100000 steps at 120 kelvin.
TCL: Setting parameter langevinTemp to 120
TCL: Running for 100000 steps
ETITLE: TS BOND ANGLE DIHED IMPRP ELECT VDW BOUNDARY MISC KINETIC TOTAL TEMP POTENTIAL TOTAL3 TEMPAVG PRESSURE GPRESSURE VOLUME PRESSAVG GPRESSAVG
ENERGY: 300000 2.2756 13.5974 15.7370 0.0000 -13868.5982 2365.1097 0.0000 0.0000 539.3931 -10932.4853 92.2777 -11471.8784 -10931.6019 92.2777 278.1719 319.7705 28722.3324 278.1719 319.7705
ENERGY: 400000 6.0716 13.5139 16.7101 0.0000 -13518.6921 2128.3368 0.0000 0.0000 683.9510 -10670.1087 117.0083 -11354.0597 -10667.9894 120.2727 -1803.0252 -1683.8634 29491.9414 4.1640 4.2143
TCL: Running 100000 steps at 150 kelvin.
TCL: Setting parameter langevinTemp to 150
TCL: Running for 100000 steps
ETITLE: TS BOND ANGLE DIHED IMPRP ELECT VDW BOUNDARY MISC KINETIC TOTAL TEMP POTENTIAL TOTAL3 TEMPAVG PRESSURE GPRESSURE VOLUME PRESSAVG GPRESSAVG
ENERGY: 400000 6.0716 13.5139 16.7101 0.0000 -13518.6921 2128.3368 0.0000 0.0000 683.5996 -10670.4601 116.9481 -11354.0597 -10668.6641 116.9481 -1733.5613 -1683.6443 29491.9414 -1733.5613 -1683.6443
ENERGY: 500000 4.0567 12.7607 17.1555 0.0000 -13497.3954 2248.2165 0.0000 0.0000 873.9551 -10341.2509 149.5136 -11215.2060 -10339.7746 149.7495 101.7478 158.7026 29042.3627 1.9742 1.9764
TCL: Running 100000 steps at 180 kelvin.
TCL: Setting parameter langevinTemp to 180
TCL: Running for 100000 steps
ETITLE: TS BOND ANGLE DIHED IMPRP ELECT VDW BOUNDARY MISC KINETIC TOTAL TEMP POTENTIAL TOTAL3 TEMPAVG PRESSURE GPRESSURE VOLUME PRESSAVG GPRESSAVG
ENERGY: 500000 4.0567 12.7607 17.1555 0.0000 -13497.3954 2248.2165 0.0000 0.0000 873.5232 -10341.6828 149.4397 -11215.2060 -10339.7645 149.4397 112.2895 158.1578 29042.3627 112.2895 158.1578
ENERGY: 600000 3.8888 17.3145 17.1579 0.0000 -13142.5160 2212.7689 0.0000 0.0000 1046.7860 -9844.6001 179.0810 -10891.3860 -9843.4053 179.9792 1706.9395 1769.6569 28159.6677 4.9313 4.8712
TCL: Running 100000 steps at 210 kelvin.
TCL: Setting parameter langevinTemp to 210
TCL: Running for 100000 steps
ETITLE: TS BOND ANGLE DIHED IMPRP ELECT VDW BOUNDARY MISC KINETIC TOTAL TEMP POTENTIAL TOTAL3 TEMPAVG PRESSURE GPRESSURE VOLUME PRESSAVG GPRESSAVG
ENERGY: 600000 3.8888 17.3145 17.1579 0.0000 -13142.5160 2212.7689 0.0000 0.0000 1046.2651 -9845.1209 178.9919 -10891.3860 -9843.6405 178.9919 1710.6046 1768.7473 28159.6677 1710.6046 1768.7473
ENERGY: 700000 7.2693 14.2785 20.9063 0.0000 -12480.8810 2022.6385 0.0000 0.0000 1217.9097 -9197.8786 208.3563 -10415.7883 -9196.3963 209.9743 1466.6735 1496.9150 28455.4620 4.1915 4.1359
TCL: Running 100000 steps at 240 kelvin.
TCL: Setting parameter langevinTemp to 240
TCL: Running for 100000 steps
ETITLE: TS BOND ANGLE DIHED IMPRP ELECT VDW BOUNDARY MISC KINETIC TOTAL TEMP POTENTIAL TOTAL3 TEMPAVG PRESSURE GPRESSURE VOLUME PRESSAVG GPRESSAVG
ENERGY: 700000 7.2693 14.2785 20.9063 0.0000 -12480.8810 2022.6385 0.0000 0.0000 1217.3223 -9198.4660 208.2558 -10415.7883 -9196.3844 208.2558 1417.7712 1497.7310 28455.4620 1417.7712 1497.7310
ENERGY: 800000 4.8098 20.2191 15.6537 0.0000 -11980.4313 1834.0992 0.0000 0.0000 1435.9755 -8669.6740 245.6623 -10105.6495 -8667.9408 240.0497 1152.0173 1184.8789 28835.9357 2.2929 2.4345
TCL: Running 100000 steps at 270 kelvin.
TCL: Setting parameter langevinTemp to 270
TCL: Running for 100000 steps
ETITLE: TS BOND ANGLE DIHED IMPRP ELECT VDW BOUNDARY MISC KINETIC TOTAL TEMP POTENTIAL TOTAL3 TEMPAVG PRESSURE GPRESSURE VOLUME PRESSAVG GPRESSAVG
ENERGY: 800000 4.8098 20.2191 15.6537 0.0000 -11980.4313 1834.0992 0.0000 0.0000 1435.2845 -8670.3650 245.5441 -10105.6495 -8667.7543 245.5441 1120.7404 1184.9071 28835.9357 1120.7404 1184.9071
ENERGY: 900000 8.2546 16.1516 19.9822 0.0000 -11282.2575 1640.7247 0.0000 0.0000 1540.5147 -8056.6297 263.5466 -9597.1444 -8053.4510 269.8734 999.8081 1022.3148 29478.3800 3.0385 3.2068
TCL: Running 1000000 steps at 300 kelvin.
TCL: Setting parameter langevinTemp to 300
TCL: Running for 1000000 steps
ETITLE: TS BOND ANGLE DIHED IMPRP ELECT VDW BOUNDARY MISC KINETIC TOTAL TEMP POTENTIAL TOTAL3 TEMPAVG PRESSURE GPRESSURE VOLUME PRESSAVG GPRESSAVG
ENERGY: 900000 8.2546 16.1516 19.9822 0.0000 -11282.2575 1640.7247 0.0000 0.0000 1539.7159 -8057.4285 263.4099 -9597.1444 -8055.4434 263.4099 933.2998 1023.2567 29478.3800 933.2998 1023.2567
ENERGY: 1100000 5.8671 23.4244 20.2844 0.0000 -10613.1350 1417.7031 0.0000 0.0000 1735.3381 -7410.5179 296.8764 -9145.8560 -7407.4942 300.4096 170.9396 320.4456 30392.3170 3.3278 3.4576
ENERGY: 1300000 4.5545 15.5557 19.5277 0.0000 -10545.5810 1382.3768 0.0000 0.0000 1773.4183 -7350.1480 303.3910 -9123.5663 -7347.8142 300.5311 337.3141 473.6960 29961.5531 1.9367 1.8341
ENERGY: 1500000 7.5178 17.8995 17.0569 0.0000 -10620.1873 1379.1029 0.0000 0.0000 1760.6739 -7437.9362 301.2108 -9198.6101 -7438.6301 300.6759 -280.3820 -131.6775 30162.7868 4.3986 4.3606
ENERGY: 1700000 9.6398 15.1829 23.7421 0.0000 -10630.3229 1402.0053 0.0000 0.0000 1710.2147 -7469.5382 292.5783 -9179.7528 -7465.2380 299.5258 -320.5680 -229.9678 30457.9925 2.1006 2.1443
ENERGY: 1900000 7.3139 20.1027 21.4145 0.0000 -10617.7828 1398.2172 0.0000 0.0000 1753.3449 -7417.3896 299.9569 -9170.7345 -7414.1122 300.1625 -329.1888 -190.2257 30459.0979 1.9840 2.1372
TCL: Exiting due to exit command.
