Info: SIMULATION PARAMETERS:
Info: TIMESTEP               2
Info: NUMBER OF STEPS        0
Info: STEPS PER CYCLE        10
Info: PERIODIC CELL BASIS 1  30.7297 0 0
Info: PERIODIC CELL BASIS 2  0 30.9552 0
Info: PERIODIC CELL BASIS 3  0 0 31.2177
Info: PERIODIC CELL CENTER   0 0 0
Info: WRAPPING WATERS AROUND PERIODIC BOUNDARIES ON OUTPUT.
Info: WRAPPING ALL CLUSTERS AROUND PERIODIC BOUNDARIES ON OUTPUT.
Info: FIRST LDB TIMESTEP     50
Info: LAST LDB TIMESTEP     -1
Info: HOM BACKGROUND SCALING 1
Info: PME BACKGROUND SCALING 1
Info: MIN ATOMS PER PATCH    40
Info: EMPTY PATCH LOAD       40 ATOMS
Info: VELOCITY FILE          mobley_1929982_equil.vel
Info: CENTER OF MASS MOVING INITIALLY? NO
Info: DIELECTRIC             1
Info: EXCLUDE                SCALED ONE-FOUR
Info: 1-4 ELECTROSTATICS SCALED BY 0.833333
Info: MODIFIED 1-4 VDW PARAMETERS WILL BE USED
Info: DCD FILENAME           mobley_1929982_prod.dcd
Info: DCD FREQUENCY          100000
Info: DCD FIRST STEP         100000
Info: DCD FILE WILL CONTAIN UNIT CELL DATA
Info: XST FILENAME           mobley_1929982_prod.xst
Info: XST FREQUENCY          100000
Info: NO VELOCITY DCD OUTPUT
Info: NO FORCE DCD OUTPUT
Info: OUTPUT FILENAME        mobley_1929982_prod
Info: BINARY OUTPUT FILES WILL BE USED
Info: RESTART FILENAME       mobley_1929982_prod.restart
Info: RESTART FREQUENCY      100000
Info: BINARY RESTART FILES WILL BE USED
Info: CUTOFF                 9
Info: PAIRLIST DISTANCE      11
Info: PAIRLIST SHRINK RATE   0.01
Info: PAIRLIST GROW RATE     0.01
Info: PAIRLIST TRIGGER       0.3
Info: PAIRLISTS PER CYCLE    2
Info: PAIRLISTS ENABLED
Info: MARGIN                 2
Info: HYDROGEN GROUP CUTOFF  2.5
Info: PATCH DIMENSION        15.5
Info: ENERGY OUTPUT STEPS    100000
Info: ENERGY EVALUATION STEPS    100000
Info: OUTPUT ENERGY PRECISION 4
Info: CROSSTERM ENERGY INCLUDED IN DIHEDRAL
Info: TIMING OUTPUT STEPS    1000000
Info: PRESSURE OUTPUT STEPS  100000
Info: ALCHEMICAL FEP ON
Info: FEP CURRENT LAMBDA VALUE     0
Info: FEP COMPARISON LAMBDA VALUE  0.05
Info: FEP INTRA-ALCHEMICAL NON-BONDED INTERACTIONS WILL BE RETAINED
Info: FEP INTRA-ALCHEMICAL BONDED INTERACTIONS WILL BE RETAINED
Info: FEP VDW SHIFTING COEFFICIENT 5
Info: FEP ELEC. ACTIVE FOR ANNIHILATED PARTICLES BETWEEN LAMBDA = 0 AND LAMBDA = 0.5
Info: FEP ELEC. ACTIVE FOR EXNIHILATED PARTICLES BETWEEN LAMBDA = 0.5 AND LAMBDA = 1
Info: FEP VDW ACTIVE FOR ANNIHILATED PARTICLES BETWEEN LAMBDA = 0 AND LAMBDA = 1
Info: FEP VDW ACTIVE FOR EXNIHILATED PARTICLES BETWEEN LAMBDA = 0 AND LAMBDA = 1
Info: FEP BOND ACTIVE FOR ANNIHILATED PARTICLES BETWEEN LAMBDA = 1 AND LAMBDA = 1
Info: FEP BOND ACTIVE FOR EXNIHILATED PARTICLES BETWEEN LAMBDA = 0 AND LAMBDA = 0
Info: LANGEVIN DYNAMICS ACTIVE
Info: LANGEVIN TEMPERATURE   300
Info: LANGEVIN USING BBK INTEGRATOR
Info: LANGEVIN DAMPING COEFFICIENT IS 1 INVERSE PS
Info: LANGEVIN DYNAMICS APPLIED TO HYDROGENS
Info: LANGEVIN PISTON PRESSURE CONTROL ACTIVE
Info:        TARGET PRESSURE IS 1.01325 BAR
Info:     OSCILLATION PERIOD IS 50 FS
Info:             DECAY TIME IS 25 FS
Info:     PISTON TEMPERATURE IS 300 K
Info:       PRESSURE CONTROL IS GROUP-BASED
Info:    INITIAL STRAIN RATE IS -0.000440421 -0.000440421 -0.000440421
Info:       CELL FLUCTUATION IS ISOTROPIC
Info: PARTICLE MESH EWALD (PME) ACTIVE
Info: PME TOLERANCE               1e-06
Info: PME EWALD COEFFICIENT       0.348832
Info: PME INTERPOLATION ORDER     4
Info: PME GRID DIMENSIONS         32 32 32
Info: PME MAXIMUM GRID SPACING    1
Info: PME CALCULATION WILL BE PERFORMED ON GPU
Info: FULL ELECTROSTATIC EVALUATION FREQUENCY      2
Info: USING VERLET I (r-RESPA) MTS SCHEME.
Info: C1 SPLITTING OF LONG RANGE ELECTROSTATICS
Info: PLACING ATOMS IN PATCHES BY HYDROGEN GROUPS
Info: RIGID BONDS TO HYDROGEN : ALL
Info:         ERROR TOLERANCE : 1e-08
Info:          MAX ITERATIONS : 100
Info: RIGID WATER USING SETTLE ALGORITHM
Info: RANDOM NUMBER SEED     1743464064
Info: USE HYDROGEN BONDS?    NO
Info: Using AMBER format force field!
Info: AMBER PARM FILE        mobley_1929982.prmtop
Info: COORDINATE PDB         mobley_1929982.pdb
Info: Exclusions will be read from PARM file!
Info: SCNB (VDW SCALING)     2
Info: USING ARITHMETIC MEAN TO COMBINE L-J SIGMA PARAMETERS
Info: BINARY COORDINATES     mobley_1929982_equil.coor
Info: SUMMARY OF PARAMETERS:
Info: 3 BONDS
Info: 1 ANGLES
Info:   1 HARMONIC
Info:   0 COSINE-BASED
Info: 0 DIHEDRAL
Info: 0 IMPROPER
Info: 0 CROSSTERM
Info: 0 VDW
Info: 10 VDW_PAIRS
Info: 0 NBTHOLE_PAIRS
Info: To read alchdata from file: mobley_1929982.pdb
Info: To read alchflag data from column: 5
Info: STRUCTURE SUMMARY:
Info: 2949 ATOMS
Info: 2948 BONDS
Info: 1 ANGLES
Info: 0 DIHEDRALS
Info: 0 IMPROPERS
Info: 0 CROSSTERMS
Info: 2949 EXCLUSIONS
Info: 2948 RIGID BONDS
Info: ALCH: 0 ATOMS TO DISAPPEAR IN FINAL STATE
Info: ALCH: 3 ATOMS TO APPEAR IN FINAL STATE
Info: 5899 DEGREES OF FREEDOM
Info: 983 HYDROGEN GROUPS
Info: 3 ATOMS IN LARGEST HYDROGEN GROUP
Info: 983 MIGRATION GROUPS
Info: 3 ATOMS IN LARGEST MIGRATION GROUP
Info: TOTAL MASS = 17725.8 amu
Info: TOTAL CHARGE = 0.000100017 e
Info: MASS DENSITY = 0.991226 g/cm^3
Info: ATOM DENSITY = 0.0993076 atoms/A^3
Info: ADDED 0 IMPLICIT EXCLUSIONS
Info: NONBONDED TABLE R-SQUARED SPACING: 0.0625
Info: NONBONDED TABLE SIZE: 705 POINTS
Info: REMOVING COM VELOCITY 0.0389767 -0.0524207 -0.153147
Info: Use 3D box decompostion in PME FFT.
Info: Updated CUDA force table with 4096 elements.
Info: Updated CUDA LJ table with 4 x 4 elements.
Info: Found 3 unique exclusion lists needing 4 bytes
TCL: Running for 1500000 steps
ETITLE: TS BOND ANGLE DIHED IMPRP ELECT VDW BOUNDARY MISC KINETIC TOTAL TEMP POTENTIAL TOTALAVG TEMPAVG PRESSURE GPRESSURE VOLUME PRESSAVG GPRESSAVG
ENERGY: 0 0.0000 0.0473 0.0000 0.0000 -10840.7746 1577.6335 0.0000 0.0000 1736.1463 -7526.9475 296.2090 -9263.0938 -7526.9475 296.2090 1345.8678 1427.4149 29695.6083 1345.8678 1427.4149
ENERGY: 300000 0.0000 0.1412 0.0000 0.0000 -10705.0072 1411.9383 0.0000 0.0000 1810.0148 -7482.9130 308.8120 -9292.9278 -7511.1107 299.8827 -331.0828 -278.6971 30299.8822 248.4437 325.6136
ENERGY: 600000 0.0000 0.0481 0.0000 0.0000 -10864.8963 1487.1995 0.0000 0.0000 1688.0549 -7689.5937 288.0040 -9377.6486 -7553.8903 296.1036 -36.4848 -38.2784 30380.8228 5.5103 67.1030
ENERGY: 900000 0.0000 0.3233 0.0000 0.0000 -10788.1335 1523.3507 0.0000 0.0000 1823.0712 -7441.3883 311.0396 -9264.4595 -7539.7271 299.3032 630.5960 625.2149 30502.7282 47.0331 108.3043
ENERGY: 1200000 0.0000 0.1084 0.0000 0.0000 -10758.6435 1477.8931 0.0000 0.0000 1796.3014 -7484.3406 306.4723 -9280.6420 -7525.6441 300.6330 214.4161 286.7960 30580.6037 -1.9231 60.0365
ENERGY: 1500000 0.0000 0.1389 0.0000 0.0000 -10645.8336 1423.4303 0.0000 0.0000 1737.0910 -7485.1735 296.3702 -9222.2645 -7516.6280 299.9164 -317.5111 -304.8806 31062.1033 -27.8228 32.0167
TCL: Running FEP window   2: Lambda1 0.05   Lambda2 0.1    [dLambda 0.05  ]
TCL: Setting parameter firsttimestep to 0
TCL: Setting parameter alchLambda to 0.05
Info: NONBONDED TABLE R-SQUARED SPACING: 0.0625
Info: NONBONDED TABLE SIZE: 705 POINTS
TCL: Setting parameter alchLambda2 to 0.1
Info: NONBONDED TABLE R-SQUARED SPACING: 0.0625
Info: NONBONDED TABLE SIZE: 705 POINTS
TCL: Running for 1500000 steps
ETITLE: TS BOND ANGLE DIHED IMPRP ELECT VDW BOUNDARY MISC KINETIC TOTAL TEMP POTENTIAL TOTALAVG TEMPAVG PRESSURE GPRESSURE VOLUME PRESSAVG GPRESSAVG
ENERGY: 0 0.0000 0.1389 0.0000 0.0000 -10645.8340 1423.4762 0.0000 0.0000 1736.2130 -7486.0059 296.2204 -9222.2189 -7486.0059 296.2204 -383.2342 -305.0088 31062.1033 -383.2342 -305.0088
ENERGY: 300000 0.0000 0.1118 0.0000 0.0000 -10855.9235 1433.3214 0.0000 0.0000 1774.9833 -7647.5071 302.8351 -9422.4904 -7549.6075 300.1629 -735.5798 -669.9932 30879.2541 -365.7594 -331.1261
ENERGY: 600000 0.0000 1.5538 0.0000 0.0000 -10725.0798 1473.1195 0.0000 0.0000 1743.0442 -7507.3623 297.3859 -9250.4065 -7526.1105 300.1170 298.3736 351.2308 30276.0939 -183.6137 -132.6688
ENERGY: 900000 0.0000 0.3717 0.0000 0.0000 -10762.9644 1484.2214 0.0000 0.0000 1752.7019 -7525.6695 299.0336 -9278.3713 -7536.0633 300.0521 424.1978 505.0289 30000.4742 -46.6506 14.7390
ENERGY: 1200000 0.0000 0.0343 0.0000 0.0000 -10704.8764 1441.0474 0.0000 0.0000 1697.5743 -7566.2203 289.6282 -9263.7947 -7533.7743 299.8611 -31.2941 -61.8667 30473.9301 101.6389 150.2402
ENERGY: 1500000 0.0000 0.0730 0.0000 0.0000 -10811.9981 1456.0761 0.0000 0.0000 1788.5952 -7567.2537 305.1575 -9355.8489 -7534.5239 300.0059 -71.7387 -74.8315 30580.8882 64.0127 111.7444
TCL: Running FEP window   3: Lambda1 0.1    Lambda2 0.15000000000000002 [dLambda 0.05000000000000002]
TCL: Setting parameter firsttimestep to 0
TCL: Setting parameter alchLambda to 0.1
Info: NONBONDED TABLE R-SQUARED SPACING: 0.0625
Info: NONBONDED TABLE SIZE: 705 POINTS
TCL: Setting parameter alchLambda2 to 0.15000000000000002
Info: NONBONDED TABLE R-SQUARED SPACING: 0.0625
Info: NONBONDED TABLE SIZE: 705 POINTS
TCL: Running for 1500000 steps
ETITLE: TS BOND ANGLE DIHED IMPRP ELECT VDW BOUNDARY MISC KINETIC TOTAL TEMP POTENTIAL TOTALAVG TEMPAVG PRESSURE GPRESSURE VOLUME PRESSAVG GPRESSAVG
ENERGY: 0 0.0000 0.0730 0.0000 0.0000 -10811.9985 1455.9869 0.0000 0.0000 1787.7177 -7568.2209 305.0078 -9355.9386 -7568.2209 305.0078 -161.4643 -75.7987 30580.8882 -161.4643 -75.7987
ENERGY: 300000 0.0000 0.0013 0.0000 0.0000 -10653.2841 1409.0913 0.0000 0.0000 1749.9260 -7494.2656 298.5600 -9244.1915 -7491.7211 300.0831 -229.5425 -112.9546 30342.6708 -282.9247 -190.3248
ENERGY: 600000 0.0000 0.0095 0.0000 0.0000 -10630.6841 1399.2374 0.0000 0.0000 1760.2631 -7471.1742 300.3237 -9231.4373 -7506.4133 300.3787 -202.3940 -186.5902 30378.7009 -303.4993 -221.9934
ENERGY: 900000 0.0000 1.1022 0.0000 0.0000 -10750.2375 1457.1144 0.0000 0.0000 1777.3807 -7514.6402 303.2442 -9292.0208 -7500.3891 301.5296 282.2377 328.9218 29867.7686 -270.5429 -195.0978
ENERGY: 1200000 0.0000 0.1868 0.0000 0.0000 -10749.0633 1449.4327 0.0000 0.0000 1741.5740 -7557.8698 297.1351 -9299.4438 -7497.1781 300.8997 -31.9472 -2.2477 30526.9950 -235.2122 -171.7903
ENERGY: 1500000 0.0000 0.0080 0.0000 0.0000 -10871.8724 1513.8470 0.0000 0.0000 1764.6958 -7593.3215 301.0800 -9358.0173 -7500.9313 300.8681 292.4544 350.3876 30187.4720 -265.1396 -204.2718
TCL: Running FEP window   4: Lambda1 0.15000000000000002 Lambda2 0.2    [dLambda 0.04999999999999999]
TCL: Setting parameter firsttimestep to 0
TCL: Setting parameter alchLambda to 0.15000000000000002
Info: NONBONDED TABLE R-SQUARED SPACING: 0.0625
Info: NONBONDED TABLE SIZE: 705 POINTS
TCL: Setting parameter alchLambda2 to 0.2
Info: NONBONDED TABLE R-SQUARED SPACING: 0.0625
Info: NONBONDED TABLE SIZE: 705 POINTS
TCL: Running for 1500000 steps
ETITLE: TS BOND ANGLE DIHED IMPRP ELECT VDW BOUNDARY MISC KINETIC TOTAL TEMP POTENTIAL TOTALAVG TEMPAVG PRESSURE GPRESSURE VOLUME PRESSAVG GPRESSAVG
ENERGY: 0 0.0000 0.0080 0.0000 0.0000 -10871.8709 1513.8399 0.0000 0.0000 1763.8399 -7594.1831 300.9339 -9358.0230 -7594.1831 300.9339 263.5532 350.4356 30187.4720 263.5532 350.4356
ENERGY: 300000 0.0000 0.1902 0.0000 0.0000 -10664.4747 1392.7799 0.0000 0.0000 1750.4185 -7521.0861 298.6441 -9271.5046 -7532.3642 300.8536 -597.6298 -477.4199 30666.4502 -142.6165 -50.2349
ENERGY: 600000 0.0000 0.0221 0.0000 0.0000 -10778.4791 1500.5650 0.0000 0.0000 1738.4941 -7539.3979 296.6096 -9277.8920 -7531.3148 300.3341 278.5968 352.7818 30423.3492 -24.0987 40.9901
ENERGY: 900000 0.0000 0.0605 0.0000 0.0000 -10711.3068 1505.8727 0.0000 0.0000 1789.5775 -7415.7961 305.3251 -9205.3736 -7523.0334 300.6082 657.0622 707.0105 30399.9903 67.6069 132.4184
ENERGY: 1200000 0.0000 0.3506 0.0000 0.0000 -10697.6983 1425.1597 0.0000 0.0000 1777.7898 -7494.3981 303.3140 -9272.1880 -7525.1709 300.6980 -388.7393 -353.7545 30755.4142 49.8626 109.7271
ENERGY: 1500000 0.0000 0.1185 0.0000 0.0000 -10687.4821 1383.9457 0.0000 0.0000 1718.8041 -7584.6139 293.2502 -9303.4180 -7518.3580 300.6028 -578.0481 -566.1124 30415.9286 -18.7300 39.6681
TCL: Running FEP window   5: Lambda1 0.2    Lambda2 0.25   [dLambda 0.04999999999999999]
TCL: Setting parameter firsttimestep to 0
TCL: Setting parameter alchLambda to 0.2
Info: NONBONDED TABLE R-SQUARED SPACING: 0.0625
Info: NONBONDED TABLE SIZE: 705 POINTS
TCL: Setting parameter alchLambda2 to 0.25
Info: NONBONDED TABLE R-SQUARED SPACING: 0.0625
Info: NONBONDED TABLE SIZE: 705 POINTS
TCL: Running for 1500000 steps
ETITLE: TS BOND ANGLE DIHED IMPRP ELECT VDW BOUNDARY MISC KINETIC TOTAL TEMP POTENTIAL TOTALAVG TEMPAVG PRESSURE GPRESSURE VOLUME PRESSAVG GPRESSAVG
ENERGY: 0 0.0000 0.1185 0.0000 0.0000 -10687.4829 1383.8894 0.0000 0.0000 1717.9172 -7585.5578 293.0989 -9303.4750 -7585.5578 293.0989 -643.1519 -567.5747 30415.9286 -643.1519 -567.5747
ENERGY: 300000 0.0000 0.2241 0.0000 0.0000 -10642.1409 1417.9913 0.0000 0.0000 1744.0117 -7479.9138 297.5510 -9223.9255 -7515.9188 300.5280 -7.4602 29.9814 30543.4492 -420.0768 -347.4096
ENERGY: 600000 0.0000 0.0716 0.0000 0.0000 -10795.7622 1496.8310 0.0000 0.0000 1740.8321 -7558.0275 297.0085 -9298.8596 -7540.6576 298.7311 320.9889 405.5139 30387.7629 -319.8881 -243.8722
ENERGY: 900000 0.0000 0.0001 0.0000 0.0000 -10817.5531 1556.1622 0.0000 0.0000 1798.2583 -7463.1325 306.8062 -9261.3909 -7535.7512 299.5965 1290.7098 1271.6557 29832.1868 -142.7303 -83.6234
ENERGY: 1200000 0.0000 0.0830 0.0000 0.0000 -10735.4827 1496.7591 0.0000 0.0000 1765.6441 -7472.9965 301.2417 -9238.6406 -7532.3882 300.5535 344.3120 392.4623 30878.1998 -36.9404 15.5734
ENERGY: 1500000 0.0000 0.2325 0.0000 0.0000 -10690.7765 1411.6461 0.0000 0.0000 1751.3338 -7527.5642 298.8002 -9278.8980 -7519.3298 301.8177 -125.3187 -77.6501 30111.3279 -44.4735 7.2618
TCL: Running FEP window   6: Lambda1 0.25   Lambda2 0.3    [dLambda 0.04999999999999999]
TCL: Setting parameter firsttimestep to 0
TCL: Setting parameter alchLambda to 0.25
Info: NONBONDED TABLE R-SQUARED SPACING: 0.0625
Info: NONBONDED TABLE SIZE: 705 POINTS
TCL: Setting parameter alchLambda2 to 0.3
Info: NONBONDED TABLE R-SQUARED SPACING: 0.0625
Info: NONBONDED TABLE SIZE: 705 POINTS
TCL: Running for 1500000 steps
ETITLE: TS BOND ANGLE DIHED IMPRP ELECT VDW BOUNDARY MISC KINETIC TOTAL TEMP POTENTIAL TOTALAVG TEMPAVG PRESSURE GPRESSURE VOLUME PRESSAVG GPRESSAVG
ENERGY: 0 0.0000 0.2325 0.0000 0.0000 -10690.7756 1411.8930 0.0000 0.0000 1750.4798 -7528.1703 298.6545 -9278.6501 -7528.1703 298.6545 -175.0491 -74.5319 30111.3279 -175.0491 -74.5319
ENERGY: 300000 0.0000 0.1460 0.0000 0.0000 -10673.1151 1403.2287 0.0000 0.0000 1728.5121 -7541.2283 294.9065 -9269.7403 -7531.1412 301.1243 -362.8582 -230.4469 30251.9812 -164.3919 -78.7552
ENERGY: 600000 0.0000 1.4569 0.0000 0.0000 -10787.5364 1443.9109 0.0000 0.0000 1757.9845 -7584.1841 299.9349 -9342.1686 -7540.1489 301.4551 -237.6306 -155.5056 30371.7363 -131.2184 -55.6087
ENERGY: 900000 0.0000 1.3160 0.0000 0.0000 -10731.0075 1489.1678 0.0000 0.0000 1750.7181 -7489.8056 298.6952 -9240.5237 -7521.9232 300.6263 419.8939 454.1455 30343.2115 7.2384 81.0136
ENERGY: 1200000 0.0000 0.0955 0.0000 0.0000 -10781.9627 1533.4414 0.0000 0.0000 1773.6208 -7474.8051 302.6027 -9248.4258 -7519.2047 300.5709 692.4053 735.4917 30331.5882 62.1194 135.0084
ENERGY: 1500000 0.0000 0.2239 0.0000 0.0000 -10842.1579 1570.9605 0.0000 0.0000 1828.5083 -7442.4652 311.9672 -9270.9735 -7521.9851 301.2230 931.0935 1049.1705 30321.2304 105.5787 172.3215
TCL: Running FEP window   7: Lambda1 0.3    Lambda2 0.35   [dLambda 0.04999999999999999]
TCL: Setting parameter firsttimestep to 0
TCL: Setting parameter alchLambda to 0.3
Info: NONBONDED TABLE R-SQUARED SPACING: 0.0625
Info: NONBONDED TABLE SIZE: 705 POINTS
TCL: Setting parameter alchLambda2 to 0.35
Info: NONBONDED TABLE R-SQUARED SPACING: 0.0625
Info: NONBONDED TABLE SIZE: 705 POINTS
TCL: Running for 1500000 steps
ETITLE: TS BOND ANGLE DIHED IMPRP ELECT VDW BOUNDARY MISC KINETIC TOTAL TEMP POTENTIAL TOTALAVG TEMPAVG PRESSURE GPRESSURE VOLUME PRESSAVG GPRESSAVG
ENERGY: 0 0.0000 0.2239 0.0000 0.0000 -10842.1602 1570.9303 0.0000 0.0000 1827.6519 -7443.3540 311.8211 -9271.0059 -7443.3540 311.8211 967.3170 1048.3400 30321.2304 967.3170 1048.3400
ENERGY: 300000 0.0000 1.3920 0.0000 0.0000 -10654.4320 1426.4724 0.0000 0.0000 1765.3119 -7461.2557 301.1851 -9226.5676 -7502.2019 302.3056 67.0949 135.0740 30164.2143 -218.0421 -142.7868
ENERGY: 600000 0.0000 0.0086 0.0000 0.0000 -10766.1806 1525.9979 0.0000 0.0000 1723.3639 -7516.8102 294.0282 -9240.1742 -7519.8663 298.8081 732.8084 778.8712 30167.5966 -30.8839 45.9989
ENERGY: 900000 0.0000 0.7066 0.0000 0.0000 -10747.0404 1476.2679 0.0000 0.0000 1743.5213 -7526.5445 297.4673 -9270.0659 -7528.0623 298.7003 115.6192 165.4814 30661.2524 -24.4894 43.1393
ENERGY: 1200000 0.0000 0.2616 0.0000 0.0000 -10734.5539 1391.9790 0.0000 0.0000 1785.1940 -7557.1193 304.5772 -9342.3133 -7514.0224 299.8254 -584.0960 -489.1716 30247.3353 -229.5864 -158.3724
ENERGY: 1500000 0.0000 0.2623 0.0000 0.0000 -10744.0856 1445.6568 0.0000 0.0000 1774.8982 -7523.2683 302.8206 -9298.1665 -7509.1359 300.6674 66.1940 110.6593 30145.1470 -200.7638 -130.4638
TCL: Running FEP window   8: Lambda1 0.35   Lambda2 0.39999999999999997 [dLambda 0.04999999999999999]
TCL: Setting parameter firsttimestep to 0
TCL: Setting parameter alchLambda to 0.35
Info: NONBONDED TABLE R-SQUARED SPACING: 0.0625
Info: NONBONDED TABLE SIZE: 705 POINTS
TCL: Setting parameter alchLambda2 to 0.39999999999999997
Info: NONBONDED TABLE R-SQUARED SPACING: 0.0625
Info: NONBONDED TABLE SIZE: 705 POINTS
TCL: Running for 1500000 steps
ETITLE: TS BOND ANGLE DIHED IMPRP ELECT VDW BOUNDARY MISC KINETIC TOTAL TEMP POTENTIAL TOTALAVG TEMPAVG PRESSURE GPRESSURE VOLUME PRESSAVG GPRESSAVG
ENERGY: 0 0.0000 0.2623 0.0000 0.0000 -10744.0861 1445.7045 0.0000 0.0000 1774.0068 -7524.1125 302.6685 -9298.1193 -7524.1125 302.6685 22.8712 113.3577 30145.1470 22.8712 113.3577
ENERGY: 300000 0.0000 0.1556 0.0000 0.0000 -10809.1474 1537.0854 0.0000 0.0000 1781.0358 -7490.8706 303.8678 -9271.9064 -7497.9747 302.9323 758.4402 824.9948 30377.9861 22.4169 93.2173
ENERGY: 600000 0.0000 0.3418 0.0000 0.0000 -10581.9634 1348.5582 0.0000 0.0000 1775.7701 -7457.2933 302.9694 -9233.0634 -7496.5933 303.3795 -805.0906 -725.0819 30710.0578 -3.6787 58.5786
ENERGY: 900000 0.0000 0.4875 0.0000 0.0000 -10741.7441 1440.2643 0.0000 0.0000 1803.7124 -7497.2799 307.7367 -9300.9923 -7504.1696 303.6360 55.1557 124.3231 30164.5451 35.0663 106.9040
ENERGY: 1200000 0.0000 0.0724 0.0000 0.0000 -10619.6776 1399.8378 0.0000 0.0000 1841.8996 -7377.8678 314.2519 -9219.7674 -7490.9368 304.0527 -237.3201 -159.5543 30330.8736 -73.6474 -3.0883
ENERGY: 1500000 0.0000 0.0035 0.0000 0.0000 -10679.7834 1364.6310 0.0000 0.0000 1811.7987 -7503.3502 309.1163 -9315.1489 -7495.8108 304.0040 -743.0025 -651.4869 30439.4436 -88.0933 -13.1620
TCL: Running FEP window   9: Lambda1 0.39999999999999997 Lambda2 0.44999999999999996 [dLambda 0.04999999999999999]
TCL: Setting parameter firsttimestep to 0
TCL: Setting parameter alchLambda to 0.39999999999999997
Info: NONBONDED TABLE R-SQUARED SPACING: 0.0625
Info: NONBONDED TABLE SIZE: 705 POINTS
TCL: Setting parameter alchLambda2 to 0.44999999999999996
Info: NONBONDED TABLE R-SQUARED SPACING: 0.0625
Info: NONBONDED TABLE SIZE: 705 POINTS
TCL: Running for 1500000 steps
ETITLE: TS BOND ANGLE DIHED IMPRP ELECT VDW BOUNDARY MISC KINETIC TOTAL TEMP POTENTIAL TOTALAVG TEMPAVG PRESSURE GPRESSURE VOLUME PRESSAVG GPRESSAVG
ENERGY: 0 0.0000 0.0035 0.0000 0.0000 -10679.7839 1365.0527 0.0000 0.0000 1810.9382 -7503.7894 308.9695 -9314.7277 -7503.7894 308.9695 -727.4656 -648.4357 30439.4436 -727.4656 -648.4357
ENERGY: 300000 0.0000 0.4939 0.0000 0.0000 -10703.9140 1465.5524 0.0000 0.0000 1731.3057 -7506.5620 295.3832 -9237.8678 -7502.8725 303.6512 210.9570 279.2997 30184.5517 -419.9119 -341.8925
ENERGY: 600000 0.0000 0.1336 0.0000 0.0000 -10761.1705 1508.4952 0.0000 0.0000 1755.9967 -7496.5450 299.5958 -9252.5417 -7504.0589 302.1634 848.3958 939.6757 29721.0777 22.1067 104.5930
ENERGY: 900000 0.0000 1.3284 0.0000 0.0000 -10645.1725 1362.9621 0.0000 0.0000 1764.0068 -7516.8752 300.9624 -9280.8820 -7503.9313 302.0382 -574.3899 -481.0079 30280.9710 55.2987 139.5503
ENERGY: 1200000 0.0000 0.2276 0.0000 0.0000 -10580.0458 1371.7677 0.0000 0.0000 1746.8905 -7461.1600 298.0421 -9208.0504 -7504.9066 301.3956 -265.5754 -245.7169 30386.1655 34.4856 112.2531
ENERGY: 1500000 0.0000 0.0438 0.0000 0.0000 -10574.7226 1353.3395 0.0000 0.0000 1748.6657 -7472.6736 298.3450 -9221.3393 -7494.5587 301.9960 -572.8557 -526.0012 30526.4840 38.7656 108.5868
TCL: Running FEP window  10: Lambda1 0.44999999999999996 Lambda2 0.49999999999999994 [dLambda 0.04999999999999999]
TCL: Setting parameter firsttimestep to 0
TCL: Setting parameter alchLambda to 0.44999999999999996
Info: NONBONDED TABLE R-SQUARED SPACING: 0.0625
Info: NONBONDED TABLE SIZE: 705 POINTS
TCL: Setting parameter alchLambda2 to 0.49999999999999994
Info: NONBONDED TABLE R-SQUARED SPACING: 0.0625
Info: NONBONDED TABLE SIZE: 705 POINTS
TCL: Running for 1500000 steps
ETITLE: TS BOND ANGLE DIHED IMPRP ELECT VDW BOUNDARY MISC KINETIC TOTAL TEMP POTENTIAL TOTALAVG TEMPAVG PRESSURE GPRESSURE VOLUME PRESSAVG GPRESSAVG
ENERGY: 0 0.0000 0.0438 0.0000 0.0000 -10574.7237 1353.1456 0.0000 0.0000 1747.8084 -7473.7259 298.1988 -9221.5343 -7473.7259 298.1988 -596.3859 -527.6724 30526.4840 -596.3859 -527.6724
ENERGY: 300000 0.0000 0.5260 0.0000 0.0000 -10711.1401 1389.2085 0.0000 0.0000 1813.8117 -7507.5939 309.4598 -9321.4056 -7500.0694 300.6403 -399.7023 -342.5070 29795.6213 -351.3234 -305.7214
ENERGY: 600000 0.0000 0.7265 0.0000 0.0000 -10791.1507 1469.3885 0.0000 0.0000 1743.5181 -7577.5176 297.4668 -9321.0357 -7531.1430 300.0552 276.8890 338.6555 30009.7979 -142.0005 -89.4739
ENERGY: 900000 0.0000 0.0448 0.0000 0.0000 -10604.6397 1393.2760 0.0000 0.0000 1706.2097 -7505.1091 291.1015 -9211.3188 -7524.9299 300.0832 -381.2498 -264.9801 30613.6950 -108.6314 -46.5653
ENERGY: 1200000 0.0000 0.9413 0.0000 0.0000 -10720.9123 1413.8669 0.0000 0.0000 1732.3029 -7573.8011 295.5533 -9306.1041 -7523.4070 299.5067 -295.0663 -252.7871 30335.9070 -117.2343 -62.2761
ENERGY: 1500000 0.0000 0.1461 0.0000 0.0000 -10729.7238 1465.5473 0.0000 0.0000 1774.0148 -7490.0155 302.6699 -9264.0303 -7518.1296 300.2250 217.5292 284.2875 30353.8516 -107.0846 -49.6689
TCL: Running FEP window  11: Lambda1 0.49999999999999994 Lambda2 0.5499999999999999 [dLambda 0.04999999999999999]
TCL: Setting parameter firsttimestep to 0
TCL: Setting parameter alchLambda to 0.49999999999999994
Info: NONBONDED TABLE R-SQUARED SPACING: 0.0625
Info: NONBONDED TABLE SIZE: 705 POINTS
TCL: Setting parameter alchLambda2 to 0.5499999999999999
Info: NONBONDED TABLE R-SQUARED SPACING: 0.0625
Info: NONBONDED TABLE SIZE: 705 POINTS
TCL: Running for 1500000 steps
ETITLE: TS BOND ANGLE DIHED IMPRP ELECT VDW BOUNDARY MISC KINETIC TOTAL TEMP POTENTIAL TOTALAVG TEMPAVG PRESSURE GPRESSURE VOLUME PRESSAVG GPRESSAVG
ENERGY: 0 0.0000 0.1461 0.0000 0.0000 -10729.7244 1465.9476 0.0000 0.0000 1773.1653 -7490.4653 302.5250 -9263.6307 -7490.4653 302.5250 197.1364 288.3715 30353.8516 197.1364 288.3715
ENERGY: 300000 0.0000 0.5058 0.0000 0.0000 -10763.8639 1472.7827 0.0000 0.0000 1737.9382 -7552.6372 296.5148 -9290.5754 -7495.9332 299.8643 411.3115 459.6125 29620.3173 229.5424 275.1470
ENERGY: 600000 0.0000 0.2890 0.0000 0.0000 -10533.3206 1388.2038 0.0000 0.0000 1760.2600 -7384.5678 300.3231 -9144.8278 -7489.7683 300.5040 -243.0490 -178.2833 30866.8295 84.7435 156.0072
ENERGY: 900000 0.0000 1.7311 0.0000 0.0000 -10548.4354 1380.3571 0.0000 0.0000 1724.8558 -7441.4915 294.2827 -9166.3473 -7487.0886 299.6958 -288.2269 -216.9688 30686.1343 40.5560 110.5815
ENERGY: 1200000 0.0000 0.0340 0.0000 0.0000 -10787.0160 1458.1451 0.0000 0.0000 1739.3545 -7589.4824 296.7564 -9328.8369 -7504.9615 299.3906 -163.0657 -36.1177 30383.5326 -9.7827 59.3939
ENERGY: 1500000 0.0000 0.0041 0.0000 0.0000 -10715.0239 1413.9402 0.0000 0.0000 1754.2274 -7546.8521 299.2939 -9301.0795 -7507.7940 299.4515 -233.9777 -98.1239 30085.8950 -42.9992 30.0866
TCL: Running FEP window  12: Lambda1 0.5499999999999999 Lambda2 0.6    [dLambda 0.050000000000000044]
TCL: Setting parameter firsttimestep to 0
TCL: Setting parameter alchLambda to 0.5499999999999999
Info: NONBONDED TABLE R-SQUARED SPACING: 0.0625
Info: NONBONDED TABLE SIZE: 705 POINTS
TCL: Setting parameter alchLambda2 to 0.6
Info: NONBONDED TABLE R-SQUARED SPACING: 0.0625
Info: NONBONDED TABLE SIZE: 705 POINTS
TCL: Running for 1500000 steps
ETITLE: TS BOND ANGLE DIHED IMPRP ELECT VDW BOUNDARY MISC KINETIC TOTAL TEMP POTENTIAL TOTALAVG TEMPAVG PRESSURE GPRESSURE VOLUME PRESSAVG GPRESSAVG
ENERGY: 0 0.0000 0.0041 0.0000 0.0000 -10715.1243 1414.1572 0.0000 0.0000 1753.3212 -7547.6418 299.1393 -9300.9630 -7547.6418 299.1393 -188.1425 -93.5789 30085.8950 -188.1425 -93.5789
ENERGY: 300000 0.0000 0.1727 0.0000 0.0000 -10583.2622 1376.1149 0.0000 0.0000 1832.1210 -7374.8535 312.5836 -9206.9745 -7507.6130 302.1929 -283.9534 -226.6236 30434.0575 234.7088 307.4141
ENERGY: 600000 0.0000 0.0007 0.0000 0.0000 -10787.3667 1451.5156 0.0000 0.0000 1714.8453 -7621.0052 292.5748 -9335.8505 -7509.8436 302.2242 -333.7034 -275.8684 30723.2262 -32.3352 34.0589
ENERGY: 900000 0.0000 0.2306 0.0000 0.0000 -10805.7793 1550.7029 0.0000 0.0000 1747.0261 -7507.8197 298.0653 -9254.8457 -7504.4117 302.5217 931.4587 965.0318 30090.4715 122.3943 183.2287
ENERGY: 1200000 0.0000 0.2833 0.0000 0.0000 -10727.8758 1431.6047 0.0000 0.0000 1749.8548 -7546.1329 298.5479 -9295.9878 -7508.2848 302.0860 0.9180 20.9362 30024.0599 151.3210 204.3943
ENERGY: 1500000 0.0000 0.6347 0.0000 0.0000 -10679.0033 1448.8542 0.0000 0.0000 1689.5565 -7539.9580 288.2602 -9229.5145 -7509.9168 301.3496 532.4475 571.3946 29723.9494 181.3118 231.2819
TCL: Running FEP window  13: Lambda1 0.6    Lambda2 0.65   [dLambda 0.050000000000000044]
TCL: Setting parameter firsttimestep to 0
TCL: Setting parameter alchLambda to 0.6
Info: NONBONDED TABLE R-SQUARED SPACING: 0.0625
Info: NONBONDED TABLE SIZE: 705 POINTS
TCL: Setting parameter alchLambda2 to 0.65
Info: NONBONDED TABLE R-SQUARED SPACING: 0.0625
Info: NONBONDED TABLE SIZE: 705 POINTS
TCL: Running for 1500000 steps
ETITLE: TS BOND ANGLE DIHED IMPRP ELECT VDW BOUNDARY MISC KINETIC TOTAL TEMP POTENTIAL TOTALAVG TEMPAVG PRESSURE GPRESSURE VOLUME PRESSAVG GPRESSAVG
ENERGY: 0 0.0000 0.6347 0.0000 0.0000 -10679.1647 1448.9644 0.0000 0.0000 1688.7038 -7540.8618 288.1147 -9229.5656 -7540.8618 288.1147 464.4697 576.2162 29723.9494 464.4697 576.2162
ENERGY: 300000 0.0000 0.4862 0.0000 0.0000 -10641.2933 1393.7292 0.0000 0.0000 1846.7324 -7400.3455 315.0765 -9247.0779 -7515.3590 301.1196 -314.0609 -302.4106 30717.8756 360.7586 434.5098
ENERGY: 600000 0.0000 0.0451 0.0000 0.0000 -10713.1745 1403.9217 0.0000 0.0000 1719.2266 -7589.9811 293.3223 -9309.2077 -7527.0961 299.0004 -640.9191 -636.7028 30963.9659 171.2277 225.4089
ENERGY: 900000 0.0000 0.5595 0.0000 0.0000 -10700.2755 1407.0135 0.0000 0.0000 1741.8626 -7550.8400 297.1843 -9292.7025 -7526.8598 298.5260 -184.0737 -93.3065 29883.7011 124.1766 184.1395
ENERGY: 1200000 0.0000 0.3164 0.0000 0.0000 -10721.7708 1489.4502 0.0000 0.0000 1739.9754 -7492.0288 296.8623 -9232.0042 -7520.4716 298.5927 722.5532 750.1073 30205.0089 175.2323 232.8841
ENERGY: 1500000 0.0000 0.1763 0.0000 0.0000 -10709.3622 1415.5798 0.0000 0.0000 1728.9231 -7564.6828 294.9767 -9293.6060 -7529.0703 298.1795 -393.5557 -297.0046 30427.8007 159.1349 217.2873
TCL: Running FEP window  14: Lambda1 0.65   Lambda2 0.7000000000000001 [dLambda 0.050000000000000044]
TCL: Setting parameter firsttimestep to 0
TCL: Setting parameter alchLambda to 0.65
Info: NONBONDED TABLE R-SQUARED SPACING: 0.0625
Info: NONBONDED TABLE SIZE: 705 POINTS
TCL: Setting parameter alchLambda2 to 0.7000000000000001
Info: NONBONDED TABLE R-SQUARED SPACING: 0.0625
Info: NONBONDED TABLE SIZE: 705 POINTS
TCL: Running for 1500000 steps
ETITLE: TS BOND ANGLE DIHED IMPRP ELECT VDW BOUNDARY MISC KINETIC TOTAL TEMP POTENTIAL TOTALAVG TEMPAVG PRESSURE GPRESSURE VOLUME PRESSAVG GPRESSAVG
ENERGY: 0 0.0000 0.1763 0.0000 0.0000 -10709.5986 1416.1398 0.0000 0.0000 1728.0603 -7565.2221 294.8295 -9293.2824 -7565.2221 294.8295 -385.7322 -292.1680 30427.8007 -385.7322 -292.1680
ENERGY: 300000 0.0000 0.0085 0.0000 0.0000 -10758.8193 1415.3694 0.0000 0.0000 1719.2957 -7624.1457 293.3341 -9343.4414 -7565.0935 301.0952 -387.4818 -308.3707 30224.2297 -86.4072 2.6852
ENERGY: 600000 0.0000 0.1678 0.0000 0.0000 -10734.0669 1445.8976 0.0000 0.0000 1741.5789 -7546.4228 297.1359 -9288.0016 -7537.4608 301.3863 117.7376 159.7040 30053.0149 -74.4292 -3.6137
ENERGY: 900000 0.0000 0.3226 0.0000 0.0000 -10601.1226 1363.9209 0.0000 0.0000 1776.5360 -7460.3431 303.1001 -9236.8791 -7528.5630 301.2886 -546.0671 -536.0374 30652.2322 -121.2621 -65.6383
ENERGY: 1200000 0.0000 0.1516 0.0000 0.0000 -10640.0812 1403.0858 0.0000 0.0000 1776.4292 -7460.4146 303.0818 -9236.8438 -7526.2971 301.8390 -161.2396 -132.7178 30413.1002 -165.0379 -107.1102
ENERGY: 1500000 0.0000 0.0199 0.0000 0.0000 -10841.4731 1473.9510 0.0000 0.0000 1758.7763 -7608.7259 300.0700 -9367.5022 -7528.2704 302.2750 54.0527 98.3564 30226.3967 -119.2388 -63.0391
TCL: Running FEP window  15: Lambda1 0.7000000000000001 Lambda2 0.7500000000000001 [dLambda 0.050000000000000044]
TCL: Setting parameter firsttimestep to 0
TCL: Setting parameter alchLambda to 0.7000000000000001
Info: NONBONDED TABLE R-SQUARED SPACING: 0.0625
Info: NONBONDED TABLE SIZE: 705 POINTS
TCL: Setting parameter alchLambda2 to 0.7500000000000001
Info: NONBONDED TABLE R-SQUARED SPACING: 0.0625
Info: NONBONDED TABLE SIZE: 705 POINTS
TCL: Running for 1500000 steps
ETITLE: TS BOND ANGLE DIHED IMPRP ELECT VDW BOUNDARY MISC KINETIC TOTAL TEMP POTENTIAL TOTALAVG TEMPAVG PRESSURE GPRESSURE VOLUME PRESSAVG GPRESSAVG
ENERGY: 0 0.0000 0.0199 0.0000 0.0000 -10842.2101 1474.0390 0.0000 0.0000 1757.9310 -7610.2202 299.9258 -9368.1513 -7610.2202 299.9258 18.5956 100.4648 30226.3967 18.5956 100.4648
ENERGY: 300000 0.0000 1.3934 0.0000 0.0000 -10772.1170 1436.9560 0.0000 0.0000 1748.8910 -7584.8765 298.3835 -9333.7675 -7547.4511 295.7449 -133.0542 -20.8023 29929.8020 -159.6282 -85.3469
ENERGY: 600000 0.0000 0.1166 0.0000 0.0000 -10713.7582 1446.2001 0.0000 0.0000 1818.9998 -7448.4418 310.3449 -9267.4416 -7532.9278 298.9152 119.2339 174.4720 30252.2759 22.2680 99.3246
ENERGY: 900000 0.0000 0.0732 0.0000 0.0000 -10678.3200 1369.7698 0.0000 0.0000 1800.1255 -7508.3514 307.1247 -9308.4769 -7528.1627 299.8147 -564.9555 -489.8733 30305.5196 -70.8078 4.7514
ENERGY: 1200000 0.0000 0.0000 0.0000 0.0000 -10783.2386 1470.5641 0.0000 0.0000 1788.6225 -7524.0519 305.1622 -9312.6745 -7523.5731 299.4723 -7.8024 110.4776 30515.5390 -114.6591 -42.0918
ENERGY: 1500000 0.0000 0.3654 0.0000 0.0000 -10837.6599 1541.9088 0.0000 0.0000 1750.9588 -7544.4269 298.7362 -9295.3857 -7523.4889 299.6986 851.2132 878.1223 30121.7869 -11.2606 57.5052
TCL: Running FEP window  16: Lambda1 0.7500000000000001 Lambda2 0.8000000000000002 [dLambda 0.050000000000000044]
TCL: Setting parameter firsttimestep to 0
TCL: Setting parameter alchLambda to 0.7500000000000001
Info: NONBONDED TABLE R-SQUARED SPACING: 0.0625
Info: NONBONDED TABLE SIZE: 705 POINTS
TCL: Setting parameter alchLambda2 to 0.8000000000000002
Info: NONBONDED TABLE R-SQUARED SPACING: 0.0625
Info: NONBONDED TABLE SIZE: 705 POINTS
TCL: Running for 1500000 steps
ETITLE: TS BOND ANGLE DIHED IMPRP ELECT VDW BOUNDARY MISC KINETIC TOTAL TEMP POTENTIAL TOTALAVG TEMPAVG PRESSURE GPRESSURE VOLUME PRESSAVG GPRESSAVG
ENERGY: 0 0.0000 0.3654 0.0000 0.0000 -10838.1337 1542.3388 0.0000 0.0000 1750.0617 -7545.3678 298.5832 -9295.4296 -7545.3678 298.5832 804.7072 886.3585 30121.7869 804.7072 886.3585
ENERGY: 300000 0.0000 0.0046 0.0000 0.0000 -10698.0786 1431.9333 0.0000 0.0000 1781.0143 -7485.1264 303.8641 -9266.1407 -7508.4188 303.3075 10.5929 57.9834 30432.6559 56.6277 112.0329
ENERGY: 600000 0.0000 0.3941 0.0000 0.0000 -10647.1261 1420.3305 0.0000 0.0000 1742.9026 -7483.4989 297.3618 -9226.4015 -7505.9476 302.1400 -312.6954 -253.7420 30961.4882 43.2700 89.4344
ENERGY: 900000 0.0000 0.1380 0.0000 0.0000 -10740.2543 1472.5614 0.0000 0.0000 1746.6625 -7520.8924 298.0032 -9267.5550 -7514.3111 301.5828 140.1854 194.5585 30423.8916 -90.9084 -45.9777
ENERGY: 1200000 0.0000 0.0890 0.0000 0.0000 -10790.7684 1470.5497 0.0000 0.0000 1759.2311 -7560.8986 300.1476 -9320.1297 -7517.1334 301.4360 201.2780 273.7803 30169.0711 -89.8339 -33.3749
ENERGY: 1500000 0.0000 0.0166 0.0000 0.0000 -10564.2390 1368.7191 0.0000 0.0000 1764.2762 -7431.2271 301.0084 -9195.5033 -7509.5116 301.9500 -388.5042 -317.8139 30544.7363 -34.9007 23.8761
TCL: Running FEP window  17: Lambda1 0.8000000000000002 Lambda2 0.8500000000000002 [dLambda 0.050000000000000044]
TCL: Setting parameter firsttimestep to 0
TCL: Setting parameter alchLambda to 0.8000000000000002
Info: NONBONDED TABLE R-SQUARED SPACING: 0.0625
Info: NONBONDED TABLE SIZE: 705 POINTS
TCL: Setting parameter alchLambda2 to 0.8500000000000002
Info: NONBONDED TABLE R-SQUARED SPACING: 0.0625
Info: NONBONDED TABLE SIZE: 705 POINTS
TCL: Running for 1500000 steps
ETITLE: TS BOND ANGLE DIHED IMPRP ELECT VDW BOUNDARY MISC KINETIC TOTAL TEMP POTENTIAL TOTALAVG TEMPAVG PRESSURE GPRESSURE VOLUME PRESSAVG GPRESSAVG
ENERGY: 0 0.0000 0.0166 0.0000 0.0000 -10564.8214 1369.1489 0.0000 0.0000 1763.3866 -7432.2693 300.8566 -9195.6560 -7432.2693 300.8566 -387.4954 -312.0243 30544.7363 -387.4954 -312.0243
ENERGY: 300000 0.0000 0.0115 0.0000 0.0000 -10781.4328 1483.2100 0.0000 0.0000 1714.2539 -7583.9574 292.4739 -9298.2113 -7531.5782 297.4597 317.6199 425.6953 30227.2877 112.6381 204.2760
ENERGY: 600000 0.0000 0.0387 0.0000 0.0000 -10724.9456 1364.0252 0.0000 0.0000 1735.7543 -7625.1274 296.1422 -9360.8817 -7539.5704 296.8080 -1104.4348 -1051.3672 30758.9842 -93.0000 -22.4826
ENERGY: 900000 0.0000 0.2046 0.0000 0.0000 -10834.1119 1543.0682 0.0000 0.0000 1735.5213 -7555.3179 296.1024 -9290.8392 -7535.9189 297.3632 790.0630 841.6107 30145.0224 38.5858 105.8152
ENERGY: 1200000 0.0000 2.2552 0.0000 0.0000 -10803.8269 1466.9452 0.0000 0.0000 1727.0069 -7607.6195 294.6497 -9334.6264 -7545.6338 297.6124 34.9498 141.6953 30019.2819 -19.6955 47.6670
ENERGY: 1500000 0.0000 0.1315 0.0000 0.0000 -10726.8477 1419.8811 0.0000 0.0000 1765.0058 -7541.8293 301.1328 -9306.8351 -7537.0968 298.6605 -574.3291 -499.9633 30916.1226 -22.9881 44.6042
TCL: Running FEP window  18: Lambda1 0.8500000000000002 Lambda2 0.9000000000000002 [dLambda 0.050000000000000044]
TCL: Setting parameter firsttimestep to 0
TCL: Setting parameter alchLambda to 0.8500000000000002
Info: NONBONDED TABLE R-SQUARED SPACING: 0.0625
Info: NONBONDED TABLE SIZE: 705 POINTS
TCL: Setting parameter alchLambda2 to 0.9000000000000002
Info: NONBONDED TABLE R-SQUARED SPACING: 0.0625
Info: NONBONDED TABLE SIZE: 705 POINTS
TCL: Running for 1500000 steps
ETITLE: TS BOND ANGLE DIHED IMPRP ELECT VDW BOUNDARY MISC KINETIC TOTAL TEMP POTENTIAL TOTALAVG TEMPAVG PRESSURE GPRESSURE VOLUME PRESSAVG GPRESSAVG
ENERGY: 0 0.0000 0.1315 0.0000 0.0000 -10728.3765 1421.6855 0.0000 0.0000 1764.1209 -7542.4386 300.9819 -9306.5595 -7542.4386 300.9819 -570.9632 -480.4725 30916.1226 -570.9632 -480.4725
ENERGY: 300000 0.0000 0.5321 0.0000 0.0000 -10717.4697 1424.7643 0.0000 0.0000 1762.5145 -7529.6587 300.7078 -9292.1733 -7535.0823 300.5029 54.0955 50.3632 29941.3019 -202.8460 -146.7142
ENERGY: 600000 0.0000 0.1158 0.0000 0.0000 -10720.0348 1459.9790 0.0000 0.0000 1753.8283 -7506.1117 299.2258 -9259.9401 -7519.7446 302.4680 365.9029 387.5576 30206.5488 97.4870 155.4217
ENERGY: 900000 0.0000 0.0043 0.0000 0.0000 -10695.3016 1489.2822 0.0000 0.0000 1769.8218 -7436.1933 301.9545 -9206.0151 -7523.6096 302.5825 431.0439 465.3987 30866.2752 115.7778 167.3717
ENERGY: 1200000 0.0000 0.0135 0.0000 0.0000 -10773.6840 1499.8052 0.0000 0.0000 1751.1672 -7522.6982 298.7718 -9273.8654 -7521.9468 302.3356 518.6158 580.1908 30285.8836 202.9658 252.0962
ENERGY: 1500000 0.0000 0.2381 0.0000 0.0000 -10769.0150 1478.8579 0.0000 0.0000 1744.6425 -7545.2764 297.6586 -9289.9189 -7517.9872 303.0951 413.9493 473.9421 29965.6995 194.7981 241.9403
TCL: Running FEP window  19: Lambda1 0.9000000000000002 Lambda2 0.9500000000000003 [dLambda 0.050000000000000044]
TCL: Setting parameter firsttimestep to 0
TCL: Setting parameter alchLambda to 0.9000000000000002
Info: NONBONDED TABLE R-SQUARED SPACING: 0.0625
Info: NONBONDED TABLE SIZE: 705 POINTS
TCL: Setting parameter alchLambda2 to 0.9500000000000003
Info: NONBONDED TABLE R-SQUARED SPACING: 0.0625
Info: NONBONDED TABLE SIZE: 705 POINTS
TCL: Running for 1500000 steps
ETITLE: TS BOND ANGLE DIHED IMPRP ELECT VDW BOUNDARY MISC KINETIC TOTAL TEMP POTENTIAL TOTALAVG TEMPAVG PRESSURE GPRESSURE VOLUME PRESSAVG GPRESSAVG
ENERGY: 0 0.0000 0.2381 0.0000 0.0000 -10769.1763 1479.1233 0.0000 0.0000 1743.7881 -7546.0269 297.5128 -9289.8150 -7546.0269 297.5128 384.8764 477.0382 29965.6995 384.8764 477.0382
ENERGY: 300000 0.0000 0.0469 0.0000 0.0000 -10682.2651 1376.6142 0.0000 0.0000 1732.2359 -7573.3681 295.5419 -9305.6040 -7561.2482 297.5175 -678.6460 -607.6264 30380.1394 -277.6462 -201.9183
ENERGY: 600000 0.0000 0.5203 0.0000 0.0000 -10913.1270 1569.9876 0.0000 0.0000 1762.6511 -7579.9680 300.7311 -9342.6191 -7552.4245 297.1771 846.5151 938.6807 30186.7417 74.7013 139.8245
ENERGY: 900000 0.0000 0.0010 0.0000 0.0000 -10953.2169 1618.5288 0.0000 0.0000 1765.5473 -7569.1398 301.2252 -9334.6871 -7550.2321 297.6804 1349.0027 1371.5408 30141.4407 125.4545 191.9314
ENERGY: 1200000 0.0000 0.3786 0.0000 0.0000 -10674.9111 1387.1056 0.0000 0.0000 1714.6788 -7572.7481 292.5464 -9287.4269 -7543.8318 297.5535 -728.6144 -668.1920 30822.0136 53.6140 116.3372
ENERGY: 1500000 0.0000 0.9561 0.0000 0.0000 -10736.5626 1470.3416 0.0000 0.0000 1763.3917 -7501.8732 300.8575 -9265.2649 -7536.0906 298.2311 469.7638 552.0566 29971.6986 131.5048 191.9522
TCL: Running FEP window  20: Lambda1 0.9500000000000003 Lambda2 1.0    [dLambda 0.04999999999999971]
TCL: Setting parameter firsttimestep to 0
TCL: Setting parameter alchLambda to 0.9500000000000003
Info: NONBONDED TABLE R-SQUARED SPACING: 0.0625
Info: NONBONDED TABLE SIZE: 705 POINTS
TCL: Setting parameter alchLambda2 to 1.0
Info: NONBONDED TABLE R-SQUARED SPACING: 0.0625
Info: NONBONDED TABLE SIZE: 705 POINTS
TCL: Running for 1500000 steps
ETITLE: TS BOND ANGLE DIHED IMPRP ELECT VDW BOUNDARY MISC KINETIC TOTAL TEMP POTENTIAL TOTALAVG TEMPAVG PRESSURE GPRESSURE VOLUME PRESSAVG GPRESSAVG
ENERGY: 0 0.0000 0.9561 0.0000 0.0000 -10737.6163 1470.4857 0.0000 0.0000 1762.4862 -7503.6883 300.7030 -9266.1745 -7503.6883 300.7030 467.8567 556.3963 29971.6986 467.8567 556.3963
ENERGY: 300000 0.0000 0.0058 0.0000 0.0000 -10666.8299 1408.7556 0.0000 0.0000 1776.4308 -7481.6378 303.0821 -9258.0686 -7515.6114 297.8380 -180.5017 -46.1292 30304.5371 88.2965 193.6842
ENERGY: 600000 0.0000 0.4081 0.0000 0.0000 -10537.8945 1345.2848 0.0000 0.0000 1818.4140 -7373.7876 310.2450 -9192.2016 -7497.8885 299.2946 -571.4794 -510.4476 30575.0298 -170.2781 -88.7713
ENERGY: 900000 0.0000 0.0025 0.0000 0.0000 -10691.4367 1448.5127 0.0000 0.0000 1779.1113 -7463.8101 303.5394 -9242.9214 -7507.7501 298.5319 53.2388 171.1707 30414.6929 -97.4031 -6.9879
ENERGY: 1200000 0.0000 0.0469 0.0000 0.0000 -10705.2215 1425.2776 0.0000 0.0000 1759.2657 -7520.6313 300.1535 -9279.8970 -7517.9486 299.0063 -507.4385 -433.0395 31173.3690 -79.0241 8.5678
ENERGY: 1500000 0.0000 0.0046 0.0000 0.0000 -10719.6047 1444.5045 0.0000 0.0000 1750.1898 -7524.9059 298.6050 -9275.0957 -7521.6033 299.1682 -31.1540 46.5323 30306.6401 -114.4056 -36.6516
TCL: Exiting due to exit command.
