Info: SIMULATION PARAMETERS:
Info: TIMESTEP               2
Info: NUMBER OF STEPS        0
Info: STEPS PER CYCLE        10
Info: PERIODIC CELL BASIS 1  31.863 0 0
Info: PERIODIC CELL BASIS 2  0 31.0989 0
Info: PERIODIC CELL BASIS 3  0 0 30.6791
Info: PERIODIC CELL CENTER   0 0 0
Info: WRAPPING WATERS AROUND PERIODIC BOUNDARIES ON OUTPUT.
Info: WRAPPING ALL CLUSTERS AROUND PERIODIC BOUNDARIES ON OUTPUT.
Info: FIRST LDB TIMESTEP     50
Info: LAST LDB TIMESTEP     -1
Info: HOM BACKGROUND SCALING 1
Info: PME BACKGROUND SCALING 1
Info: MIN ATOMS PER PATCH    40
Info: EMPTY PATCH LOAD       40 ATOMS
Info: VELOCITY FILE          mobley_7261305_equil.vel
Info: CENTER OF MASS MOVING INITIALLY? NO
Info: DIELECTRIC             1
Info: EXCLUDE                SCALED ONE-FOUR
Info: 1-4 ELECTROSTATICS SCALED BY 0.833333
Info: MODIFIED 1-4 VDW PARAMETERS WILL BE USED
Info: DCD FILENAME           mobley_7261305_prod.dcd
Info: DCD FREQUENCY          100000
Info: DCD FIRST STEP         100000
Info: DCD FILE WILL CONTAIN UNIT CELL DATA
Info: XST FILENAME           mobley_7261305_prod.xst
Info: XST FREQUENCY          100000
Info: NO VELOCITY DCD OUTPUT
Info: NO FORCE DCD OUTPUT
Info: OUTPUT FILENAME        mobley_7261305_prod
Info: BINARY OUTPUT FILES WILL BE USED
Info: RESTART FILENAME       mobley_7261305_prod.restart
Info: RESTART FREQUENCY      100000
Info: BINARY RESTART FILES WILL BE USED
Info: CUTOFF                 9
Info: PAIRLIST DISTANCE      11
Info: PAIRLIST SHRINK RATE   0.01
Info: PAIRLIST GROW RATE     0.01
Info: PAIRLIST TRIGGER       0.3
Info: PAIRLISTS PER CYCLE    2
Info: PAIRLISTS ENABLED
Info: MARGIN                 2
Info: HYDROGEN GROUP CUTOFF  2.5
Info: PATCH DIMENSION        15.5
Info: ENERGY OUTPUT STEPS    100000
Info: ENERGY EVALUATION STEPS    100000
Info: OUTPUT ENERGY PRECISION 4
Info: CROSSTERM ENERGY INCLUDED IN DIHEDRAL
Info: TIMING OUTPUT STEPS    1000000
Info: PRESSURE OUTPUT STEPS  100000
Info: ALCHEMICAL FEP ON
Info: FEP CURRENT LAMBDA VALUE     0
Info: FEP COMPARISON LAMBDA VALUE  0.05
Info: FEP INTRA-ALCHEMICAL NON-BONDED INTERACTIONS WILL BE RETAINED
Info: FEP INTRA-ALCHEMICAL BONDED INTERACTIONS WILL BE RETAINED
Info: FEP VDW SHIFTING COEFFICIENT 5
Info: FEP ELEC. ACTIVE FOR ANNIHILATED PARTICLES BETWEEN LAMBDA = 0 AND LAMBDA = 0.5
Info: FEP ELEC. ACTIVE FOR EXNIHILATED PARTICLES BETWEEN LAMBDA = 0.5 AND LAMBDA = 1
Info: FEP VDW ACTIVE FOR ANNIHILATED PARTICLES BETWEEN LAMBDA = 0 AND LAMBDA = 1
Info: FEP VDW ACTIVE FOR EXNIHILATED PARTICLES BETWEEN LAMBDA = 0 AND LAMBDA = 1
Info: FEP BOND ACTIVE FOR ANNIHILATED PARTICLES BETWEEN LAMBDA = 1 AND LAMBDA = 1
Info: FEP BOND ACTIVE FOR EXNIHILATED PARTICLES BETWEEN LAMBDA = 0 AND LAMBDA = 0
Info: LANGEVIN DYNAMICS ACTIVE
Info: LANGEVIN TEMPERATURE   300
Info: LANGEVIN USING BBK INTEGRATOR
Info: LANGEVIN DAMPING COEFFICIENT IS 1 INVERSE PS
Info: LANGEVIN DYNAMICS APPLIED TO HYDROGENS
Info: LANGEVIN PISTON PRESSURE CONTROL ACTIVE
Info:        TARGET PRESSURE IS 1.01325 BAR
Info:     OSCILLATION PERIOD IS 50 FS
Info:             DECAY TIME IS 25 FS
Info:     PISTON TEMPERATURE IS 300 K
Info:       PRESSURE CONTROL IS GROUP-BASED
Info:    INITIAL STRAIN RATE IS 0.000672806 0.000672806 0.000672806
Info:       CELL FLUCTUATION IS ISOTROPIC
Info: PARTICLE MESH EWALD (PME) ACTIVE
Info: PME TOLERANCE               1e-06
Info: PME EWALD COEFFICIENT       0.348832
Info: PME INTERPOLATION ORDER     4
Info: PME GRID DIMENSIONS         32 32 32
Info: PME MAXIMUM GRID SPACING    1
Info: PME CALCULATION WILL BE PERFORMED ON GPU
Info: FULL ELECTROSTATIC EVALUATION FREQUENCY      2
Info: USING VERLET I (r-RESPA) MTS SCHEME.
Info: C1 SPLITTING OF LONG RANGE ELECTROSTATICS
Info: PLACING ATOMS IN PATCHES BY HYDROGEN GROUPS
Info: RIGID BONDS TO HYDROGEN : ALL
Info:         ERROR TOLERANCE : 1e-08
Info:          MAX ITERATIONS : 100
Info: RIGID WATER USING SETTLE ALGORITHM
Info: RANDOM NUMBER SEED     1743471223
Info: USE HYDROGEN BONDS?    NO
Info: Using AMBER format force field!
Info: AMBER PARM FILE        mobley_7261305.prmtop
Info: COORDINATE PDB         mobley_7261305.pdb
Info: Exclusions will be read from PARM file!
Info: SCNB (VDW SCALING)     2
Info: USING ARITHMETIC MEAN TO COMBINE L-J SIGMA PARAMETERS
Info: BINARY COORDINATES     mobley_7261305_equil.coor
Info: SUMMARY OF PARAMETERS:
Info: 4 BONDS
Info: 2 ANGLES
Info:   2 HARMONIC
Info:   0 COSINE-BASED
Info: 1 DIHEDRAL
Info: 0 IMPROPER
Info: 0 CROSSTERM
Info: 0 VDW
Info: 10 VDW_PAIRS
Info: 0 NBTHOLE_PAIRS
Info: To read alchdata from file: mobley_7261305.pdb
Info: To read alchflag data from column: 5
Info: STRUCTURE SUMMARY:
Info: 2970 ATOMS
Info: 2969 BONDS
Info: 6 ANGLES
Info: 4 DIHEDRALS
Info: 0 IMPROPERS
Info: 0 CROSSTERMS
Info: 2979 EXCLUSIONS
Info: 2968 RIGID BONDS
Info: ALCH: 0 ATOMS TO DISAPPEAR IN FINAL STATE
Info: ALCH: 6 ATOMS TO APPEAR IN FINAL STATE
Info: 5942 DEGREES OF FREEDOM
Info: 990 HYDROGEN GROUPS
Info: 3 ATOMS IN LARGEST HYDROGEN GROUP
Info: 990 MIGRATION GROUPS
Info: 3 ATOMS IN LARGEST MIGRATION GROUP
Info: TOTAL MASS = 17831.9 amu
Info: TOTAL CHARGE = -0.000200033 e
Info: MASS DENSITY = 0.974048 g/cm^3
Info: ATOM DENSITY = 0.097697 atoms/A^3
Info: ADDED 0 IMPLICIT EXCLUSIONS
Info: NONBONDED TABLE R-SQUARED SPACING: 0.0625
Info: NONBONDED TABLE SIZE: 705 POINTS
Info: REDUCING NUMBER OF PATCHES TO IMPROVE LOAD BALANCE
Info: REMOVING COM VELOCITY 0.112775 0.15316 0.167573
Info: Use 3D box decompostion in PME FFT.
Info: Updated CUDA force table with 4096 elements.
Info: Updated CUDA LJ table with 4 x 4 elements.
Info: Found 9 unique exclusion lists needing 12 bytes
TCL: Running for 1500000 steps
ETITLE: TS BOND ANGLE DIHED IMPRP ELECT VDW BOUNDARY MISC KINETIC TOTAL TEMP POTENTIAL TOTALAVG TEMPAVG PRESSURE GPRESSURE VOLUME PRESSAVG GPRESSAVG
ENERGY: 0 2.5299 1.1394 7.9022 0.0000 -10843.4199 1571.9749 0.0000 0.0000 1767.1226 -7492.7508 299.3122 -9259.8734 -7492.7508 299.3122 919.9156 1007.0831 30400.1220 919.9156 1007.0831
ENERGY: 300000 0.3341 9.4053 3.6946 0.0000 -10610.7582 1488.2207 0.0000 0.0000 1783.5378 -7325.5656 302.0926 -9109.1035 -7441.9816 298.9459 958.3050 936.1608 30378.0401 289.2400 344.1353
ENERGY: 600000 0.0106 7.4543 4.3217 0.0000 -10686.4924 1467.6141 0.0000 0.0000 1793.6824 -7413.4094 303.8108 -9207.0918 -7474.7882 297.6397 -4.2311 115.3359 30900.0185 156.2048 211.3445
ENERGY: 900000 0.4963 8.5556 4.9405 0.0000 -10712.7140 1375.6836 0.0000 0.0000 1733.3704 -7589.6676 293.5953 -9323.0381 -7491.1899 298.3000 -698.4719 -589.5149 30267.2495 55.3726 123.2144
ENERGY: 1200000 0.5594 9.1474 5.6532 0.0000 -10540.5106 1385.4576 0.0000 0.0000 1767.1600 -7372.5330 299.3185 -9139.6930 -7498.4517 298.7592 9.3746 17.8599 30357.5449 9.0311 67.7851
ENERGY: 1500000 0.1292 9.3389 3.4397 0.0000 -10825.7933 1475.5976 0.0000 0.0000 1743.6598 -7593.6281 295.3381 -9337.2879 -7503.6924 299.6918 -100.6850 -70.9907 30685.5766 -26.9054 29.3730
TCL: Running FEP window   2: Lambda1 0.05   Lambda2 0.1    [dLambda 0.05  ]
TCL: Setting parameter firsttimestep to 0
TCL: Setting parameter alchLambda to 0.05
Info: NONBONDED TABLE R-SQUARED SPACING: 0.0625
Info: NONBONDED TABLE SIZE: 705 POINTS
TCL: Setting parameter alchLambda2 to 0.1
Info: NONBONDED TABLE R-SQUARED SPACING: 0.0625
Info: NONBONDED TABLE SIZE: 705 POINTS
TCL: Running for 1500000 steps
ETITLE: TS BOND ANGLE DIHED IMPRP ELECT VDW BOUNDARY MISC KINETIC TOTAL TEMP POTENTIAL TOTALAVG TEMPAVG PRESSURE GPRESSURE VOLUME PRESSAVG GPRESSAVG
ENERGY: 0 0.1292 9.3389 3.4397 0.0000 -10825.7931 1476.0383 0.0000 0.0000 1742.7655 -7594.0814 295.1866 -9336.8470 -7594.0814 295.1866 -153.4886 -68.8560 30685.5766 -153.4886 -68.8560
ENERGY: 300000 0.2864 7.0502 5.3433 0.0000 -10704.2147 1515.1898 0.0000 0.0000 1723.6063 -7452.7387 291.9415 -9176.3449 -7464.8505 298.6123 630.2770 729.2063 30853.1943 121.6756 189.6975
ENERGY: 600000 0.0640 7.3892 4.9889 0.0000 -10757.7515 1481.1503 0.0000 0.0000 1783.6164 -7480.5428 302.1059 -9264.1592 -7480.0131 297.6367 267.9117 311.2415 30349.3360 167.9165 231.5010
ENERGY: 900000 0.0051 6.1439 4.5366 0.0000 -10693.4187 1470.3264 0.0000 0.0000 1753.4099 -7458.9969 296.9896 -9212.4067 -7490.4349 297.3409 516.0258 593.7301 30123.1270 157.5200 225.3058
ENERGY: 1200000 0.3928 4.1204 5.8138 0.0000 -10681.7525 1463.3605 0.0000 0.0000 1740.4560 -7467.6090 294.7955 -9208.0651 -7473.8775 298.6989 120.7739 303.6058 30706.6681 136.8059 216.2981
ENERGY: 1500000 0.7325 4.2738 5.6798 0.0000 -10761.0625 1461.7807 0.0000 0.0000 1754.7044 -7533.8913 297.2088 -9288.5958 -7474.9230 299.0481 -241.0343 -141.1810 30797.4495 110.9923 186.0847
TCL: Running FEP window   3: Lambda1 0.1    Lambda2 0.15000000000000002 [dLambda 0.05000000000000002]
TCL: Setting parameter firsttimestep to 0
TCL: Setting parameter alchLambda to 0.1
Info: NONBONDED TABLE R-SQUARED SPACING: 0.0625
Info: NONBONDED TABLE SIZE: 705 POINTS
TCL: Setting parameter alchLambda2 to 0.15000000000000002
Info: NONBONDED TABLE R-SQUARED SPACING: 0.0625
Info: NONBONDED TABLE SIZE: 705 POINTS
TCL: Running for 1500000 steps
ETITLE: TS BOND ANGLE DIHED IMPRP ELECT VDW BOUNDARY MISC KINETIC TOTAL TEMP POTENTIAL TOTALAVG TEMPAVG PRESSURE GPRESSURE VOLUME PRESSAVG GPRESSAVG
ENERGY: 0 0.7325 4.2738 5.6798 0.0000 -10761.0625 1462.6312 0.0000 0.0000 1753.8135 -7533.9317 297.0579 -9287.7452 -7533.9317 297.0579 -237.1375 -141.0338 30797.4495 -237.1375 -141.0338
ENERGY: 300000 0.2443 3.7303 7.1600 0.0000 -10747.9302 1455.2602 0.0000 0.0000 1737.7667 -7543.7688 294.3399 -9281.5354 -7546.0019 295.4208 -6.2076 64.5848 30344.6788 -87.9247 -23.4925
ENERGY: 600000 1.0320 2.0942 6.4352 0.0000 -10817.2210 1506.4059 0.0000 0.0000 1781.5139 -7519.7397 301.7498 -9301.2536 -7522.9370 298.7214 28.0207 139.0167 30924.4278 -107.5485 -16.5886
ENERGY: 900000 0.0194 2.4463 6.7628 0.0000 -10694.0786 1373.2923 0.0000 0.0000 1814.2605 -7497.2972 307.2963 -9311.5578 -7522.1975 298.2530 -729.3751 -728.0586 30769.1855 -213.5153 -142.2949
ENERGY: 1200000 0.0014 10.3754 3.8728 0.0000 -10752.5603 1400.2369 0.0000 0.0000 1713.5046 -7624.5691 290.2305 -9338.0738 -7531.0467 297.2790 -446.1516 -416.7578 30313.9829 -127.8365 -57.3434
ENERGY: 1500000 0.0115 2.9552 6.5963 0.0000 -10722.7246 1455.1708 0.0000 0.0000 1817.6935 -7440.2974 307.8778 -9257.9908 -7519.0675 299.2306 -129.2867 -52.9256 30818.3783 -109.1182 -38.1594
TCL: Running FEP window   4: Lambda1 0.15000000000000002 Lambda2 0.2    [dLambda 0.04999999999999999]
TCL: Setting parameter firsttimestep to 0
TCL: Setting parameter alchLambda to 0.15000000000000002
Info: NONBONDED TABLE R-SQUARED SPACING: 0.0625
Info: NONBONDED TABLE SIZE: 705 POINTS
TCL: Setting parameter alchLambda2 to 0.2
Info: NONBONDED TABLE R-SQUARED SPACING: 0.0625
Info: NONBONDED TABLE SIZE: 705 POINTS
TCL: Running for 1500000 steps
ETITLE: TS BOND ANGLE DIHED IMPRP ELECT VDW BOUNDARY MISC KINETIC TOTAL TEMP POTENTIAL TOTALAVG TEMPAVG PRESSURE GPRESSURE VOLUME PRESSAVG GPRESSAVG
ENERGY: 0 0.0115 2.9552 6.5963 0.0000 -10722.7243 1455.5545 0.0000 0.0000 1816.8407 -7440.7661 307.7334 -9257.6068 -7440.7661 307.7334 -130.3335 -46.4119 30818.3783 -130.3335 -46.4119
ENERGY: 300000 0.0490 4.7787 5.9588 0.0000 -10603.7144 1360.1556 0.0000 0.0000 1870.6611 -7362.1112 316.8494 -9232.7724 -7513.6606 301.4899 -442.0335 -340.2715 30512.0271 -385.0709 -325.7960
ENERGY: 600000 0.2567 7.0338 5.5801 0.0000 -10738.9065 1431.7313 0.0000 0.0000 1781.6976 -7512.6070 301.7809 -9294.3046 -7479.9068 302.1741 -124.6963 -80.9525 30575.7217 -134.5730 -70.2070
ENERGY: 900000 1.9153 9.3113 2.9659 0.0000 -10822.2197 1482.2669 0.0000 0.0000 1706.9928 -7618.7676 289.1275 -9325.7603 -7490.8383 300.4095 -140.0907 -102.0732 30890.3767 -44.9650 18.0330
ENERGY: 1200000 2.3834 2.2549 6.3219 0.0000 -10855.9705 1506.0948 0.0000 0.0000 1802.6991 -7536.2165 305.3381 -9338.9155 -7491.9288 300.9139 526.0282 531.8680 30146.6097 7.4708 73.1658
ENERGY: 1500000 0.1387 2.1745 6.9767 0.0000 -10712.5795 1444.4183 0.0000 0.0000 1754.9963 -7503.8751 297.2583 -9258.8714 -7491.7090 301.2135 -68.3274 -31.2515 30906.1632 0.6495 61.3753
TCL: Running FEP window   5: Lambda1 0.2    Lambda2 0.25   [dLambda 0.04999999999999999]
TCL: Setting parameter firsttimestep to 0
TCL: Setting parameter alchLambda to 0.2
Info: NONBONDED TABLE R-SQUARED SPACING: 0.0625
Info: NONBONDED TABLE SIZE: 705 POINTS
TCL: Setting parameter alchLambda2 to 0.25
Info: NONBONDED TABLE R-SQUARED SPACING: 0.0625
Info: NONBONDED TABLE SIZE: 705 POINTS
TCL: Running for 1500000 steps
ETITLE: TS BOND ANGLE DIHED IMPRP ELECT VDW BOUNDARY MISC KINETIC TOTAL TEMP POTENTIAL TOTALAVG TEMPAVG PRESSURE GPRESSURE VOLUME PRESSAVG GPRESSAVG
ENERGY: 0 0.1387 2.1745 6.9767 0.0000 -10712.5801 1444.2505 0.0000 0.0000 1754.0879 -7504.9518 297.1044 -9259.0397 -7504.9518 297.1044 -108.7403 -31.6085 30906.1632 -108.7403 -31.6085
ENERGY: 300000 0.5778 1.6638 8.6288 0.0000 -11107.4039 1653.5687 0.0000 0.0000 1780.9998 -7661.9649 301.6627 -9442.9648 -7578.2578 299.6954 1289.2589 1287.7028 29971.3478 368.9707 419.2288
ENERGY: 600000 0.3177 3.4156 6.1754 0.0000 -10686.5727 1466.1438 0.0000 0.0000 1802.7578 -7407.7623 305.3480 -9210.5201 -7539.0578 302.1960 163.6428 238.5215 31070.3805 255.5476 318.0461
ENERGY: 900000 0.2749 6.4239 6.0294 0.0000 -10856.1172 1542.1573 0.0000 0.0000 1775.5543 -7525.6774 300.7403 -9301.2317 -7530.5259 302.2410 653.7339 726.2193 30490.8146 319.5879 380.2664
ENERGY: 1200000 0.0483 3.4266 6.4784 0.0000 -10777.2577 1501.0005 0.0000 0.0000 1812.2439 -7454.0601 306.9548 -9266.3039 -7517.2593 302.7525 360.5422 435.3516 30722.2095 214.2638 281.1240
ENERGY: 1500000 0.0667 1.7506 8.2927 0.0000 -10643.1506 1297.4275 0.0000 0.0000 1741.1825 -7594.4307 294.9185 -9335.6132 -7525.3383 301.4826 -1265.7471 -1156.5223 30501.2694 105.4780 176.2068
TCL: Running FEP window   6: Lambda1 0.25   Lambda2 0.3    [dLambda 0.04999999999999999]
TCL: Setting parameter firsttimestep to 0
TCL: Setting parameter alchLambda to 0.25
Info: NONBONDED TABLE R-SQUARED SPACING: 0.0625
Info: NONBONDED TABLE SIZE: 705 POINTS
TCL: Setting parameter alchLambda2 to 0.3
Info: NONBONDED TABLE R-SQUARED SPACING: 0.0625
Info: NONBONDED TABLE SIZE: 705 POINTS
TCL: Running for 1500000 steps
ETITLE: TS BOND ANGLE DIHED IMPRP ELECT VDW BOUNDARY MISC KINETIC TOTAL TEMP POTENTIAL TOTALAVG TEMPAVG PRESSURE GPRESSURE VOLUME PRESSAVG GPRESSAVG
ENERGY: 0 0.0667 1.7506 8.2927 0.0000 -10643.1508 1297.2379 0.0000 0.0000 1740.3077 -7595.4952 294.7703 -9335.8029 -7595.4952 294.7703 -1251.4858 -1158.0453 30501.2694 -1251.4858 -1158.0453
ENERGY: 300000 0.3199 3.4074 6.6908 0.0000 -10735.8619 1394.3115 0.0000 0.0000 1784.1446 -7546.9877 302.1954 -9331.1324 -7523.2337 300.5302 -733.8926 -660.5888 30674.8071 -586.2138 -520.3116
ENERGY: 600000 0.8762 11.3231 4.5238 0.0000 -10660.0861 1452.1474 0.0000 0.0000 1754.6142 -7436.6014 297.1935 -9191.2156 -7516.1906 299.3140 -91.7928 9.1848 30977.8311 -399.3613 -322.1477
ENERGY: 900000 0.0091 7.8436 3.7748 0.0000 -10752.2028 1477.5494 0.0000 0.0000 1710.0669 -7552.9590 289.6482 -9263.0259 -7512.3243 299.1543 595.5552 656.6633 29891.0008 -228.9933 -152.2055
ENERGY: 1200000 0.7458 13.6071 1.2545 0.0000 -10651.2672 1380.1095 0.0000 0.0000 1810.5289 -7445.0213 306.6643 -9255.5502 -7505.3392 300.0420 -829.0170 -728.9682 31189.8884 -220.1612 -141.5841
ENERGY: 1500000 0.0107 1.5940 8.1614 0.0000 -10830.8101 1514.1978 0.0000 0.0000 1764.3631 -7542.4830 298.8448 -9306.8460 -7513.6341 299.7983 362.3382 357.4420 30516.8364 -238.5571 -168.0081
TCL: Running FEP window   7: Lambda1 0.3    Lambda2 0.35   [dLambda 0.04999999999999999]
TCL: Setting parameter firsttimestep to 0
TCL: Setting parameter alchLambda to 0.3
Info: NONBONDED TABLE R-SQUARED SPACING: 0.0625
Info: NONBONDED TABLE SIZE: 705 POINTS
TCL: Setting parameter alchLambda2 to 0.35
Info: NONBONDED TABLE R-SQUARED SPACING: 0.0625
Info: NONBONDED TABLE SIZE: 705 POINTS
TCL: Running for 1500000 steps
ETITLE: TS BOND ANGLE DIHED IMPRP ELECT VDW BOUNDARY MISC KINETIC TOTAL TEMP POTENTIAL TOTALAVG TEMPAVG PRESSURE GPRESSURE VOLUME PRESSAVG GPRESSAVG
ENERGY: 0 0.0107 1.5940 8.1614 0.0000 -10830.8097 1514.4878 0.0000 0.0000 1763.4593 -7543.0964 298.6917 -9306.5557 -7543.0964 298.6917 282.7852 360.9820 30516.8364 282.7852 360.9820
ENERGY: 300000 0.0004 2.6098 6.8719 0.0000 -10707.1460 1448.2421 0.0000 0.0000 1792.6627 -7456.7590 303.6381 -9249.4217 -7511.8146 301.7081 502.0367 504.8239 29789.1848 467.3125 524.4106
ENERGY: 600000 0.6931 3.2371 6.0772 0.0000 -10673.5622 1404.9840 0.0000 0.0000 1816.1832 -7442.3876 307.6220 -9258.5708 -7494.8118 303.0677 -444.1965 -470.6394 30752.6707 135.1124 181.4580
ENERGY: 900000 1.2404 4.1798 6.7018 0.0000 -10726.4747 1422.7760 0.0000 0.0000 1761.7274 -7529.8494 298.3984 -9291.5768 -7502.8089 301.4532 -314.1514 -260.7972 30465.7208 63.8275 114.7739
ENERGY: 1200000 0.3632 1.6204 6.9137 0.0000 -10786.9031 1494.5567 0.0000 0.0000 1770.3752 -7513.0738 299.8631 -9283.4490 -7509.2440 301.6046 50.5744 153.0303 30739.5398 77.7842 130.8678
ENERGY: 1500000 0.2006 3.6397 5.8149 0.0000 -10833.7606 1532.6649 0.0000 0.0000 1786.7625 -7504.6780 302.6388 -9291.4405 -7520.7092 301.7490 548.3767 598.4101 30491.7335 108.2275 160.8990
TCL: Running FEP window   8: Lambda1 0.35   Lambda2 0.39999999999999997 [dLambda 0.04999999999999999]
TCL: Setting parameter firsttimestep to 0
TCL: Setting parameter alchLambda to 0.35
Info: NONBONDED TABLE R-SQUARED SPACING: 0.0625
Info: NONBONDED TABLE SIZE: 705 POINTS
TCL: Setting parameter alchLambda2 to 0.39999999999999997
Info: NONBONDED TABLE R-SQUARED SPACING: 0.0625
Info: NONBONDED TABLE SIZE: 705 POINTS
TCL: Running for 1500000 steps
ETITLE: TS BOND ANGLE DIHED IMPRP ELECT VDW BOUNDARY MISC KINETIC TOTAL TEMP POTENTIAL TOTALAVG TEMPAVG PRESSURE GPRESSURE VOLUME PRESSAVG GPRESSAVG
ENERGY: 0 0.2006 3.6397 5.8149 0.0000 -10833.7618 1532.8058 0.0000 0.0000 1785.8809 -7505.4199 302.4894 -9291.3008 -7505.4199 302.4894 513.0014 598.8893 30491.7335 513.0014 598.8893
ENERGY: 300000 0.0150 3.8809 6.4059 0.0000 -10653.8877 1443.5923 0.0000 0.0000 1837.5139 -7362.4797 311.2350 -9199.9936 -7452.3567 302.1229 225.0666 319.9494 30500.7282 251.4226 342.0099
ENERGY: 600000 2.3553 1.6948 7.1160 0.0000 -10742.2888 1383.2647 0.0000 0.0000 1735.4730 -7612.3850 293.9514 -9347.8580 -7470.1728 302.8902 -1024.9703 -942.3442 30842.1902 290.6846 364.1795
ENERGY: 900000 0.0056 8.4980 3.9239 0.0000 -10857.5990 1498.1524 0.0000 0.0000 1744.0240 -7602.9952 295.3998 -9347.0191 -7502.2767 300.8975 332.7282 442.5539 30024.0051 349.2649 414.4278
ENERGY: 1200000 1.4503 4.5291 5.6814 0.0000 -10617.7542 1362.3272 0.0000 0.0000 1696.7849 -7546.9813 287.3985 -9243.7661 -7507.1401 299.9143 -802.2151 -746.6176 30932.4161 191.1033 254.1901
ENERGY: 1500000 0.0057 8.5101 3.7489 0.0000 -10798.9317 1515.4457 0.0000 0.0000 1835.5580 -7435.6633 310.9037 -9271.2213 -7507.7766 300.5937 628.1375 699.8136 30399.5502 95.8740 157.7368
TCL: Running FEP window   9: Lambda1 0.39999999999999997 Lambda2 0.44999999999999996 [dLambda 0.04999999999999999]
TCL: Setting parameter firsttimestep to 0
TCL: Setting parameter alchLambda to 0.39999999999999997
Info: NONBONDED TABLE R-SQUARED SPACING: 0.0625
Info: NONBONDED TABLE SIZE: 705 POINTS
TCL: Setting parameter alchLambda2 to 0.44999999999999996
Info: NONBONDED TABLE R-SQUARED SPACING: 0.0625
Info: NONBONDED TABLE SIZE: 705 POINTS
TCL: Running for 1500000 steps
ETITLE: TS BOND ANGLE DIHED IMPRP ELECT VDW BOUNDARY MISC KINETIC TOTAL TEMP POTENTIAL TOTALAVG TEMPAVG PRESSURE GPRESSURE VOLUME PRESSAVG GPRESSAVG
ENERGY: 0 0.0057 8.5101 3.7489 0.0000 -10798.9329 1515.5663 0.0000 0.0000 1834.6432 -7436.4587 310.7487 -9271.1019 -7436.4587 310.7487 622.1254 702.4134 30399.5502 622.1254 702.4134
ENERGY: 300000 0.2644 2.6850 6.0833 0.0000 -10706.5766 1406.1513 0.0000 0.0000 1769.7234 -7521.6693 299.7527 -9291.3927 -7513.2951 301.2656 -431.3833 -341.7855 30536.2604 -11.2695 46.7393
ENERGY: 600000 1.2822 5.0031 4.5948 0.0000 -10748.7603 1473.5693 0.0000 0.0000 1777.8560 -7486.4549 301.1302 -9264.3109 -7512.0207 300.4904 284.2957 380.0258 30292.5460 78.2912 152.5422
ENERGY: 900000 0.6410 5.4161 5.6043 0.0000 -10848.2523 1515.8198 0.0000 0.0000 1801.5677 -7519.2034 305.1464 -9320.7711 -7513.5535 303.5982 252.9326 316.7729 30603.1580 115.7661 190.2351
ENERGY: 1200000 0.0134 6.1726 6.8231 0.0000 -10836.6309 1516.7293 0.0000 0.0000 1782.5550 -7524.3375 301.9261 -9306.8925 -7512.2140 303.1142 438.5383 522.0760 30339.0936 145.3190 222.7254
ENERGY: 1500000 0.0245 7.1585 4.2974 0.0000 -10774.1725 1488.4225 0.0000 0.0000 1794.1474 -7480.1222 303.8896 -9274.2696 -7511.9132 303.2448 332.4432 380.3150 30643.5403 143.6410 216.7319
TCL: Running FEP window  10: Lambda1 0.44999999999999996 Lambda2 0.49999999999999994 [dLambda 0.04999999999999999]
TCL: Setting parameter firsttimestep to 0
TCL: Setting parameter alchLambda to 0.44999999999999996
Info: NONBONDED TABLE R-SQUARED SPACING: 0.0625
Info: NONBONDED TABLE SIZE: 705 POINTS
TCL: Setting parameter alchLambda2 to 0.49999999999999994
Info: NONBONDED TABLE R-SQUARED SPACING: 0.0625
Info: NONBONDED TABLE SIZE: 705 POINTS
TCL: Running for 1500000 steps
ETITLE: TS BOND ANGLE DIHED IMPRP ELECT VDW BOUNDARY MISC KINETIC TOTAL TEMP POTENTIAL TOTALAVG TEMPAVG PRESSURE GPRESSURE VOLUME PRESSAVG GPRESSAVG
ENERGY: 0 0.0245 7.1585 4.2974 0.0000 -10774.1730 1488.3771 0.0000 0.0000 1793.2695 -7481.0461 303.7409 -9274.3155 -7481.0461 303.7409 305.8427 382.7378 30643.5403 305.8427 382.7378
ENERGY: 300000 0.5793 1.3084 7.6996 0.0000 -10721.8035 1392.6982 0.0000 0.0000 1799.0578 -7520.4603 304.7213 -9319.5181 -7518.1478 299.1409 -567.6510 -479.6080 30354.1905 -107.9440 -54.8458
ENERGY: 600000 0.0050 3.9282 6.2440 0.0000 -10668.3828 1437.8718 0.0000 0.0000 1791.5944 -7428.7393 303.4572 -9220.3337 -7505.5566 299.9813 -99.0790 19.3397 30460.5596 -133.1791 -51.0194
ENERGY: 900000 0.1875 2.9027 8.6171 0.0000 -10691.4334 1407.6830 0.0000 0.0000 1810.7741 -7461.2690 306.7058 -9272.0431 -7495.8380 299.8962 -147.4016 -65.8397 30297.3100 -83.5436 -9.4433
ENERGY: 1200000 0.1202 5.9620 5.8091 0.0000 -10710.5018 1442.8668 0.0000 0.0000 1776.2378 -7479.5059 300.8561 -9255.7437 -7501.3084 299.8971 245.1012 304.3902 30299.6080 -131.8600 -59.8271
ENERGY: 1500000 0.2760 2.0540 6.7974 0.0000 -10738.4872 1464.0045 0.0000 0.0000 1807.0906 -7458.2647 306.0819 -9265.3553 -7500.4976 300.4410 284.7199 342.7171 30392.8185 -196.5764 -123.4454
TCL: Running FEP window  11: Lambda1 0.49999999999999994 Lambda2 0.5499999999999999 [dLambda 0.04999999999999999]
TCL: Setting parameter firsttimestep to 0
TCL: Setting parameter alchLambda to 0.49999999999999994
Info: NONBONDED TABLE R-SQUARED SPACING: 0.0625
Info: NONBONDED TABLE SIZE: 705 POINTS
TCL: Setting parameter alchLambda2 to 0.5499999999999999
Info: NONBONDED TABLE R-SQUARED SPACING: 0.0625
Info: NONBONDED TABLE SIZE: 705 POINTS
TCL: Running for 1500000 steps
ETITLE: TS BOND ANGLE DIHED IMPRP ELECT VDW BOUNDARY MISC KINETIC TOTAL TEMP POTENTIAL TOTALAVG TEMPAVG PRESSURE GPRESSURE VOLUME PRESSAVG GPRESSAVG
ENERGY: 0 0.2760 2.0540 6.7974 0.0000 -10738.4875 1463.9646 0.0000 0.0000 1806.2362 -7459.1593 305.9372 -9265.3956 -7459.1593 305.9372 256.3106 342.4614 30392.8185 256.3106 342.4614
ENERGY: 300000 0.2839 6.7589 6.5162 0.0000 -10890.3335 1525.0650 0.0000 0.0000 1800.6338 -7551.0758 304.9883 -9351.7096 -7484.9732 301.7573 465.3129 524.9147 30307.0467 -121.3712 -44.7579
ENERGY: 600000 1.5116 3.8506 5.2021 0.0000 -10790.2093 1494.7594 0.0000 0.0000 1790.2399 -7494.6458 303.2278 -9284.8857 -7504.7694 301.4574 167.7572 296.6933 30500.3693 10.9321 75.5839
ENERGY: 900000 0.2946 1.3635 6.2638 0.0000 -10701.4945 1408.9097 0.0000 0.0000 1797.3783 -7487.2846 304.4369 -9284.6629 -7509.4271 300.6010 -97.2877 -93.2315 30499.0229 -75.9846 -23.5482
ENERGY: 1200000 0.1385 2.6226 5.6728 0.0000 -10824.0987 1494.6548 0.0000 0.0000 1793.5508 -7527.4592 303.7886 -9321.0100 -7520.6603 300.4477 191.0484 223.1616 30727.2815 -71.0330 -16.4132
ENERGY: 1500000 0.3980 5.5461 4.5745 0.0000 -10757.6012 1470.7633 0.0000 0.0000 1837.3664 -7438.9530 311.2100 -9276.3194 -7518.2994 300.1719 230.9731 293.2879 30444.9440 -47.3573 9.0608
TCL: Running FEP window  12: Lambda1 0.5499999999999999 Lambda2 0.6    [dLambda 0.050000000000000044]
TCL: Setting parameter firsttimestep to 0
TCL: Setting parameter alchLambda to 0.5499999999999999
Info: NONBONDED TABLE R-SQUARED SPACING: 0.0625
Info: NONBONDED TABLE SIZE: 705 POINTS
TCL: Setting parameter alchLambda2 to 0.6
Info: NONBONDED TABLE R-SQUARED SPACING: 0.0625
Info: NONBONDED TABLE SIZE: 705 POINTS
TCL: Running for 1500000 steps
ETITLE: TS BOND ANGLE DIHED IMPRP ELECT VDW BOUNDARY MISC KINETIC TOTAL TEMP POTENTIAL TOTALAVG TEMPAVG PRESSURE GPRESSURE VOLUME PRESSAVG GPRESSAVG
ENERGY: 0 0.3980 5.5461 4.5745 0.0000 -10758.8443 1470.8438 0.0000 0.0000 1836.4715 -7441.0104 311.0584 -9277.4819 -7441.0104 311.0584 214.3255 293.8876 30444.9440 214.3255 293.8876
ENERGY: 300000 0.0747 5.5653 5.0171 0.0000 -10731.7557 1407.0395 0.0000 0.0000 1735.6379 -7578.4211 293.9794 -9314.0591 -7490.4904 299.1700 -572.6179 -560.3041 31043.3744 -532.6411 -453.8458
ENERGY: 600000 0.3010 3.7267 6.6631 0.0000 -10686.4023 1435.8014 0.0000 0.0000 1804.0523 -7435.8578 305.5673 -9239.9101 -7488.0616 301.5509 -63.1853 38.3673 30710.4539 -133.4311 -60.6955
ENERGY: 900000 0.6387 1.0063 7.5575 0.0000 -10663.1394 1369.3550 0.0000 0.0000 1754.9635 -7529.6184 297.2527 -9284.5819 -7493.2322 300.6071 -715.7811 -643.0590 30804.4076 -54.9331 13.2508
ENERGY: 1200000 0.1234 4.7314 4.7722 0.0000 -10781.8343 1416.7520 0.0000 0.0000 1793.4202 -7562.0351 303.7664 -9355.4553 -7503.7311 299.5062 -536.1831 -501.6453 30665.8293 -115.3373 -49.6117
ENERGY: 1500000 0.0014 6.3177 6.4125 0.0000 -10685.0173 1428.2874 0.0000 0.0000 1797.3182 -7446.6801 304.4267 -9243.9982 -7497.4780 300.2133 -25.7445 70.1384 30155.4130 -89.8633 -30.2738
TCL: Running FEP window  13: Lambda1 0.6    Lambda2 0.65   [dLambda 0.050000000000000044]
TCL: Setting parameter firsttimestep to 0
TCL: Setting parameter alchLambda to 0.6
Info: NONBONDED TABLE R-SQUARED SPACING: 0.0625
Info: NONBONDED TABLE SIZE: 705 POINTS
TCL: Setting parameter alchLambda2 to 0.65
Info: NONBONDED TABLE R-SQUARED SPACING: 0.0625
Info: NONBONDED TABLE SIZE: 705 POINTS
TCL: Running for 1500000 steps
ETITLE: TS BOND ANGLE DIHED IMPRP ELECT VDW BOUNDARY MISC KINETIC TOTAL TEMP POTENTIAL TOTALAVG TEMPAVG PRESSURE GPRESSURE VOLUME PRESSAVG GPRESSAVG
ENERGY: 0 0.0014 6.3177 6.4125 0.0000 -10684.9825 1428.4089 0.0000 0.0000 1796.4157 -7447.4263 304.2738 -9243.8420 -7447.4263 304.2738 -9.8067 73.2219 30155.4130 -9.8067 73.2219
ENERGY: 300000 0.8604 2.5286 8.4126 0.0000 -10831.3765 1459.2289 0.0000 0.0000 1760.9191 -7599.4269 298.2615 -9360.3460 -7472.9306 303.9989 -48.2145 1.6281 30405.5521 132.9465 183.7211
ENERGY: 600000 0.7427 9.9891 2.9192 0.0000 -10639.6420 1420.6611 0.0000 0.0000 1845.1187 -7360.2111 312.5231 -9205.3298 -7452.0578 305.2161 -134.9490 -63.7468 30914.9971 67.0420 128.1331
ENERGY: 900000 0.4555 3.5623 5.9044 0.0000 -10734.6491 1517.6223 0.0000 0.0000 1747.9612 -7459.1434 296.0667 -9207.1046 -7454.0993 303.8029 883.5535 937.9374 30258.9665 149.4461 218.1361
ENERGY: 1200000 0.0004 2.9658 9.5015 0.0000 -10640.7836 1392.7694 0.0000 0.0000 1793.2728 -7442.2738 303.7415 -9235.5466 -7456.6119 303.5270 -543.6797 -445.2193 30854.7257 -5.5919 64.3169
ENERGY: 1500000 0.0682 8.5230 4.0223 0.0000 -10615.4801 1415.6409 0.0000 0.0000 1775.2131 -7412.0125 300.6826 -9187.2256 -7466.1517 303.2520 -433.0825 -391.1840 31420.4810 -30.9526 34.3397
TCL: Running FEP window  14: Lambda1 0.65   Lambda2 0.7000000000000001 [dLambda 0.050000000000000044]
TCL: Setting parameter firsttimestep to 0
TCL: Setting parameter alchLambda to 0.65
Info: NONBONDED TABLE R-SQUARED SPACING: 0.0625
Info: NONBONDED TABLE SIZE: 705 POINTS
TCL: Setting parameter alchLambda2 to 0.7000000000000001
Info: NONBONDED TABLE R-SQUARED SPACING: 0.0625
Info: NONBONDED TABLE SIZE: 705 POINTS
TCL: Running for 1500000 steps
ETITLE: TS BOND ANGLE DIHED IMPRP ELECT VDW BOUNDARY MISC KINETIC TOTAL TEMP POTENTIAL TOTALAVG TEMPAVG PRESSURE GPRESSURE VOLUME PRESSAVG GPRESSAVG
ENERGY: 0 0.0682 8.5230 4.0223 0.0000 -10616.4006 1415.9003 0.0000 0.0000 1774.3385 -7413.5482 300.5344 -9187.8867 -7413.5482 300.5344 -460.4442 -390.4447 31420.4810 -460.4442 -390.4447
ENERGY: 300000 0.1937 2.0001 6.5515 0.0000 -10704.6971 1385.6610 0.0000 0.0000 1807.7162 -7502.5746 306.1879 -9310.2909 -7466.6493 303.4442 -714.9761 -680.3764 30977.8823 -318.5543 -243.4193
ENERGY: 600000 0.2693 7.2827 5.0279 0.0000 -10750.1018 1469.2339 0.0000 0.0000 1770.7070 -7497.5809 299.9193 -9268.2880 -7479.6285 300.9211 189.7272 344.8091 30275.3638 -190.9608 -118.1079
ENERGY: 900000 0.0122 0.5687 7.0325 0.0000 -10810.1972 1460.2341 0.0000 0.0000 1758.8787 -7583.4711 297.9159 -9342.3498 -7504.6111 300.3452 101.8760 113.0394 30196.9648 -137.4707 -81.0943
ENERGY: 1200000 0.1903 3.0770 7.1076 0.0000 -10740.2067 1411.1896 0.0000 0.0000 1785.5958 -7533.0464 302.4412 -9318.6422 -7497.1541 300.9024 -631.1024 -521.3792 30900.6112 -157.1696 -100.9548
ENERGY: 1500000 0.0037 2.2475 6.6664 0.0000 -10773.4334 1488.0022 0.0000 0.0000 1741.6266 -7534.8871 294.9937 -9276.5136 -7495.2895 300.4950 334.7671 435.2092 30207.8893 -101.2022 -43.3611
TCL: Running FEP window  15: Lambda1 0.7000000000000001 Lambda2 0.7500000000000001 [dLambda 0.050000000000000044]
TCL: Setting parameter firsttimestep to 0
TCL: Setting parameter alchLambda to 0.7000000000000001
Info: NONBONDED TABLE R-SQUARED SPACING: 0.0625
Info: NONBONDED TABLE SIZE: 705 POINTS
TCL: Setting parameter alchLambda2 to 0.7500000000000001
Info: NONBONDED TABLE R-SQUARED SPACING: 0.0625
Info: NONBONDED TABLE SIZE: 705 POINTS
TCL: Running for 1500000 steps
ETITLE: TS BOND ANGLE DIHED IMPRP ELECT VDW BOUNDARY MISC KINETIC TOTAL TEMP POTENTIAL TOTALAVG TEMPAVG PRESSURE GPRESSURE VOLUME PRESSAVG GPRESSAVG
ENERGY: 0 0.0037 2.2475 6.6664 0.0000 -10775.3758 1488.7716 0.0000 0.0000 1740.7733 -7536.9133 294.8492 -9277.6866 -7536.9133 294.8492 346.0301 438.5924 30207.8893 346.0301 438.5924
ENERGY: 300000 0.0754 4.4492 5.2823 0.0000 -10620.1102 1389.7860 0.0000 0.0000 1788.1731 -7432.3442 302.8777 -9220.5173 -7476.8599 300.1449 -226.2632 -157.8000 30480.4134 -3.5129 62.7664
ENERGY: 600000 2.1299 5.1840 6.2978 0.0000 -10657.2522 1368.2818 0.0000 0.0000 1757.9382 -7517.4205 297.7566 -9275.3588 -7497.4524 299.5424 -666.9822 -618.9477 30656.8587 -29.6981 29.6889
ENERGY: 900000 0.1606 5.5174 6.1969 0.0000 -10763.6586 1418.5435 0.0000 0.0000 1704.5119 -7628.7283 288.7073 -9333.2402 -7502.2276 299.6865 -711.5126 -618.5460 30851.3259 -112.4347 -41.9835
ENERGY: 1200000 0.3365 4.7927 5.8305 0.0000 -10809.0385 1488.8802 0.0000 0.0000 1783.8196 -7525.3790 302.1403 -9309.1986 -7499.3130 301.0088 265.4351 293.8557 30688.6927 -46.7607 20.4730
ENERGY: 1500000 0.1170 9.7375 4.8017 0.0000 -10667.7950 1452.8996 0.0000 0.0000 1748.4848 -7451.7545 296.1554 -9200.2393 -7507.1606 300.2209 243.0197 330.3791 30412.4752 -10.8841 54.1939
TCL: Running FEP window  16: Lambda1 0.7500000000000001 Lambda2 0.8000000000000002 [dLambda 0.050000000000000044]
TCL: Setting parameter firsttimestep to 0
TCL: Setting parameter alchLambda to 0.7500000000000001
Info: NONBONDED TABLE R-SQUARED SPACING: 0.0625
Info: NONBONDED TABLE SIZE: 705 POINTS
TCL: Setting parameter alchLambda2 to 0.8000000000000002
Info: NONBONDED TABLE R-SQUARED SPACING: 0.0625
Info: NONBONDED TABLE SIZE: 705 POINTS
TCL: Running for 1500000 steps
ETITLE: TS BOND ANGLE DIHED IMPRP ELECT VDW BOUNDARY MISC KINETIC TOTAL TEMP POTENTIAL TOTALAVG TEMPAVG PRESSURE GPRESSURE VOLUME PRESSAVG GPRESSAVG
ENERGY: 0 0.1170 9.7375 4.8017 0.0000 -10668.5256 1452.8703 0.0000 0.0000 1747.6288 -7453.3703 296.0104 -9200.9991 -7453.3703 296.0104 251.9148 333.1757 30412.4752 251.9148 333.1757
ENERGY: 300000 0.0262 3.5559 6.0710 0.0000 -10737.7188 1500.5699 0.0000 0.0000 1795.0219 -7432.4738 304.0377 -9227.4957 -7461.4342 299.0713 536.7186 636.6989 30735.6034 232.1260 265.7217
ENERGY: 600000 0.1599 2.3689 6.9749 0.0000 -10819.5247 1501.6260 0.0000 0.0000 1787.0035 -7521.3914 302.6796 -9308.3950 -7484.7594 296.9442 418.8412 506.5219 30344.6732 272.2116 313.8239
ENERGY: 900000 0.3785 3.3291 5.2582 0.0000 -10672.7962 1463.3705 0.0000 0.0000 1801.3047 -7399.1553 305.1019 -9200.4600 -7467.6875 298.6212 299.8548 348.1160 30808.8068 212.5749 248.2064
ENERGY: 1200000 0.3727 2.4200 7.8368 0.0000 -10828.9128 1452.3329 0.0000 0.0000 1780.6567 -7585.2937 301.6046 -9365.9504 -7485.0822 298.8854 -179.1626 -130.0118 30453.3770 79.0588 122.0747
ENERGY: 1500000 0.5305 7.7854 3.9015 0.0000 -10700.0539 1471.2195 0.0000 0.0000 1756.6797 -7459.9373 297.5434 -9216.6170 -7483.9725 299.4541 373.6174 434.2281 30557.5519 49.5165 98.4755
TCL: Running FEP window  17: Lambda1 0.8000000000000002 Lambda2 0.8500000000000002 [dLambda 0.050000000000000044]
TCL: Setting parameter firsttimestep to 0
TCL: Setting parameter alchLambda to 0.8000000000000002
Info: NONBONDED TABLE R-SQUARED SPACING: 0.0625
Info: NONBONDED TABLE SIZE: 705 POINTS
TCL: Setting parameter alchLambda2 to 0.8500000000000002
Info: NONBONDED TABLE R-SQUARED SPACING: 0.0625
Info: NONBONDED TABLE SIZE: 705 POINTS
TCL: Running for 1500000 steps
ETITLE: TS BOND ANGLE DIHED IMPRP ELECT VDW BOUNDARY MISC KINETIC TOTAL TEMP POTENTIAL TOTALAVG TEMPAVG PRESSURE GPRESSURE VOLUME PRESSAVG GPRESSAVG
ENERGY: 0 0.5305 7.7854 3.9015 0.0000 -10702.4219 1473.6097 0.0000 0.0000 1755.8351 -7460.7596 297.4003 -9216.5947 -7460.7596 297.4003 390.6936 454.2696 30557.5519 390.6936 454.2696
ENERGY: 300000 1.0828 1.0031 7.5972 0.0000 -10736.1968 1428.1544 0.0000 0.0000 1752.8643 -7545.4950 296.8972 -9298.3593 -7498.2731 301.0512 -542.9768 -415.5808 30867.7178 94.0803 163.3227
ENERGY: 600000 0.1666 5.0749 5.8340 0.0000 -10745.9707 1458.8650 0.0000 0.0000 1790.0205 -7486.0096 303.1906 -9276.0301 -7496.4279 301.0978 121.7264 199.6111 30254.3079 4.9886 60.7269
ENERGY: 900000 0.1839 7.0021 4.1265 0.0000 -10788.1763 1469.7860 0.0000 0.0000 1801.6834 -7505.3944 305.1660 -9307.0778 -7501.6797 301.4711 25.5457 122.7523 30473.9385 -23.9054 29.7394
ENERGY: 1200000 0.0438 3.7852 5.8428 0.0000 -10672.0163 1408.6739 0.0000 0.0000 1776.2562 -7477.4143 300.8592 -9253.6705 -7500.5991 301.9000 -509.4156 -442.1029 30818.7893 20.8850 70.4024
ENERGY: 1500000 0.1108 7.2504 3.7602 0.0000 -10747.6352 1432.4091 0.0000 0.0000 1777.3147 -7526.7901 301.0385 -9304.1048 -7496.1918 302.4644 131.7536 210.9636 29974.7574 29.4301 76.3044
TCL: Running FEP window  18: Lambda1 0.8500000000000002 Lambda2 0.9000000000000002 [dLambda 0.050000000000000044]
TCL: Setting parameter firsttimestep to 0
TCL: Setting parameter alchLambda to 0.8500000000000002
Info: NONBONDED TABLE R-SQUARED SPACING: 0.0625
Info: NONBONDED TABLE SIZE: 705 POINTS
TCL: Setting parameter alchLambda2 to 0.9000000000000002
Info: NONBONDED TABLE R-SQUARED SPACING: 0.0625
Info: NONBONDED TABLE SIZE: 705 POINTS
TCL: Running for 1500000 steps
ETITLE: TS BOND ANGLE DIHED IMPRP ELECT VDW BOUNDARY MISC KINETIC TOTAL TEMP POTENTIAL TOTALAVG TEMPAVG PRESSURE GPRESSURE VOLUME PRESSAVG GPRESSAVG
ENERGY: 0 0.1108 7.2504 3.7602 0.0000 -10749.0937 1432.8508 0.0000 0.0000 1776.4419 -7528.6795 300.8907 -9305.1215 -7528.6795 300.8907 115.0214 215.5379 29974.7574 115.0214 215.5379
ENERGY: 300000 0.2016 4.8590 4.7997 0.0000 -10689.3439 1353.2668 0.0000 0.0000 1727.8574 -7598.3595 292.6615 -9326.2168 -7502.3750 298.4585 -971.6596 -918.9155 30844.8215 -217.0560 -169.1176
ENERGY: 600000 0.3515 0.4893 6.9353 0.0000 -10859.4160 1482.9799 0.0000 0.0000 1807.0639 -7561.5962 306.0774 -9368.6601 -7510.4745 300.7856 -72.7998 10.1885 30646.0244 -116.4398 -62.4428
ENERGY: 900000 0.0418 3.6446 5.5032 0.0000 -10754.6603 1459.5707 0.0000 0.0000 1734.8150 -7551.0851 293.8400 -9285.9001 -7513.2618 301.1288 193.6574 215.0636 30479.9643 -35.9277 13.0452
ENERGY: 1200000 0.0053 4.3842 6.4175 0.0000 -10723.9623 1425.4922 0.0000 0.0000 1746.6648 -7540.9983 295.8471 -9287.6631 -7520.8467 299.5817 -28.0825 39.8214 30419.2508 -22.4340 26.3392
ENERGY: 1500000 0.0575 1.3951 8.1544 0.0000 -10885.0144 1465.1125 0.0000 0.0000 1727.6624 -7682.6325 292.6285 -9410.2949 -7526.8212 299.7721 -399.9882 -337.6876 30611.9762 -67.3208 -17.1854
TCL: Running FEP window  19: Lambda1 0.9000000000000002 Lambda2 0.9500000000000003 [dLambda 0.050000000000000044]
TCL: Setting parameter firsttimestep to 0
TCL: Setting parameter alchLambda to 0.9000000000000002
Info: NONBONDED TABLE R-SQUARED SPACING: 0.0625
Info: NONBONDED TABLE SIZE: 705 POINTS
TCL: Setting parameter alchLambda2 to 0.9500000000000003
Info: NONBONDED TABLE R-SQUARED SPACING: 0.0625
Info: NONBONDED TABLE SIZE: 705 POINTS
TCL: Running for 1500000 steps
ETITLE: TS BOND ANGLE DIHED IMPRP ELECT VDW BOUNDARY MISC KINETIC TOTAL TEMP POTENTIAL TOTALAVG TEMPAVG PRESSURE GPRESSURE VOLUME PRESSAVG GPRESSAVG
ENERGY: 0 0.0575 1.3951 8.1544 0.0000 -10885.7952 1465.3341 0.0000 0.0000 1726.7673 -7684.0868 292.4769 -9410.8541 -7684.0868 292.4769 -394.0186 -329.3083 30611.9762 -394.0186 -329.3083
ENERGY: 300000 0.2801 3.4388 7.9579 0.0000 -10770.6493 1471.2727 0.0000 0.0000 1777.6555 -7510.0443 301.0962 -9287.6998 -7543.6960 297.6001 -42.8751 29.3588 30775.8234 -11.2214 59.2026
ENERGY: 600000 0.0383 4.8697 6.0182 0.0000 -10697.2678 1439.6772 0.0000 0.0000 1757.5488 -7489.1156 297.6906 -9246.6644 -7510.6783 300.6383 -98.5835 -9.0558 30768.7944 34.6317 98.9585
ENERGY: 900000 0.9355 2.1188 7.3349 0.0000 -10826.0817 1478.0776 0.0000 0.0000 1798.8907 -7538.7243 304.6930 -9337.6150 -7518.3419 301.6425 238.8302 302.4562 30173.7955 32.8035 99.2040
ENERGY: 1200000 0.0034 2.1078 8.6166 0.0000 -10710.3684 1409.8590 0.0000 0.0000 1731.0930 -7558.6886 293.2096 -9289.7816 -7525.0606 301.3881 68.3948 129.3923 29931.6562 24.9948 82.9194
ENERGY: 1500000 0.7789 4.7360 6.3098 0.0000 -10841.8652 1516.5237 0.0000 0.0000 1750.0191 -7563.4978 296.4152 -9313.5168 -7527.5740 300.8183 425.7729 421.9119 30624.1603 93.6301 147.1036
TCL: Running FEP window  20: Lambda1 0.9500000000000003 Lambda2 1.0    [dLambda 0.04999999999999971]
TCL: Setting parameter firsttimestep to 0
TCL: Setting parameter alchLambda to 0.9500000000000003
Info: NONBONDED TABLE R-SQUARED SPACING: 0.0625
Info: NONBONDED TABLE SIZE: 705 POINTS
TCL: Setting parameter alchLambda2 to 1.0
Info: NONBONDED TABLE R-SQUARED SPACING: 0.0625
Info: NONBONDED TABLE SIZE: 705 POINTS
TCL: Running for 1500000 steps
ETITLE: TS BOND ANGLE DIHED IMPRP ELECT VDW BOUNDARY MISC KINETIC TOTAL TEMP POTENTIAL TOTALAVG TEMPAVG PRESSURE GPRESSURE VOLUME PRESSAVG GPRESSAVG
ENERGY: 0 0.7789 4.7360 6.3098 0.0000 -10843.8939 1518.2436 0.0000 0.0000 1749.1401 -7564.6856 296.2664 -9313.8257 -7564.6856 296.2664 366.9890 442.6287 30624.1603 366.9890 442.6287
ENERGY: 300000 1.6341 5.4150 6.4332 0.0000 -10801.3698 1464.1111 0.0000 0.0000 1769.7012 -7554.0751 299.7490 -9323.7763 -7540.7607 296.3201 -37.3854 36.7642 30400.4375 178.5975 228.0696
ENERGY: 600000 0.0107 6.9647 7.9653 0.0000 -10743.0402 1478.8019 0.0000 0.0000 1773.7005 -7475.5971 300.4264 -9249.2976 -7516.2886 299.3233 -36.0402 -3.1950 31221.7125 -10.2265 36.9179
ENERGY: 900000 0.6864 1.8870 7.1375 0.0000 -10791.1179 1430.8164 0.0000 0.0000 1830.4924 -7520.0982 310.0457 -9350.5906 -7526.8062 301.3091 -349.8899 -307.7670 30439.3638 16.8919 69.3549
ENERGY: 1200000 4.5663 4.5782 7.4824 0.0000 -10786.0330 1504.6653 0.0000 0.0000 1759.8832 -7504.8576 298.0860 -9264.7408 -7521.5078 301.5866 397.1968 414.6433 30587.2933 69.8254 123.0033
ENERGY: 1500000 1.2475 3.2361 8.6020 0.0000 -10766.4450 1509.4227 0.0000 0.0000 1809.2576 -7434.6790 306.4490 -9243.9367 -7516.1324 301.7707 737.3460 856.1811 30178.5657 161.5081 215.3127
TCL: Exiting due to exit command.
