Info: SIMULATION PARAMETERS:
Info: TIMESTEP               2
Info: NUMBER OF STEPS        0
Info: STEPS PER CYCLE        10
Info: PERIODIC CELL BASIS 1  34.986 0 0
Info: PERIODIC CELL BASIS 2  0 33.399 0
Info: PERIODIC CELL BASIS 3  0 0 37.638
Info: PERIODIC CELL CENTER   0 0 0
Info: WRAPPING WATERS AROUND PERIODIC BOUNDARIES ON OUTPUT.
Info: WRAPPING ALL CLUSTERS AROUND PERIODIC BOUNDARIES ON OUTPUT.
Info: FIRST LDB TIMESTEP     50
Info: LAST LDB TIMESTEP     -1
Info: HOM BACKGROUND SCALING 1
Info: PME BACKGROUND SCALING 1
Info: MIN ATOMS PER PATCH    40
Info: EMPTY PATCH LOAD       40 ATOMS
Info: INITIAL TEMPERATURE    300
Info: CENTER OF MASS MOVING INITIALLY? NO
Info: DIELECTRIC             1
Info: EXCLUDE                SCALED ONE-FOUR
Info: 1-4 ELECTROSTATICS SCALED BY 0.833333
Info: MODIFIED 1-4 VDW PARAMETERS WILL BE USED
Info: DCD FILENAME           mobley_7774695_equil.dcd
Info: DCD FREQUENCY          100000
Info: DCD FIRST STEP         100000
Info: DCD FILE WILL CONTAIN UNIT CELL DATA
Info: XST FILENAME           mobley_7774695_equil.xst
Info: XST FREQUENCY          100000
Info: NO VELOCITY DCD OUTPUT
Info: NO FORCE DCD OUTPUT
Info: OUTPUT FILENAME        mobley_7774695_equil
Info: BINARY OUTPUT FILES WILL BE USED
Info: RESTART FILENAME       mobley_7774695_equil.restart
Info: RESTART FREQUENCY      100000
Info: BINARY RESTART FILES WILL BE USED
Info: CUTOFF                 9
Info: PAIRLIST DISTANCE      11
Info: PAIRLIST SHRINK RATE   0.01
Info: PAIRLIST GROW RATE     0.01
Info: PAIRLIST TRIGGER       0.3
Info: PAIRLISTS PER CYCLE    2
Info: PAIRLISTS ENABLED
Info: MARGIN                 8
Info: HYDROGEN GROUP CUTOFF  2.5
Info: PATCH DIMENSION        21.5
Info: ENERGY OUTPUT STEPS    100000
Info: ENERGY EVALUATION STEPS    100000
Info: OUTPUT ENERGY PRECISION 4
Info: CROSSTERM ENERGY INCLUDED IN DIHEDRAL
Info: TIMING OUTPUT STEPS    1000000
Info: PRESSURE OUTPUT STEPS  100000
Info: LANGEVIN DYNAMICS ACTIVE
Info: LANGEVIN TEMPERATURE   30
Info: LANGEVIN USING BBK INTEGRATOR
Info: LANGEVIN DAMPING COEFFICIENT IS 1 INVERSE PS
Info: LANGEVIN DYNAMICS APPLIED TO HYDROGENS
Info: LANGEVIN PISTON PRESSURE CONTROL ACTIVE
Info:        TARGET PRESSURE IS 1.01325 BAR
Info:     OSCILLATION PERIOD IS 50 FS
Info:             DECAY TIME IS 25 FS
Info:     PISTON TEMPERATURE IS 300 K
Info:       PRESSURE CONTROL IS GROUP-BASED
Info:    INITIAL STRAIN RATE IS 0 0 0
Info:       CELL FLUCTUATION IS ISOTROPIC
Info: PARTICLE MESH EWALD (PME) ACTIVE
Info: PME TOLERANCE               1e-06
Info: PME EWALD COEFFICIENT       0.348832
Info: PME INTERPOLATION ORDER     4
Info: PME GRID DIMENSIONS         36 36 40
Info: PME MAXIMUM GRID SPACING    1
Info: FULL ELECTROSTATIC EVALUATION FREQUENCY      2
Info: USING VERLET I (r-RESPA) MTS SCHEME.
Info: C1 SPLITTING OF LONG RANGE ELECTROSTATICS
Info: PLACING ATOMS IN PATCHES BY HYDROGEN GROUPS
Info: RIGID BONDS TO HYDROGEN : ALL
Info:         ERROR TOLERANCE : 1e-08
Info:          MAX ITERATIONS : 100
Info: RIGID WATER USING SETTLE ALGORITHM
Info: RANDOM NUMBER SEED     1743231886
Info: USE HYDROGEN BONDS?    NO
Info: Using AMBER format force field!
Info: AMBER PARM FILE        mobley_7774695.prmtop
Info: COORDINATE PDB         mobley_7774695.pdb
Info: Exclusions will be read from PARM file!
Info: SCNB (VDW SCALING)     2
Info: USING ARITHMETIC MEAN TO COMBINE L-J SIGMA PARAMETERS
Info: BINARY COORDINATES     mobley_7774695_min.coor
Info: SUMMARY OF PARAMETERS:
Info: 8 BONDS
Info: 8 ANGLES
Info:   8 HARMONIC
Info:   0 COSINE-BASED
Info: 4 DIHEDRAL
Info: 0 IMPROPER
Info: 0 CROSSTERM
Info: 0 VDW
Info: 36 VDW_PAIRS
Info: 0 NBTHOLE_PAIRS
Info: STRUCTURE SUMMARY:
Info: 2966 ATOMS
Info: 2966 BONDS
Info: 27 ANGLES
Info: 41 DIHEDRALS
Info: 0 IMPROPERS
Info: 0 CROSSTERMS
Info: 3024 EXCLUSIONS
Info: 2958 RIGID BONDS
Info: 5940 DEGREES OF FREEDOM
Info: 991 HYDROGEN GROUPS
Info: 4 ATOMS IN LARGEST HYDROGEN GROUP
Info: 991 MIGRATION GROUPS
Info: 4 ATOMS IN LARGEST MIGRATION GROUP
Info: TOTAL MASS = 17816.9 amu
Info: TOTAL CHARGE = -0.000199948 e
Info: MASS DENSITY = 0.672724 g/cm^3
Info: ATOM DENSITY = 0.0674399 atoms/A^3
Info: ADDED 0 IMPLICIT EXCLUSIONS
Info: NONBONDED TABLE R-SQUARED SPACING: 0.0625
Info: NONBONDED TABLE SIZE: 705 POINTS
Info: REMOVING COM VELOCITY 0.0523682 0.264545 0.115312
TCL: Running for 100000 steps
ETITLE: TS BOND ANGLE DIHED IMPRP ELECT VDW BOUNDARY MISC KINETIC TOTAL TEMP POTENTIAL TOTAL3 TEMPAVG PRESSURE GPRESSURE VOLUME PRESSAVG GPRESSAVG
ENERGY: 0 0.1206 0.7053 0.7799 0.0000 -13756.6990 2425.0158 0.0000 0.0000 1747.1498 -9582.9277 296.0289 -11330.0775 -9582.5753 296.0289 496.4401 537.3577 43979.9057 496.4401 537.3577
ENERGY: 100000 1.3058 1.4049 0.6912 0.0000 -14180.3538 2349.5203 0.0000 0.0000 173.5305 -11653.9010 29.4022 -11827.4315 -11653.2507 30.9294 -1354.1930 -1309.0338 29247.8858 4.6980 4.6294
TCL: Running 100000 steps at 60 kelvin.
TCL: Setting parameter langevinTemp to 60
TCL: Running for 100000 steps
ETITLE: TS BOND ANGLE DIHED IMPRP ELECT VDW BOUNDARY MISC KINETIC TOTAL TEMP POTENTIAL TOTAL3 TEMPAVG PRESSURE GPRESSURE VOLUME PRESSAVG GPRESSAVG
ENERGY: 100000 1.3058 1.4049 0.6912 0.0000 -14180.3538 2349.5203 0.0000 0.0000 173.4415 -11653.9900 29.3871 -11827.4315 -11653.5182 29.3871 -1352.1247 -1308.7830 29247.8858 -1352.1247 -1308.7830
ENERGY: 200000 0.6025 1.5936 1.5250 0.0000 -14210.4342 2475.4028 0.0000 0.0000 355.2618 -11376.0485 60.1939 -11731.3103 -11375.1449 59.9871 355.2826 374.3536 28906.1926 3.5772 3.5862
TCL: Running 100000 steps at 90 kelvin.
TCL: Setting parameter langevinTemp to 90
TCL: Running for 100000 steps
ETITLE: TS BOND ANGLE DIHED IMPRP ELECT VDW BOUNDARY MISC KINETIC TOTAL TEMP POTENTIAL TOTAL3 TEMPAVG PRESSURE GPRESSURE VOLUME PRESSAVG GPRESSAVG
ENERGY: 200000 0.6025 1.5936 1.5250 0.0000 -14210.4342 2475.4028 0.0000 0.0000 355.0774 -11376.2329 60.1627 -11731.3103 -11375.4849 60.1627 315.0982 374.1576 28906.1926 315.0982 374.1576
ENERGY: 300000 1.0436 4.3800 2.5430 0.0000 -14153.1280 2505.4937 0.0000 0.0000 527.7094 -11111.9584 89.4126 -11639.6678 -11110.9858 89.8939 1150.4640 1254.0543 28532.6088 3.2784 3.2573
TCL: Running 100000 steps at 120 kelvin.
TCL: Setting parameter langevinTemp to 120
TCL: Running for 100000 steps
ETITLE: TS BOND ANGLE DIHED IMPRP ELECT VDW BOUNDARY MISC KINETIC TOTAL TEMP POTENTIAL TOTAL3 TEMPAVG PRESSURE GPRESSURE VOLUME PRESSAVG GPRESSAVG
ENERGY: 300000 1.0436 4.3800 2.5430 0.0000 -14153.1280 2505.4937 0.0000 0.0000 527.4379 -11112.2299 89.3666 -11639.6678 -11111.1921 89.3666 1190.7977 1253.6409 28532.6088 1190.7977 1253.6409
ENERGY: 400000 1.0493 3.3431 2.6087 0.0000 -13869.3030 2341.2111 0.0000 0.0000 692.9562 -10828.1346 117.4112 -11521.0908 -10826.9689 119.9646 32.8824 30.5622 28904.1294 5.5163 5.4657
TCL: Running 100000 steps at 150 kelvin.
TCL: Setting parameter langevinTemp to 150
TCL: Running for 100000 steps
ETITLE: TS BOND ANGLE DIHED IMPRP ELECT VDW BOUNDARY MISC KINETIC TOTAL TEMP POTENTIAL TOTAL3 TEMPAVG PRESSURE GPRESSURE VOLUME PRESSAVG GPRESSAVG
ENERGY: 400000 1.0493 3.3431 2.6087 0.0000 -13869.3030 2341.2111 0.0000 0.0000 692.6112 -10828.4796 117.3528 -11521.0908 -10826.8267 117.3528 -12.5866 30.3539 28904.1294 -12.5866 30.3539
ENERGY: 500000 2.3753 2.4159 3.9844 0.0000 -13703.5906 2318.7656 0.0000 0.0000 870.1475 -10505.9018 147.4337 -11376.0494 -10503.9022 149.9855 2.6209 115.7116 29255.9949 3.9838 4.0550
TCL: Running 100000 steps at 180 kelvin.
TCL: Setting parameter langevinTemp to 180
TCL: Running for 100000 steps
ETITLE: TS BOND ANGLE DIHED IMPRP ELECT VDW BOUNDARY MISC KINETIC TOTAL TEMP POTENTIAL TOTAL3 TEMPAVG PRESSURE GPRESSURE VOLUME PRESSAVG GPRESSAVG
ENERGY: 500000 2.3753 2.4159 3.9844 0.0000 -13703.5906 2318.7656 0.0000 0.0000 869.7212 -10506.3282 147.3615 -11376.0494 -10504.2522 147.3615 57.3227 115.4042 29255.9949 57.3227 115.4042
ENERGY: 600000 1.5850 4.4665 1.1128 0.0000 -13132.8800 2117.3919 0.0000 0.0000 1066.6875 -9941.6363 180.7345 -11008.3238 -9939.6582 179.8954 -237.2743 -127.6084 29619.2102 3.9832 3.9870
TCL: Running 100000 steps at 210 kelvin.
TCL: Setting parameter langevinTemp to 210
TCL: Running for 100000 steps
ETITLE: TS BOND ANGLE DIHED IMPRP ELECT VDW BOUNDARY MISC KINETIC TOTAL TEMP POTENTIAL TOTAL3 TEMPAVG PRESSURE GPRESSURE VOLUME PRESSAVG GPRESSAVG
ENERGY: 600000 1.5850 4.4665 1.1128 0.0000 -13132.8800 2117.3919 0.0000 0.0000 1066.1598 -9942.1640 180.6451 -11008.3238 -9940.1441 180.6451 -176.8240 -127.3998 29619.2102 -176.8240 -127.3998
ENERGY: 700000 1.5931 2.9672 4.0916 0.0000 -12597.0116 1958.5529 0.0000 0.0000 1212.6828 -9417.1240 205.4713 -10629.8068 -9413.7250 210.2037 122.3824 159.9023 28972.6406 2.9769 2.8893
TCL: Running 100000 steps at 240 kelvin.
TCL: Setting parameter langevinTemp to 240
TCL: Running for 100000 steps
ETITLE: TS BOND ANGLE DIHED IMPRP ELECT VDW BOUNDARY MISC KINETIC TOTAL TEMP POTENTIAL TOTAL3 TEMPAVG PRESSURE GPRESSURE VOLUME PRESSAVG GPRESSAVG
ENERGY: 700000 1.5931 2.9672 4.0916 0.0000 -12597.0116 1958.5529 0.0000 0.0000 1212.0828 -9417.7240 205.3696 -10629.8068 -9415.3817 205.3696 81.4262 160.3577 28972.6406 81.4262 160.3577
ENERGY: 800000 3.8856 2.6363 1.8170 0.0000 -11745.2088 1637.6038 0.0000 0.0000 1457.5028 -8641.7633 246.9524 -10099.2661 -8637.2686 239.6576 -721.7483 -656.0427 29481.0570 3.6821 3.6254
TCL: Running 100000 steps at 270 kelvin.
TCL: Setting parameter langevinTemp to 270
TCL: Running for 100000 steps
ETITLE: TS BOND ANGLE DIHED IMPRP ELECT VDW BOUNDARY MISC KINETIC TOTAL TEMP POTENTIAL TOTAL3 TEMPAVG PRESSURE GPRESSURE VOLUME PRESSAVG GPRESSAVG
ENERGY: 800000 3.8856 2.6363 1.8170 0.0000 -11745.2088 1637.6038 0.0000 0.0000 1456.8154 -8642.4507 246.8360 -10099.2661 -8640.3077 246.8360 -723.7781 -656.5323 29481.0570 -723.7781 -656.5323
ENERGY: 900000 0.5151 5.7886 3.4358 0.0000 -11364.3207 1666.9955 0.0000 0.0000 1604.2595 -8083.3262 271.8182 -9687.5857 -8080.8095 270.0872 910.4558 993.7037 29594.1255 2.8472 2.8159
TCL: Running 1000000 steps at 300 kelvin.
TCL: Setting parameter langevinTemp to 300
TCL: Running for 1000000 steps
ETITLE: TS BOND ANGLE DIHED IMPRP ELECT VDW BOUNDARY MISC KINETIC TOTAL TEMP POTENTIAL TOTAL3 TEMPAVG PRESSURE GPRESSURE VOLUME PRESSAVG GPRESSAVG
ENERGY: 900000 0.5151 5.7886 3.4358 0.0000 -11364.3207 1666.9955 0.0000 0.0000 1603.4630 -8084.1227 271.6833 -9687.5857 -8082.2914 271.6833 910.4717 993.5347 29594.1255 910.4717 993.5347
ENERGY: 1100000 1.4611 1.9082 2.0587 0.0000 -10746.0933 1443.9163 0.0000 0.0000 1794.7864 -7501.9627 304.1002 -9296.7491 -7497.9654 300.1136 62.5085 194.4616 30445.6364 2.9333 2.9438
ENERGY: 1300000 3.1661 5.2654 5.4581 0.0000 -10606.3944 1306.2672 0.0000 0.0000 1743.0246 -7543.2130 295.3299 -9286.2376 -7540.8977 300.0606 -823.6552 -746.8751 30142.4067 3.0246 3.1429
ENERGY: 1500000 5.6123 4.6969 5.4246 0.0000 -10643.8165 1392.2528 0.0000 0.0000 1754.1108 -7481.7191 297.2083 -9235.8299 -7476.7673 299.4992 -588.8272 -506.1641 30984.1644 3.0508 3.0099
ENERGY: 1700000 2.4239 5.4302 4.4099 0.0000 -10957.2526 1568.4937 0.0000 0.0000 1711.1884 -7665.3065 289.9357 -9376.4949 -7660.9463 300.5889 529.5473 614.2886 30793.7638 4.4269 4.5786
ENERGY: 1900000 3.4400 5.2348 1.9690 0.0000 -10826.9936 1506.2118 0.0000 0.0000 1769.5490 -7540.5889 299.8241 -9310.1380 -7535.5502 300.1317 248.6206 384.2462 30610.6397 3.2441 3.1577
TCL: Exiting due to exit command.
