Info: SIMULATION PARAMETERS:
Info: TIMESTEP               2
Info: NUMBER OF STEPS        0
Info: STEPS PER CYCLE        10
Info: PERIODIC CELL BASIS 1  36.281 0 0
Info: PERIODIC CELL BASIS 2  0 34.1 0
Info: PERIODIC CELL BASIS 3  0 0 36.199
Info: PERIODIC CELL CENTER   0 0 0
Info: WRAPPING WATERS AROUND PERIODIC BOUNDARIES ON OUTPUT.
Info: WRAPPING ALL CLUSTERS AROUND PERIODIC BOUNDARIES ON OUTPUT.
Info: FIRST LDB TIMESTEP     50
Info: LAST LDB TIMESTEP     -1
Info: HOM BACKGROUND SCALING 1
Info: PME BACKGROUND SCALING 1
Info: MIN ATOMS PER PATCH    40
Info: EMPTY PATCH LOAD       40 ATOMS
Info: INITIAL TEMPERATURE    300
Info: CENTER OF MASS MOVING INITIALLY? NO
Info: DIELECTRIC             1
Info: EXCLUDE                SCALED ONE-FOUR
Info: 1-4 ELECTROSTATICS SCALED BY 0.833333
Info: MODIFIED 1-4 VDW PARAMETERS WILL BE USED
Info: DCD FILENAME           mobley_3980099_equil.dcd
Info: DCD FREQUENCY          100000
Info: DCD FIRST STEP         100000
Info: DCD FILE WILL CONTAIN UNIT CELL DATA
Info: XST FILENAME           mobley_3980099_equil.xst
Info: XST FREQUENCY          100000
Info: NO VELOCITY DCD OUTPUT
Info: NO FORCE DCD OUTPUT
Info: OUTPUT FILENAME        mobley_3980099_equil
Info: BINARY OUTPUT FILES WILL BE USED
Info: RESTART FILENAME       mobley_3980099_equil.restart
Info: RESTART FREQUENCY      100000
Info: BINARY RESTART FILES WILL BE USED
Info: CUTOFF                 9
Info: PAIRLIST DISTANCE      11
Info: PAIRLIST SHRINK RATE   0.01
Info: PAIRLIST GROW RATE     0.01
Info: PAIRLIST TRIGGER       0.3
Info: PAIRLISTS PER CYCLE    2
Info: PAIRLISTS ENABLED
Info: MARGIN                 8
Info: HYDROGEN GROUP CUTOFF  2.5
Info: PATCH DIMENSION        21.5
Info: ENERGY OUTPUT STEPS    100000
Info: ENERGY EVALUATION STEPS    100000
Info: OUTPUT ENERGY PRECISION 4
Info: CROSSTERM ENERGY INCLUDED IN DIHEDRAL
Info: TIMING OUTPUT STEPS    1000000
Info: PRESSURE OUTPUT STEPS  100000
Info: LANGEVIN DYNAMICS ACTIVE
Info: LANGEVIN TEMPERATURE   30
Info: LANGEVIN USING BBK INTEGRATOR
Info: LANGEVIN DAMPING COEFFICIENT IS 1 INVERSE PS
Info: LANGEVIN DYNAMICS APPLIED TO HYDROGENS
Info: LANGEVIN PISTON PRESSURE CONTROL ACTIVE
Info:        TARGET PRESSURE IS 1.01325 BAR
Info:     OSCILLATION PERIOD IS 50 FS
Info:             DECAY TIME IS 25 FS
Info:     PISTON TEMPERATURE IS 300 K
Info:       PRESSURE CONTROL IS GROUP-BASED
Info:    INITIAL STRAIN RATE IS 0 0 0
Info:       CELL FLUCTUATION IS ISOTROPIC
Info: PARTICLE MESH EWALD (PME) ACTIVE
Info: PME TOLERANCE               1e-06
Info: PME EWALD COEFFICIENT       0.348832
Info: PME INTERPOLATION ORDER     4
Info: PME GRID DIMENSIONS         40 36 40
Info: PME MAXIMUM GRID SPACING    1
Info: FULL ELECTROSTATIC EVALUATION FREQUENCY      2
Info: USING VERLET I (r-RESPA) MTS SCHEME.
Info: C1 SPLITTING OF LONG RANGE ELECTROSTATICS
Info: PLACING ATOMS IN PATCHES BY HYDROGEN GROUPS
Info: RIGID BONDS TO HYDROGEN : ALL
Info:         ERROR TOLERANCE : 1e-08
Info:          MAX ITERATIONS : 100
Info: RIGID WATER USING SETTLE ALGORITHM
Info: RANDOM NUMBER SEED     1743163077
Info: USE HYDROGEN BONDS?    NO
Info: Using AMBER format force field!
Info: AMBER PARM FILE        mobley_3980099.prmtop
Info: COORDINATE PDB         mobley_3980099.pdb
Info: Exclusions will be read from PARM file!
Info: SCNB (VDW SCALING)     2
Info: USING ARITHMETIC MEAN TO COMBINE L-J SIGMA PARAMETERS
Info: BINARY COORDINATES     mobley_3980099_min.coor
Info: SUMMARY OF PARAMETERS:
Info: 5 BONDS
Info: 3 ANGLES
Info:   3 HARMONIC
Info:   0 COSINE-BASED
Info: 2 DIHEDRAL
Info: 0 IMPROPER
Info: 0 CROSSTERM
Info: 0 VDW
Info: 15 VDW_PAIRS
Info: 0 NBTHOLE_PAIRS
Info: STRUCTURE SUMMARY:
Info: 2988 ATOMS
Info: 2988 BONDS
Info: 18 ANGLES
Info: 30 DIHEDRALS
Info: 0 IMPROPERS
Info: 0 CROSSTERMS
Info: 3027 EXCLUSIONS
Info: 2979 RIGID BONDS
Info: 5985 DEGREES OF FREEDOM
Info: 1001 HYDROGEN GROUPS
Info: 3 ATOMS IN LARGEST HYDROGEN GROUP
Info: 1001 MIGRATION GROUPS
Info: 3 ATOMS IN LARGEST MIGRATION GROUP
Info: TOTAL MASS = 18053.3 amu
Info: TOTAL CHARGE = -1.11759e-08 e
Info: MASS DENSITY = 0.6694 g/cm^3
Info: ATOM DENSITY = 0.0667191 atoms/A^3
Info: ADDED 0 IMPLICIT EXCLUSIONS
Info: NONBONDED TABLE R-SQUARED SPACING: 0.0625
Info: NONBONDED TABLE SIZE: 705 POINTS
Info: REMOVING COM VELOCITY -0.173984 0.101418 -0.00417385
TCL: Running for 100000 steps
ETITLE: TS BOND ANGLE DIHED IMPRP ELECT VDW BOUNDARY MISC KINETIC TOTAL TEMP POTENTIAL TOTAL3 TEMPAVG PRESSURE GPRESSURE VOLUME PRESSAVG GPRESSAVG
ENERGY: 0 0.1954 0.1855 0.0122 0.0000 -13822.3501 2442.2789 0.0000 0.0000 1798.3200 -9581.3582 302.4079 -11379.6781 -9581.0087 302.4079 633.9764 667.7583 44784.7548 633.9764 667.7583
ENERGY: 100000 0.9625 0.2428 0.4386 0.0000 -14395.0120 2456.3525 0.0000 0.0000 174.8502 -11762.1655 29.4030 -11937.0157 -11761.9937 30.9126 -381.7657 -315.4509 28608.8436 4.1916 4.1489
TCL: Running 100000 steps at 60 kelvin.
TCL: Setting parameter langevinTemp to 60
TCL: Running for 100000 steps
ETITLE: TS BOND ANGLE DIHED IMPRP ELECT VDW BOUNDARY MISC KINETIC TOTAL TEMP POTENTIAL TOTAL3 TEMPAVG PRESSURE GPRESSURE VOLUME PRESSAVG GPRESSAVG
ENERGY: 100000 0.9625 0.2428 0.4386 0.0000 -14395.0120 2456.3525 0.0000 0.0000 174.7633 -11762.2524 29.3884 -11937.0157 -11761.8733 29.3884 -371.7775 -315.7716 28608.8436 -371.7775 -315.7716
ENERGY: 200000 1.2950 0.3086 1.1962 0.0000 -14230.0944 2395.7249 0.0000 0.0000 358.3331 -11473.2367 60.2578 -11831.5698 -11472.7713 59.8393 -423.9490 -365.7126 28639.4230 3.8525 3.9362
TCL: Running 100000 steps at 90 kelvin.
TCL: Setting parameter langevinTemp to 90
TCL: Running for 100000 steps
ETITLE: TS BOND ANGLE DIHED IMPRP ELECT VDW BOUNDARY MISC KINETIC TOTAL TEMP POTENTIAL TOTAL3 TEMPAVG PRESSURE GPRESSURE VOLUME PRESSAVG GPRESSAVG
ENERGY: 200000 1.2950 0.3086 1.1962 0.0000 -14230.0944 2395.7249 0.0000 0.0000 358.1520 -11473.4178 60.2273 -11831.5698 -11472.4889 60.2273 -419.0834 -366.5448 28639.4230 -419.0834 -366.5448
ENERGY: 300000 1.0099 0.6261 0.8084 0.0000 -13975.1869 2214.9433 0.0000 0.0000 529.4593 -11228.3398 89.0346 -11757.7992 -11226.3313 90.2893 -1763.4063 -1723.2893 29041.3171 3.2926 3.3613
TCL: Running 100000 steps at 120 kelvin.
TCL: Setting parameter langevinTemp to 120
TCL: Running for 100000 steps
ETITLE: TS BOND ANGLE DIHED IMPRP ELECT VDW BOUNDARY MISC KINETIC TOTAL TEMP POTENTIAL TOTAL3 TEMPAVG PRESSURE GPRESSURE VOLUME PRESSAVG GPRESSAVG
ENERGY: 300000 1.0099 0.6261 0.8084 0.0000 -13975.1869 2214.9433 0.0000 0.0000 529.1996 -11228.5996 88.9909 -11757.7992 -11227.4240 88.9909 -1769.9905 -1723.1116 29041.3171 -1769.9905 -1723.1116
ENERGY: 400000 1.1792 1.0947 1.2152 0.0000 -13982.2383 2372.1222 0.0000 0.0000 727.1515 -10879.4755 122.2788 -11606.6270 -10877.5355 119.7808 206.0590 285.8005 28729.4208 5.2591 5.1692
TCL: Running 100000 steps at 150 kelvin.
TCL: Setting parameter langevinTemp to 150
TCL: Running for 100000 steps
ETITLE: TS BOND ANGLE DIHED IMPRP ELECT VDW BOUNDARY MISC KINETIC TOTAL TEMP POTENTIAL TOTAL3 TEMPAVG PRESSURE GPRESSURE VOLUME PRESSAVG GPRESSAVG
ENERGY: 400000 1.1792 1.0947 1.2152 0.0000 -13982.2383 2372.1222 0.0000 0.0000 726.7814 -10879.8456 122.2166 -11606.6270 -10878.4241 122.2166 225.8339 286.6871 28729.4208 225.8339 286.6871
ENERGY: 500000 1.3099 1.0730 1.0683 0.0000 -13667.8089 2200.4812 0.0000 0.0000 898.5872 -10565.2893 151.1077 -11463.8765 -10562.9501 149.8993 -776.5657 -680.8662 29006.9387 2.6269 2.6087
TCL: Running 100000 steps at 180 kelvin.
TCL: Setting parameter langevinTemp to 180
TCL: Running for 100000 steps
ETITLE: TS BOND ANGLE DIHED IMPRP ELECT VDW BOUNDARY MISC KINETIC TOTAL TEMP POTENTIAL TOTAL3 TEMPAVG PRESSURE GPRESSURE VOLUME PRESSAVG GPRESSAVG
ENERGY: 500000 1.3099 1.0730 1.0683 0.0000 -13667.8089 2200.4812 0.0000 0.0000 898.1459 -10565.7306 151.0334 -11463.8765 -10563.7440 151.0334 -733.3755 -680.3529 29006.9387 -733.3755 -680.3529
ENERGY: 600000 2.2218 1.4437 0.7596 0.0000 -13351.2037 2196.3651 0.0000 0.0000 1037.6594 -10112.7540 174.4942 -11150.4134 -10110.3335 180.0662 287.2887 307.3603 29483.7946 3.3615 3.5720
TCL: Running 100000 steps at 210 kelvin.
TCL: Setting parameter langevinTemp to 210
TCL: Running for 100000 steps
ETITLE: TS BOND ANGLE DIHED IMPRP ELECT VDW BOUNDARY MISC KINETIC TOTAL TEMP POTENTIAL TOTAL3 TEMPAVG PRESSURE GPRESSURE VOLUME PRESSAVG GPRESSAVG
ENERGY: 600000 2.2218 1.4437 0.7596 0.0000 -13351.2037 2196.3651 0.0000 0.0000 1037.1442 -10113.2692 174.4076 -11150.4134 -10111.1626 174.4076 248.4773 306.6334 29483.7946 248.4773 306.6334
ENERGY: 700000 3.1497 1.4422 2.6462 0.0000 -12527.5946 1919.3499 0.0000 0.0000 1281.6106 -9319.3960 215.5174 -10601.0065 -9317.5459 210.1260 76.5190 106.2936 29263.6825 3.6981 3.7797
TCL: Running 100000 steps at 240 kelvin.
TCL: Setting parameter langevinTemp to 240
TCL: Running for 100000 steps
ETITLE: TS BOND ANGLE DIHED IMPRP ELECT VDW BOUNDARY MISC KINETIC TOTAL TEMP POTENTIAL TOTAL3 TEMPAVG PRESSURE GPRESSURE VOLUME PRESSAVG GPRESSAVG
ENERGY: 700000 3.1497 1.4422 2.6462 0.0000 -12527.5946 1919.3499 0.0000 0.0000 1280.9904 -9320.0161 215.4131 -10601.0065 -9318.2324 215.4131 36.5239 105.9425 29263.6825 36.5239 105.9425
ENERGY: 800000 1.3160 0.7200 4.4106 0.0000 -11934.3623 1718.7998 0.0000 0.0000 1442.1482 -8766.9676 242.5136 -10209.1158 -8763.7060 239.2283 -234.6368 -166.6057 29424.0364 3.5257 3.7011
TCL: Running 100000 steps at 270 kelvin.
TCL: Setting parameter langevinTemp to 270
TCL: Running for 100000 steps
ETITLE: TS BOND ANGLE DIHED IMPRP ELECT VDW BOUNDARY MISC KINETIC TOTAL TEMP POTENTIAL TOTAL3 TEMPAVG PRESSURE GPRESSURE VOLUME PRESSAVG GPRESSAVG
ENERGY: 800000 1.3160 0.7200 4.4106 0.0000 -11934.3623 1718.7998 0.0000 0.0000 1441.3926 -8767.7232 242.3866 -10209.1158 -8764.8233 242.3866 -262.5778 -167.5665 29424.0364 -262.5778 -167.5665
ENERGY: 900000 3.0365 1.2869 0.9368 0.0000 -11482.4744 1708.3719 0.0000 0.0000 1580.8981 -8187.9441 265.8460 -9768.8423 -8187.1439 270.4028 829.2173 889.3306 30004.9948 1.7673 1.7706
TCL: Running 1000000 steps at 300 kelvin.
TCL: Setting parameter langevinTemp to 300
TCL: Running for 1000000 steps
ETITLE: TS BOND ANGLE DIHED IMPRP ELECT VDW BOUNDARY MISC KINETIC TOTAL TEMP POTENTIAL TOTAL3 TEMPAVG PRESSURE GPRESSURE VOLUME PRESSAVG GPRESSAVG
ENERGY: 900000 3.0365 1.2869 0.9368 0.0000 -11482.4744 1708.3719 0.0000 0.0000 1580.1301 -8188.7121 265.7168 -9768.8423 -8186.4196 265.7168 800.8981 887.9826 30004.9948 800.8981 887.9826
ENERGY: 1100000 1.8903 1.8296 2.1913 0.0000 -10812.6988 1429.1203 0.0000 0.0000 1794.7168 -7582.9506 301.8020 -9377.6674 -7579.0658 299.9160 -221.5530 -142.0042 30822.3766 3.5847 3.4137
ENERGY: 1300000 4.7239 3.7637 3.7588 0.0000 -10818.3562 1427.6762 0.0000 0.0000 1762.1428 -7616.2908 296.3243 -9378.4336 -7613.2334 299.6373 -633.2343 -545.1745 31090.5665 3.2006 3.2182
ENERGY: 1500000 1.8121 3.1584 4.4565 0.0000 -10649.3251 1377.0752 0.0000 0.0000 1864.5356 -7398.2872 313.5429 -9262.8228 -7390.9930 300.2894 -370.4581 -225.6948 31091.8496 2.0433 2.0339
ENERGY: 1700000 1.7040 4.4034 4.0586 0.0000 -10777.1889 1481.5096 0.0000 0.0000 1783.9129 -7501.6004 299.9852 -9285.5133 -7498.7699 299.7439 286.3918 346.2178 31225.5260 3.3821 3.4353
ENERGY: 1900000 2.2561 2.1735 1.7641 0.0000 -10735.9729 1384.5232 0.0000 0.0000 1825.7066 -7519.5493 307.0133 -9345.2559 -7517.7989 300.2255 -591.1842 -498.6530 31115.5007 3.5015 3.5988
TCL: Exiting due to exit command.
