Info: SIMULATION PARAMETERS:
Info: TIMESTEP               2
Info: NUMBER OF STEPS        0
Info: STEPS PER CYCLE        10
Info: PERIODIC CELL BASIS 1  35.01 0 0
Info: PERIODIC CELL BASIS 2  0 36.451 0
Info: PERIODIC CELL BASIS 3  0 0 34.954
Info: PERIODIC CELL CENTER   0 0 0
Info: WRAPPING WATERS AROUND PERIODIC BOUNDARIES ON OUTPUT.
Info: WRAPPING ALL CLUSTERS AROUND PERIODIC BOUNDARIES ON OUTPUT.
Info: FIRST LDB TIMESTEP     50
Info: LAST LDB TIMESTEP     -1
Info: HOM BACKGROUND SCALING 1
Info: PME BACKGROUND SCALING 1
Info: MIN ATOMS PER PATCH    40
Info: EMPTY PATCH LOAD       40 ATOMS
Info: INITIAL TEMPERATURE    300
Info: CENTER OF MASS MOVING INITIALLY? NO
Info: DIELECTRIC             1
Info: EXCLUDE                SCALED ONE-FOUR
Info: 1-4 ELECTROSTATICS SCALED BY 0.833333
Info: MODIFIED 1-4 VDW PARAMETERS WILL BE USED
Info: DCD FILENAME           mobley_4463913_equil.dcd
Info: DCD FREQUENCY          100000
Info: DCD FIRST STEP         100000
Info: DCD FILE WILL CONTAIN UNIT CELL DATA
Info: XST FILENAME           mobley_4463913_equil.xst
Info: XST FREQUENCY          100000
Info: NO VELOCITY DCD OUTPUT
Info: NO FORCE DCD OUTPUT
Info: OUTPUT FILENAME        mobley_4463913_equil
Info: BINARY OUTPUT FILES WILL BE USED
Info: RESTART FILENAME       mobley_4463913_equil.restart
Info: RESTART FREQUENCY      100000
Info: BINARY RESTART FILES WILL BE USED
Info: CUTOFF                 9
Info: PAIRLIST DISTANCE      11
Info: PAIRLIST SHRINK RATE   0.01
Info: PAIRLIST GROW RATE     0.01
Info: PAIRLIST TRIGGER       0.3
Info: PAIRLISTS PER CYCLE    2
Info: PAIRLISTS ENABLED
Info: MARGIN                 8
Info: HYDROGEN GROUP CUTOFF  2.5
Info: PATCH DIMENSION        21.5
Info: ENERGY OUTPUT STEPS    100000
Info: ENERGY EVALUATION STEPS    100000
Info: OUTPUT ENERGY PRECISION 4
Info: CROSSTERM ENERGY INCLUDED IN DIHEDRAL
Info: TIMING OUTPUT STEPS    1000000
Info: PRESSURE OUTPUT STEPS  100000
Info: LANGEVIN DYNAMICS ACTIVE
Info: LANGEVIN TEMPERATURE   30
Info: LANGEVIN USING BBK INTEGRATOR
Info: LANGEVIN DAMPING COEFFICIENT IS 1 INVERSE PS
Info: LANGEVIN DYNAMICS APPLIED TO HYDROGENS
Info: LANGEVIN PISTON PRESSURE CONTROL ACTIVE
Info:        TARGET PRESSURE IS 1.01325 BAR
Info:     OSCILLATION PERIOD IS 50 FS
Info:             DECAY TIME IS 25 FS
Info:     PISTON TEMPERATURE IS 300 K
Info:       PRESSURE CONTROL IS GROUP-BASED
Info:    INITIAL STRAIN RATE IS 0 0 0
Info:       CELL FLUCTUATION IS ISOTROPIC
Info: PARTICLE MESH EWALD (PME) ACTIVE
Info: PME TOLERANCE               1e-06
Info: PME EWALD COEFFICIENT       0.348832
Info: PME INTERPOLATION ORDER     4
Info: PME GRID DIMENSIONS         36 40 36
Info: PME MAXIMUM GRID SPACING    1
Info: FULL ELECTROSTATIC EVALUATION FREQUENCY      2
Info: USING VERLET I (r-RESPA) MTS SCHEME.
Info: C1 SPLITTING OF LONG RANGE ELECTROSTATICS
Info: PLACING ATOMS IN PATCHES BY HYDROGEN GROUPS
Info: RIGID BONDS TO HYDROGEN : ALL
Info:         ERROR TOLERANCE : 1e-08
Info:          MAX ITERATIONS : 100
Info: RIGID WATER USING SETTLE ALGORITHM
Info: RANDOM NUMBER SEED     1743246563
Info: USE HYDROGEN BONDS?    NO
Info: Using AMBER format force field!
Info: AMBER PARM FILE        mobley_4463913.prmtop
Info: COORDINATE PDB         mobley_4463913.pdb
Info: Exclusions will be read from PARM file!
Info: SCNB (VDW SCALING)     2
Info: USING ARITHMETIC MEAN TO COMBINE L-J SIGMA PARAMETERS
Info: BINARY COORDINATES     mobley_4463913_min.coor
Info: SUMMARY OF PARAMETERS:
Info: 9 BONDS
Info: 11 ANGLES
Info:   11 HARMONIC
Info:   0 COSINE-BASED
Info: 15 DIHEDRAL
Info: 0 IMPROPER
Info: 0 CROSSTERM
Info: 0 VDW
Info: 36 VDW_PAIRS
Info: 0 NBTHOLE_PAIRS
Info: STRUCTURE SUMMARY:
Info: 2927 ATOMS
Info: 2926 BONDS
Info: 32 ANGLES
Info: 59 DIHEDRALS
Info: 0 IMPROPERS
Info: 0 CROSSTERMS
Info: 2989 EXCLUSIONS
Info: 2917 RIGID BONDS
Info: 5864 DEGREES OF FREEDOM
Info: 979 HYDROGEN GROUPS
Info: 4 ATOMS IN LARGEST HYDROGEN GROUP
Info: 979 MIGRATION GROUPS
Info: 4 ATOMS IN LARGEST MIGRATION GROUP
Info: TOTAL MASS = 17603.6 amu
Info: TOTAL CHARGE = 0.000100084 e
Info: MASS DENSITY = 0.655335 g/cm^3
Info: ATOM DENSITY = 0.0656182 atoms/A^3
Info: ADDED 0 IMPLICIT EXCLUSIONS
Info: NONBONDED TABLE R-SQUARED SPACING: 0.0625
Info: NONBONDED TABLE SIZE: 705 POINTS
Info: REMOVING COM VELOCITY -0.125002 0.0324745 -0.0728644
TCL: Running for 100000 steps
ETITLE: TS BOND ANGLE DIHED IMPRP ELECT VDW BOUNDARY MISC KINETIC TOTAL TEMP POTENTIAL TOTAL3 TEMPAVG PRESSURE GPRESSURE VOLUME PRESSAVG GPRESSAVG
ENERGY: 0 0.0498 1.0118 9.0177 0.0000 -13646.0285 2424.3854 0.0000 0.0000 1751.3886 -9460.1753 300.5930 -11211.5638 -9459.8291 300.5930 607.2527 637.6319 44606.5300 607.2527 637.6319
ENERGY: 100000 0.3750 1.5774 9.2725 0.0000 -14282.9467 2536.0557 0.0000 0.0000 178.8615 -11556.8046 30.6982 -11735.6661 -11556.3989 30.9691 540.5859 590.7903 28957.5091 4.2749 4.2929
TCL: Running 100000 steps at 60 kelvin.
TCL: Setting parameter langevinTemp to 60
TCL: Running for 100000 steps
ETITLE: TS BOND ANGLE DIHED IMPRP ELECT VDW BOUNDARY MISC KINETIC TOTAL TEMP POTENTIAL TOTAL3 TEMPAVG PRESSURE GPRESSURE VOLUME PRESSAVG GPRESSAVG
ENERGY: 100000 0.3750 1.5774 9.2725 0.0000 -14282.9467 2536.0557 0.0000 0.0000 178.7726 -11556.8936 30.6830 -11735.6661 -11556.5068 30.6830 547.6242 590.8244 28957.5091 547.6242 590.8244
ENERGY: 200000 0.5003 2.2543 9.3855 0.0000 -14091.0057 2446.7124 0.0000 0.0000 352.4612 -11279.6920 60.4934 -11632.1532 -11278.7262 60.0168 101.5227 160.8879 29055.2661 4.5016 4.4475
TCL: Running 100000 steps at 90 kelvin.
TCL: Setting parameter langevinTemp to 90
TCL: Running for 100000 steps
ETITLE: TS BOND ANGLE DIHED IMPRP ELECT VDW BOUNDARY MISC KINETIC TOTAL TEMP POTENTIAL TOTAL3 TEMPAVG PRESSURE GPRESSURE VOLUME PRESSAVG GPRESSAVG
ENERGY: 200000 0.5003 2.2543 9.3855 0.0000 -14091.0057 2446.7124 0.0000 0.0000 352.2909 -11279.8623 60.4641 -11632.1532 -11279.0216 60.4641 110.2975 160.6573 29055.2661 110.2975 160.6573
ENERGY: 300000 1.1121 2.9790 9.6875 0.0000 -14006.3449 2421.3136 0.0000 0.0000 535.7697 -11035.4831 91.9548 -11571.2527 -11034.4653 90.0327 409.2718 481.7040 28407.2226 4.3008 4.4093
TCL: Running 100000 steps at 120 kelvin.
TCL: Setting parameter langevinTemp to 120
TCL: Running for 100000 steps
ETITLE: TS BOND ANGLE DIHED IMPRP ELECT VDW BOUNDARY MISC KINETIC TOTAL TEMP POTENTIAL TOTAL3 TEMPAVG PRESSURE GPRESSURE VOLUME PRESSAVG GPRESSAVG
ENERGY: 300000 1.1121 2.9790 9.6875 0.0000 -14006.3449 2421.3136 0.0000 0.0000 535.5149 -11035.7379 91.9111 -11571.2527 -11034.4659 91.9111 429.5481 481.5153 28407.2226 429.5481 481.5153
ENERGY: 400000 2.5366 5.4832 9.0074 0.0000 -13632.4107 2198.9555 0.0000 0.0000 715.6032 -10700.8248 122.8199 -11416.4280 -10699.2712 119.8719 -721.3837 -705.4303 28843.3418 3.2722 3.3465
TCL: Running 100000 steps at 150 kelvin.
TCL: Setting parameter langevinTemp to 150
TCL: Running for 100000 steps
ETITLE: TS BOND ANGLE DIHED IMPRP ELECT VDW BOUNDARY MISC KINETIC TOTAL TEMP POTENTIAL TOTAL3 TEMPAVG PRESSURE GPRESSURE VOLUME PRESSAVG GPRESSAVG
ENERGY: 400000 2.5366 5.4832 9.0074 0.0000 -13632.4107 2198.9555 0.0000 0.0000 715.2608 -10701.1672 122.7611 -11416.4280 -10699.6583 122.7611 -746.7794 -705.8376 28843.3418 -746.7794 -705.8376
ENERGY: 500000 2.1003 5.3940 10.4363 0.0000 -13628.1824 2353.4370 0.0000 0.0000 866.0851 -10390.7298 148.6473 -11256.8148 -10389.2655 149.8535 968.2359 1026.5726 28669.6685 4.5593 4.7194
TCL: Running 100000 steps at 180 kelvin.
TCL: Setting parameter langevinTemp to 180
TCL: Running for 100000 steps
ETITLE: TS BOND ANGLE DIHED IMPRP ELECT VDW BOUNDARY MISC KINETIC TOTAL TEMP POTENTIAL TOTAL3 TEMPAVG PRESSURE GPRESSURE VOLUME PRESSAVG GPRESSAVG
ENERGY: 500000 2.1003 5.3940 10.4363 0.0000 -13628.1824 2353.4370 0.0000 0.0000 865.6354 -10391.1794 148.5701 -11256.8148 -10389.8744 148.5701 984.4405 1025.8720 28669.6685 984.4405 1025.8720
ENERGY: 600000 1.7394 6.8123 9.6643 0.0000 -13182.5482 2186.8109 0.0000 0.0000 1055.5305 -9921.9908 181.1620 -10977.5213 -9920.6517 180.2631 831.4456 865.3856 28568.2183 2.9564 3.0406
TCL: Running 100000 steps at 210 kelvin.
TCL: Setting parameter langevinTemp to 210
TCL: Running for 100000 steps
ETITLE: TS BOND ANGLE DIHED IMPRP ELECT VDW BOUNDARY MISC KINETIC TOTAL TEMP POTENTIAL TOTAL3 TEMPAVG PRESSURE GPRESSURE VOLUME PRESSAVG GPRESSAVG
ENERGY: 600000 1.7394 6.8123 9.6643 0.0000 -13182.5482 2186.8109 0.0000 0.0000 1054.9990 -9922.5223 181.0708 -10977.5213 -9921.0065 181.0708 815.5681 865.3338 28568.2183 815.5681 865.3338
ENERGY: 700000 1.3001 5.6211 11.3717 0.0000 -12384.8103 1850.1106 0.0000 0.0000 1224.2502 -9292.1567 210.1196 -10516.4069 -9288.7133 210.0764 -626.4003 -574.9950 29096.2905 4.8443 4.8894
TCL: Running 100000 steps at 240 kelvin.
TCL: Setting parameter langevinTemp to 240
TCL: Running for 100000 steps
ETITLE: TS BOND ANGLE DIHED IMPRP ELECT VDW BOUNDARY MISC KINETIC TOTAL TEMP POTENTIAL TOTAL3 TEMPAVG PRESSURE GPRESSURE VOLUME PRESSAVG GPRESSAVG
ENERGY: 700000 1.3001 5.6211 11.3717 0.0000 -12384.8103 1850.1106 0.0000 0.0000 1223.6385 -9292.7684 210.0146 -10516.4069 -9290.2544 210.0146 -646.4487 -575.7105 29096.2905 -646.4487 -575.7105
ENERGY: 800000 2.8023 5.7100 8.8275 0.0000 -11866.2592 1706.8598 0.0000 0.0000 1447.6639 -8694.3959 248.4644 -10142.0597 -8691.9321 240.0554 -195.7086 -85.5612 28548.8454 3.8754 3.9018
TCL: Running 100000 steps at 270 kelvin.
TCL: Setting parameter langevinTemp to 270
TCL: Running for 100000 steps
ETITLE: TS BOND ANGLE DIHED IMPRP ELECT VDW BOUNDARY MISC KINETIC TOTAL TEMP POTENTIAL TOTAL3 TEMPAVG PRESSURE GPRESSURE VOLUME PRESSAVG GPRESSAVG
ENERGY: 800000 2.8023 5.7100 8.8275 0.0000 -11866.2592 1706.8598 0.0000 0.0000 1446.9362 -8695.1235 248.3395 -10142.0597 -8692.4578 248.3395 -162.1024 -86.4866 28548.8454 -162.1024 -86.4866
ENERGY: 900000 3.1268 8.7156 13.3471 0.0000 -11177.2338 1538.2976 0.0000 0.0000 1564.4440 -8049.3027 268.5075 -9613.7467 -8046.3385 269.1387 -148.8444 -51.0943 29773.6311 3.6372 3.7876
TCL: Running 1000000 steps at 300 kelvin.
TCL: Setting parameter langevinTemp to 300
TCL: Running for 1000000 steps
ETITLE: TS BOND ANGLE DIHED IMPRP ELECT VDW BOUNDARY MISC KINETIC TOTAL TEMP POTENTIAL TOTAL3 TEMPAVG PRESSURE GPRESSURE VOLUME PRESSAVG GPRESSAVG
ENERGY: 900000 3.1268 8.7156 13.3471 0.0000 -11177.2338 1538.2976 0.0000 0.0000 1563.6740 -8050.0727 268.3754 -9613.7467 -8047.5035 268.3754 -139.6592 -50.5662 29773.6311 -139.6592 -50.5662
ENERGY: 1100000 2.9259 10.6581 13.7795 0.0000 -10620.8645 1392.4175 0.0000 0.0000 1751.0306 -7450.0528 300.5316 -9201.0835 -7447.5921 300.3486 -182.4652 -98.3997 30287.5328 3.3086 3.2611
ENERGY: 1300000 0.4283 7.4251 10.6839 0.0000 -10561.0301 1371.2123 0.0000 0.0000 1742.3189 -7428.9615 299.0364 -9171.2804 -7427.2179 300.5820 -174.0187 -177.8328 30325.5039 3.5108 3.4215
ENERGY: 1500000 1.9939 11.3438 11.0505 0.0000 -10762.0607 1491.7245 0.0000 0.0000 1765.8274 -7480.1207 303.0712 -9245.9481 -7478.7886 300.1672 416.2004 530.8520 30326.5700 4.5707 4.5531
ENERGY: 1700000 7.1537 6.9765 12.1349 0.0000 -10585.7481 1392.9963 0.0000 0.0000 1790.2331 -7376.2535 307.2600 -9166.4867 -7373.1849 300.2650 -469.1855 -356.1645 30827.6496 3.0987 3.0742
ENERGY: 1900000 2.1552 8.4639 9.0174 0.0000 -10588.5879 1308.4057 0.0000 0.0000 1715.9127 -7544.6332 294.5043 -9260.5458 -7539.5695 299.5832 -796.1176 -700.0865 30052.2194 3.6678 3.5928
TCL: Exiting due to exit command.
