Info: SIMULATION PARAMETERS:
Info: TIMESTEP               2
Info: NUMBER OF STEPS        0
Info: STEPS PER CYCLE        10
Info: PERIODIC CELL BASIS 1  36.592 0 0
Info: PERIODIC CELL BASIS 2  0 35.847 0
Info: PERIODIC CELL BASIS 3  0 0 34.471
Info: PERIODIC CELL CENTER   0 0 0
Info: WRAPPING WATERS AROUND PERIODIC BOUNDARIES ON OUTPUT.
Info: WRAPPING ALL CLUSTERS AROUND PERIODIC BOUNDARIES ON OUTPUT.
Info: FIRST LDB TIMESTEP     50
Info: LAST LDB TIMESTEP     -1
Info: HOM BACKGROUND SCALING 1
Info: PME BACKGROUND SCALING 1
Info: MIN ATOMS PER PATCH    40
Info: EMPTY PATCH LOAD       40 ATOMS
Info: INITIAL TEMPERATURE    300
Info: CENTER OF MASS MOVING INITIALLY? NO
Info: DIELECTRIC             1
Info: EXCLUDE                SCALED ONE-FOUR
Info: 1-4 ELECTROSTATICS SCALED BY 0.833333
Info: MODIFIED 1-4 VDW PARAMETERS WILL BE USED
Info: DCD FILENAME           mobley_8449031_equil.dcd
Info: DCD FREQUENCY          100000
Info: DCD FIRST STEP         100000
Info: DCD FILE WILL CONTAIN UNIT CELL DATA
Info: XST FILENAME           mobley_8449031_equil.xst
Info: XST FREQUENCY          100000
Info: NO VELOCITY DCD OUTPUT
Info: NO FORCE DCD OUTPUT
Info: OUTPUT FILENAME        mobley_8449031_equil
Info: BINARY OUTPUT FILES WILL BE USED
Info: RESTART FILENAME       mobley_8449031_equil.restart
Info: RESTART FREQUENCY      100000
Info: BINARY RESTART FILES WILL BE USED
Info: CUTOFF                 9
Info: PAIRLIST DISTANCE      11
Info: PAIRLIST SHRINK RATE   0.01
Info: PAIRLIST GROW RATE     0.01
Info: PAIRLIST TRIGGER       0.3
Info: PAIRLISTS PER CYCLE    2
Info: PAIRLISTS ENABLED
Info: MARGIN                 8
Info: HYDROGEN GROUP CUTOFF  2.5
Info: PATCH DIMENSION        21.5
Info: ENERGY OUTPUT STEPS    100000
Info: ENERGY EVALUATION STEPS    100000
Info: OUTPUT ENERGY PRECISION 4
Info: CROSSTERM ENERGY INCLUDED IN DIHEDRAL
Info: TIMING OUTPUT STEPS    1000000
Info: PRESSURE OUTPUT STEPS  100000
Info: LANGEVIN DYNAMICS ACTIVE
Info: LANGEVIN TEMPERATURE   30
Info: LANGEVIN USING BBK INTEGRATOR
Info: LANGEVIN DAMPING COEFFICIENT IS 1 INVERSE PS
Info: LANGEVIN DYNAMICS APPLIED TO HYDROGENS
Info: LANGEVIN PISTON PRESSURE CONTROL ACTIVE
Info:        TARGET PRESSURE IS 1.01325 BAR
Info:     OSCILLATION PERIOD IS 50 FS
Info:             DECAY TIME IS 25 FS
Info:     PISTON TEMPERATURE IS 300 K
Info:       PRESSURE CONTROL IS GROUP-BASED
Info:    INITIAL STRAIN RATE IS 0 0 0
Info:       CELL FLUCTUATION IS ISOTROPIC
Info: PARTICLE MESH EWALD (PME) ACTIVE
Info: PME TOLERANCE               1e-06
Info: PME EWALD COEFFICIENT       0.348832
Info: PME INTERPOLATION ORDER     4
Info: PME GRID DIMENSIONS         40 36 36
Info: PME MAXIMUM GRID SPACING    1
Info: FULL ELECTROSTATIC EVALUATION FREQUENCY      2
Info: USING VERLET I (r-RESPA) MTS SCHEME.
Info: C1 SPLITTING OF LONG RANGE ELECTROSTATICS
Info: PLACING ATOMS IN PATCHES BY HYDROGEN GROUPS
Info: RIGID BONDS TO HYDROGEN : ALL
Info:         ERROR TOLERANCE : 1e-08
Info:          MAX ITERATIONS : 100
Info: RIGID WATER USING SETTLE ALGORITHM
Info: RANDOM NUMBER SEED     1743251454
Info: USE HYDROGEN BONDS?    NO
Info: Using AMBER format force field!
Info: AMBER PARM FILE        mobley_8449031.prmtop
Info: COORDINATE PDB         mobley_8449031.pdb
Info: Exclusions will be read from PARM file!
Info: SCNB (VDW SCALING)     2
Info: USING ARITHMETIC MEAN TO COMBINE L-J SIGMA PARAMETERS
Info: BINARY COORDINATES     mobley_8449031_min.coor
Info: SUMMARY OF PARAMETERS:
Info: 6 BONDS
Info: 7 ANGLES
Info:   7 HARMONIC
Info:   0 COSINE-BASED
Info: 3 DIHEDRAL
Info: 0 IMPROPER
Info: 0 CROSSTERM
Info: 0 VDW
Info: 21 VDW_PAIRS
Info: 0 NBTHOLE_PAIRS
Info: STRUCTURE SUMMARY:
Info: 2965 ATOMS
Info: 2964 BONDS
Info: 39 ANGLES
Info: 51 DIHEDRALS
Info: 0 IMPROPERS
Info: 0 CROSSTERMS
Info: 3048 EXCLUSIONS
Info: 2958 RIGID BONDS
Info: 5937 DEGREES OF FREEDOM
Info: 988 HYDROGEN GROUPS
Info: 4 ATOMS IN LARGEST HYDROGEN GROUP
Info: 988 MIGRATION GROUPS
Info: 4 ATOMS IN LARGEST MIGRATION GROUP
Info: TOTAL MASS = 17774.9 amu
Info: TOTAL CHARGE = -0.000100035 e
Info: MASS DENSITY = 0.65279 g/cm^3
Info: ATOM DENSITY = 0.065574 atoms/A^3
Info: ADDED 0 IMPLICIT EXCLUSIONS
Info: NONBONDED TABLE R-SQUARED SPACING: 0.0625
Info: NONBONDED TABLE SIZE: 705 POINTS
Info: REMOVING COM VELOCITY -0.0501902 -0.122973 0.0491746
TCL: Running for 100000 steps
ETITLE: TS BOND ANGLE DIHED IMPRP ELECT VDW BOUNDARY MISC KINETIC TOTAL TEMP POTENTIAL TOTAL3 TEMPAVG PRESSURE GPRESSURE VOLUME PRESSAVG GPRESSAVG
ENERGY: 0 0.6583 1.4913 2.6415 0.0000 -13682.9108 2433.9932 0.0000 0.0000 1817.9542 -9426.1723 308.1813 -11244.1265 -9425.8216 308.1813 602.6836 642.8091 45216.0734 602.6836 642.8091
ENERGY: 100000 0.7745 2.4358 2.5247 0.0000 -14288.9194 2468.5007 0.0000 0.0000 175.3826 -11639.3010 29.7310 -11814.6837 -11638.7902 30.8685 -98.2715 -72.1356 28393.7748 3.6328 3.6098
TCL: Running 100000 steps at 60 kelvin.
TCL: Setting parameter langevinTemp to 60
TCL: Running for 100000 steps
ETITLE: TS BOND ANGLE DIHED IMPRP ELECT VDW BOUNDARY MISC KINETIC TOTAL TEMP POTENTIAL TOTAL3 TEMPAVG PRESSURE GPRESSURE VOLUME PRESSAVG GPRESSAVG
ENERGY: 100000 0.7745 2.4358 2.5247 0.0000 -14288.9194 2468.5007 0.0000 0.0000 175.2919 -11639.3917 29.7156 -11814.6837 -11638.9420 29.7156 -130.3193 -72.0186 28393.7748 -130.3193 -72.0186
ENERGY: 200000 1.5347 3.1752 2.6900 0.0000 -14198.5527 2457.3325 0.0000 0.0000 363.4079 -11370.4124 61.6052 -11733.8203 -11369.2732 59.8066 181.3656 241.7146 28347.4894 4.8893 4.8803
TCL: Running 100000 steps at 90 kelvin.
TCL: Setting parameter langevinTemp to 90
TCL: Running for 100000 steps
ETITLE: TS BOND ANGLE DIHED IMPRP ELECT VDW BOUNDARY MISC KINETIC TOTAL TEMP POTENTIAL TOTAL3 TEMPAVG PRESSURE GPRESSURE VOLUME PRESSAVG GPRESSAVG
ENERGY: 200000 1.5347 3.1752 2.6900 0.0000 -14198.5527 2457.3325 0.0000 0.0000 363.2327 -11370.5876 61.5756 -11733.8203 -11369.8066 61.5756 179.0361 241.7223 28347.4894 179.0361 241.7223
ENERGY: 300000 1.6531 4.2508 3.2539 0.0000 -13991.0985 2348.5871 0.0000 0.0000 520.4967 -11112.8569 88.2351 -11633.3536 -11110.7026 90.0748 -341.1987 -284.7588 28564.2972 4.6284 4.6344
TCL: Running 100000 steps at 120 kelvin.
TCL: Setting parameter langevinTemp to 120
TCL: Running for 100000 steps
ETITLE: TS BOND ANGLE DIHED IMPRP ELECT VDW BOUNDARY MISC KINETIC TOTAL TEMP POTENTIAL TOTAL3 TEMPAVG PRESSURE GPRESSURE VOLUME PRESSAVG GPRESSAVG
ENERGY: 300000 1.6531 4.2508 3.2539 0.0000 -13991.0985 2348.5871 0.0000 0.0000 520.2340 -11113.1196 88.1906 -11633.3536 -11112.1554 88.1906 -343.3963 -283.6910 28564.2972 -343.3963 -283.6910
ENERGY: 400000 1.7388 3.6871 3.2820 0.0000 -13850.8114 2339.6811 0.0000 0.0000 716.9217 -10785.5008 121.5332 -11502.4225 -10783.7928 119.9074 -124.3080 -54.7941 28809.1037 4.4510 4.5089
TCL: Running 100000 steps at 150 kelvin.
TCL: Setting parameter langevinTemp to 150
TCL: Running for 100000 steps
ETITLE: TS BOND ANGLE DIHED IMPRP ELECT VDW BOUNDARY MISC KINETIC TOTAL TEMP POTENTIAL TOTAL3 TEMPAVG PRESSURE GPRESSURE VOLUME PRESSAVG GPRESSAVG
ENERGY: 400000 1.7388 3.6871 3.2820 0.0000 -13850.8114 2339.6811 0.0000 0.0000 716.5670 -10785.8555 121.4731 -11502.4225 -10784.4549 121.4731 -116.1931 -54.6886 28809.1037 -116.1931 -54.6886
ENERGY: 500000 0.3533 7.5870 3.5038 0.0000 -13554.6505 2241.8826 0.0000 0.0000 932.9167 -10368.4072 158.1489 -11301.3239 -10365.6793 149.6246 26.5750 114.1479 28711.9688 4.2786 4.2301
TCL: Running 100000 steps at 180 kelvin.
TCL: Setting parameter langevinTemp to 180
TCL: Running for 100000 steps
ETITLE: TS BOND ANGLE DIHED IMPRP ELECT VDW BOUNDARY MISC KINETIC TOTAL TEMP POTENTIAL TOTAL3 TEMPAVG PRESSURE GPRESSURE VOLUME PRESSAVG GPRESSAVG
ENERGY: 500000 0.3533 7.5870 3.5038 0.0000 -13554.6505 2241.8826 0.0000 0.0000 932.4966 -10368.8273 158.0777 -11301.3239 -10367.0868 158.0777 78.7253 115.1904 28711.9688 78.7253 115.1904
ENERGY: 600000 1.1597 5.8668 5.1533 0.0000 -13153.5152 2131.3511 0.0000 0.0000 1050.3709 -9959.6134 178.0599 -11009.9843 -9956.3998 180.0417 6.2390 74.1787 29196.8900 4.9825 5.0739
TCL: Running 100000 steps at 210 kelvin.
TCL: Setting parameter langevinTemp to 210
TCL: Running for 100000 steps
ETITLE: TS BOND ANGLE DIHED IMPRP ELECT VDW BOUNDARY MISC KINETIC TOTAL TEMP POTENTIAL TOTAL3 TEMPAVG PRESSURE GPRESSURE VOLUME PRESSAVG GPRESSAVG
ENERGY: 600000 1.1597 5.8668 5.1533 0.0000 -13153.5152 2131.3511 0.0000 0.0000 1049.8573 -9960.1269 177.9728 -11009.9843 -9957.9528 177.9728 4.9857 74.9636 29196.8900 4.9857 74.9636
ENERGY: 700000 0.4661 7.5357 4.9660 0.0000 -12573.3819 1946.5630 0.0000 0.0000 1252.6999 -9361.1513 212.3589 -10613.8511 -9358.0156 209.8732 353.7905 404.6251 28669.8728 3.6054 3.8071
TCL: Running 100000 steps at 240 kelvin.
TCL: Setting parameter langevinTemp to 240
TCL: Running for 100000 steps
ETITLE: TS BOND ANGLE DIHED IMPRP ELECT VDW BOUNDARY MISC KINETIC TOTAL TEMP POTENTIAL TOTAL3 TEMPAVG PRESSURE GPRESSURE VOLUME PRESSAVG GPRESSAVG
ENERGY: 700000 0.4661 7.5357 4.9660 0.0000 -12573.3819 1946.5630 0.0000 0.0000 1252.0774 -9361.7738 212.2533 -10613.8511 -9359.9159 212.2533 342.0416 404.7415 28669.8728 342.0416 404.7415
ENERGY: 800000 0.9004 13.7686 3.3086 0.0000 -11762.7315 1635.6749 0.0000 0.0000 1405.7159 -8703.3631 238.2983 -10109.0790 -8701.6500 239.2012 -761.5603 -723.1840 29428.4818 2.9456 2.7362
TCL: Running 100000 steps at 270 kelvin.
TCL: Setting parameter langevinTemp to 270
TCL: Running for 100000 steps
ETITLE: TS BOND ANGLE DIHED IMPRP ELECT VDW BOUNDARY MISC KINETIC TOTAL TEMP POTENTIAL TOTAL3 TEMPAVG PRESSURE GPRESSURE VOLUME PRESSAVG GPRESSAVG
ENERGY: 800000 0.9004 13.7686 3.3086 0.0000 -11762.7315 1635.6749 0.0000 0.0000 1405.0097 -8704.0693 238.1786 -10109.0790 -8701.2092 238.1786 -806.7980 -725.6686 29428.4818 -806.7980 -725.6686
ENERGY: 900000 2.0463 7.2496 6.0261 0.0000 -11367.8399 1650.0508 0.0000 0.0000 1604.6460 -8097.8212 272.0211 -9702.4671 -8093.6421 270.0018 456.9741 575.1214 29818.7061 3.2292 3.1899
TCL: Running 1000000 steps at 300 kelvin.
TCL: Setting parameter langevinTemp to 300
TCL: Running for 1000000 steps
ETITLE: TS BOND ANGLE DIHED IMPRP ELECT VDW BOUNDARY MISC KINETIC TOTAL TEMP POTENTIAL TOTAL3 TEMPAVG PRESSURE GPRESSURE VOLUME PRESSAVG GPRESSAVG
ENERGY: 900000 2.0463 7.2496 6.0261 0.0000 -11367.8399 1650.0508 0.0000 0.0000 1603.8687 -8098.5984 271.8893 -9702.4671 -8096.2394 271.8893 483.9694 576.4093 29818.7061 483.9694 576.4093
ENERGY: 1100000 2.7320 11.4239 5.3309 0.0000 -10767.8214 1452.2475 0.0000 0.0000 1823.4719 -7472.6153 309.1167 -9296.0872 -7469.3794 299.5475 -41.3111 23.9927 30459.7211 2.9388 2.9732
ENERGY: 1300000 4.1022 6.2525 6.1988 0.0000 -10710.4111 1490.4231 0.0000 0.0000 1703.8988 -7499.5357 288.8465 -9203.4345 -7496.3488 300.1767 333.2341 475.2966 30805.9774 2.6014 2.6773
ENERGY: 1500000 1.5829 11.5015 2.8644 0.0000 -10686.4967 1459.6955 0.0000 0.0000 1755.8091 -7455.0433 297.6464 -9210.8524 -7451.9813 300.0202 394.8906 488.1447 30371.9647 4.0952 4.2165
ENERGY: 1700000 2.1114 15.2115 3.1236 0.0000 -10755.6363 1420.5115 0.0000 0.0000 1795.0805 -7519.5978 304.3037 -9314.6783 -7516.6925 299.8991 -364.6828 -255.2690 30639.9378 2.0214 2.0412
ENERGY: 1900000 1.4442 8.0441 4.2707 0.0000 -10746.6100 1432.1500 0.0000 0.0000 1740.8817 -7559.8193 295.1159 -9300.7010 -7556.8021 300.1984 -5.8951 62.0398 30183.2710 4.1599 4.2434
TCL: Exiting due to exit command.
