Info: SIMULATION PARAMETERS:
Info: TIMESTEP               2
Info: NUMBER OF STEPS        0
Info: STEPS PER CYCLE        10
Info: PERIODIC CELL BASIS 1  36.592 0 0
Info: PERIODIC CELL BASIS 2  0 34.1 0
Info: PERIODIC CELL BASIS 3  0 0 35.723
Info: PERIODIC CELL CENTER   0 0 0
Info: WRAPPING WATERS AROUND PERIODIC BOUNDARIES ON OUTPUT.
Info: WRAPPING ALL CLUSTERS AROUND PERIODIC BOUNDARIES ON OUTPUT.
Info: FIRST LDB TIMESTEP     50
Info: LAST LDB TIMESTEP     -1
Info: HOM BACKGROUND SCALING 1
Info: PME BACKGROUND SCALING 1
Info: MIN ATOMS PER PATCH    40
Info: EMPTY PATCH LOAD       40 ATOMS
Info: INITIAL TEMPERATURE    300
Info: CENTER OF MASS MOVING INITIALLY? NO
Info: DIELECTRIC             1
Info: EXCLUDE                SCALED ONE-FOUR
Info: 1-4 ELECTROSTATICS SCALED BY 0.833333
Info: MODIFIED 1-4 VDW PARAMETERS WILL BE USED
Info: DCD FILENAME           mobley_1199854_equil.dcd
Info: DCD FREQUENCY          100000
Info: DCD FIRST STEP         100000
Info: DCD FILE WILL CONTAIN UNIT CELL DATA
Info: XST FILENAME           mobley_1199854_equil.xst
Info: XST FREQUENCY          100000
Info: NO VELOCITY DCD OUTPUT
Info: NO FORCE DCD OUTPUT
Info: OUTPUT FILENAME        mobley_1199854_equil
Info: BINARY OUTPUT FILES WILL BE USED
Info: RESTART FILENAME       mobley_1199854_equil.restart
Info: RESTART FREQUENCY      100000
Info: BINARY RESTART FILES WILL BE USED
Info: CUTOFF                 9
Info: PAIRLIST DISTANCE      11
Info: PAIRLIST SHRINK RATE   0.01
Info: PAIRLIST GROW RATE     0.01
Info: PAIRLIST TRIGGER       0.3
Info: PAIRLISTS PER CYCLE    2
Info: PAIRLISTS ENABLED
Info: MARGIN                 8
Info: HYDROGEN GROUP CUTOFF  2.5
Info: PATCH DIMENSION        21.5
Info: ENERGY OUTPUT STEPS    100000
Info: ENERGY EVALUATION STEPS    100000
Info: OUTPUT ENERGY PRECISION 4
Info: CROSSTERM ENERGY INCLUDED IN DIHEDRAL
Info: TIMING OUTPUT STEPS    1000000
Info: PRESSURE OUTPUT STEPS  100000
Info: LANGEVIN DYNAMICS ACTIVE
Info: LANGEVIN TEMPERATURE   30
Info: LANGEVIN USING BBK INTEGRATOR
Info: LANGEVIN DAMPING COEFFICIENT IS 1 INVERSE PS
Info: LANGEVIN DYNAMICS APPLIED TO HYDROGENS
Info: LANGEVIN PISTON PRESSURE CONTROL ACTIVE
Info:        TARGET PRESSURE IS 1.01325 BAR
Info:     OSCILLATION PERIOD IS 50 FS
Info:             DECAY TIME IS 25 FS
Info:     PISTON TEMPERATURE IS 300 K
Info:       PRESSURE CONTROL IS GROUP-BASED
Info:    INITIAL STRAIN RATE IS 0 0 0
Info:       CELL FLUCTUATION IS ISOTROPIC
Info: PARTICLE MESH EWALD (PME) ACTIVE
Info: PME TOLERANCE               1e-06
Info: PME EWALD COEFFICIENT       0.348832
Info: PME INTERPOLATION ORDER     4
Info: PME GRID DIMENSIONS         40 36 36
Info: PME MAXIMUM GRID SPACING    1
Info: FULL ELECTROSTATIC EVALUATION FREQUENCY      2
Info: USING VERLET I (r-RESPA) MTS SCHEME.
Info: C1 SPLITTING OF LONG RANGE ELECTROSTATICS
Info: PLACING ATOMS IN PATCHES BY HYDROGEN GROUPS
Info: RIGID BONDS TO HYDROGEN : ALL
Info:         ERROR TOLERANCE : 1e-08
Info:          MAX ITERATIONS : 100
Info: RIGID WATER USING SETTLE ALGORITHM
Info: RANDOM NUMBER SEED     1743224752
Info: USE HYDROGEN BONDS?    NO
Info: Using AMBER format force field!
Info: AMBER PARM FILE        mobley_1199854.prmtop
Info: COORDINATE PDB         mobley_1199854.pdb
Info: Exclusions will be read from PARM file!
Info: SCNB (VDW SCALING)     2
Info: USING ARITHMETIC MEAN TO COMBINE L-J SIGMA PARAMETERS
Info: BINARY COORDINATES     mobley_1199854_min.coor
Info: SUMMARY OF PARAMETERS:
Info: 6 BONDS
Info: 7 ANGLES
Info: 3 DIHEDRAL
Info: 0 IMPROPER
Info: 0 CROSSTERM
Info: 0 VDW
Info: 21 VDW_PAIRS
Info: 0 NBTHOLE_PAIRS
Info: STRUCTURE SUMMARY:
Info: 2951 ATOMS
Info: 2950 BONDS
Info: 18 ANGLES
Info: 18 DIHEDRALS
Info: 0 IMPROPERS
Info: 0 CROSSTERMS
Info: 2986 EXCLUSIONS
Info: 2947 RIGID BONDS
Info: 5906 DEGREES OF FREEDOM
Info: 984 HYDROGEN GROUPS
Info: 4 ATOMS IN LARGEST HYDROGEN GROUP
Info: 984 MIGRATION GROUPS
Info: 4 ATOMS IN LARGEST MIGRATION GROUP
Info: TOTAL MASS = 17825.7 amu
Info: TOTAL CHARGE = 2.23517e-08 e
Info: MASS DENSITY = 0.664074 g/cm^3
Info: ATOM DENSITY = 0.0662035 atoms/A^3
Info: ADDED 0 IMPLICIT EXCLUSIONS
Info: NONBONDED TABLE R-SQUARED SPACING: 0.0625
Info: NONBONDED TABLE SIZE: 705 POINTS
Info: REMOVING COM VELOCITY 0.0675506 0.237946 -0.134699
TCL: Running for 100000 steps
ETITLE: TS BOND ANGLE DIHED IMPRP ELECT VDW BOUNDARY MISC KINETIC TOTAL TEMP POTENTIAL TOTAL3 TEMPAVG PRESSURE GPRESSURE VOLUME PRESSAVG GPRESSAVG
ENERGY: 0 0.0060 0.2083 0.0104 0.0000 -13721.9984 2446.7812 0.0000 0.0000 1777.3611 -9497.6314 302.8814 -11274.9925 -9497.2858 302.8814 633.5048 673.7444 44574.7021 633.5048 673.7444
ENERGY: 100000 0.1453 0.5649 0.0683 0.0000 -14256.9261 2475.4609 0.0000 0.0000 169.8164 -11610.8703 28.9385 -11780.6866 -11610.5584 30.9309 8.3501 39.6908 28692.0290 4.4114 4.4256
TCL: Running 100000 steps at 60 kelvin.
TCL: Setting parameter langevinTemp to 60
TCL: Running for 100000 steps
ETITLE: TS BOND ANGLE DIHED IMPRP ELECT VDW BOUNDARY MISC KINETIC TOTAL TEMP POTENTIAL TOTAL3 TEMPAVG PRESSURE GPRESSURE VOLUME PRESSAVG GPRESSAVG
ENERGY: 100000 0.1453 0.5649 0.0683 0.0000 -14256.9261 2475.4609 0.0000 0.0000 169.7275 -11610.9591 28.9234 -11780.6866 -11610.6094 28.9234 -11.4974 39.5420 28692.0290 -11.4974 39.5420
ENERGY: 200000 0.3166 1.8311 0.0668 0.0000 -14130.7946 2445.5864 0.0000 0.0000 359.9928 -11323.0008 61.3466 -11682.9935 -11321.7266 59.9417 297.3219 387.9070 28491.3687 5.0623 5.0137
TCL: Running 100000 steps at 90 kelvin.
TCL: Setting parameter langevinTemp to 90
TCL: Running for 100000 steps
ETITLE: TS BOND ANGLE DIHED IMPRP ELECT VDW BOUNDARY MISC KINETIC TOTAL TEMP POTENTIAL TOTAL3 TEMPAVG PRESSURE GPRESSURE VOLUME PRESSAVG GPRESSAVG
ENERGY: 200000 0.3166 1.8311 0.0668 0.0000 -14130.7946 2445.5864 0.0000 0.0000 359.8142 -11323.1793 61.3162 -11682.9935 -11322.4758 61.3162 330.7489 388.2674 28491.3687 330.7489 388.2674
ENERGY: 300000 0.1493 1.9434 0.0426 0.0000 -13935.1776 2330.1819 0.0000 0.0000 520.2391 -11082.6213 88.6543 -11602.8604 -11081.2382 89.9313 -336.5589 -308.7179 28404.9927 3.2539 3.2320
TCL: Running 100000 steps at 120 kelvin.
TCL: Setting parameter langevinTemp to 120
TCL: Running for 100000 steps
ETITLE: TS BOND ANGLE DIHED IMPRP ELECT VDW BOUNDARY MISC KINETIC TOTAL TEMP POTENTIAL TOTAL3 TEMPAVG PRESSURE GPRESSURE VOLUME PRESSAVG GPRESSAVG
ENERGY: 300000 0.1493 1.9434 0.0426 0.0000 -13935.1776 2330.1819 0.0000 0.0000 519.9793 -11082.8811 88.6101 -11602.8604 -11081.7126 88.6101 -357.0209 -308.7100 28404.9927 -357.0209 -308.7100
ENERGY: 400000 0.2603 1.9928 0.0872 0.0000 -13796.8268 2304.8089 0.0000 0.0000 738.5345 -10751.1431 125.8542 -11489.6776 -10748.8793 120.0182 -75.6541 26.4128 28217.6257 4.1118 3.9978
TCL: Running 100000 steps at 150 kelvin.
TCL: Setting parameter langevinTemp to 150
TCL: Running for 100000 steps
ETITLE: TS BOND ANGLE DIHED IMPRP ELECT VDW BOUNDARY MISC KINETIC TOTAL TEMP POTENTIAL TOTAL3 TEMPAVG PRESSURE GPRESSURE VOLUME PRESSAVG GPRESSAVG
ENERGY: 400000 0.2603 1.9928 0.0872 0.0000 -13796.8268 2304.8089 0.0000 0.0000 738.1835 -10751.4941 125.7944 -11489.6776 -10750.2555 125.7944 -26.8139 26.5709 28217.6257 -26.8139 26.5709
ENERGY: 500000 0.7048 2.3526 0.1357 0.0000 -13620.6471 2331.1223 0.0000 0.0000 888.0260 -10398.3057 151.3292 -11286.3318 -10395.9485 150.0260 817.5598 845.5747 28302.6901 4.2694 4.2524
TCL: Running 100000 steps at 180 kelvin.
TCL: Setting parameter langevinTemp to 180
TCL: Running for 100000 steps
ETITLE: TS BOND ANGLE DIHED IMPRP ELECT VDW BOUNDARY MISC KINETIC TOTAL TEMP POTENTIAL TOTAL3 TEMPAVG PRESSURE GPRESSURE VOLUME PRESSAVG GPRESSAVG
ENERGY: 500000 0.7048 2.3526 0.1357 0.0000 -13620.6471 2331.1223 0.0000 0.0000 887.5905 -10398.7412 151.2550 -11286.3318 -10397.0432 151.2550 804.4984 845.6669 28302.6901 804.4984 845.6669
ENERGY: 600000 0.2830 3.3394 0.8809 0.0000 -13114.2230 2126.0302 0.0000 0.0000 1071.3090 -9912.3806 182.5625 -10983.6896 -9910.6103 179.8287 123.5962 171.7180 28759.4654 3.1584 3.1941
TCL: Running 100000 steps at 210 kelvin.
TCL: Setting parameter langevinTemp to 210
TCL: Running for 100000 steps
ETITLE: TS BOND ANGLE DIHED IMPRP ELECT VDW BOUNDARY MISC KINETIC TOTAL TEMP POTENTIAL TOTAL3 TEMPAVG PRESSURE GPRESSURE VOLUME PRESSAVG GPRESSAVG
ENERGY: 600000 0.2830 3.3394 0.8809 0.0000 -13114.2230 2126.0302 0.0000 0.0000 1070.7668 -9912.9228 182.4702 -10983.6896 -9910.6428 182.4702 109.7738 171.1840 28759.4654 109.7738 171.1840
ENERGY: 700000 0.6157 3.3397 0.1054 0.0000 -12309.7928 1851.6351 0.0000 0.0000 1194.3024 -9259.7945 203.5219 -10454.0969 -9257.0184 209.8307 -226.4133 -153.7916 28940.3448 4.5467 4.5788
TCL: Running 100000 steps at 240 kelvin.
TCL: Setting parameter langevinTemp to 240
TCL: Running for 100000 steps
ETITLE: TS BOND ANGLE DIHED IMPRP ELECT VDW BOUNDARY MISC KINETIC TOTAL TEMP POTENTIAL TOTAL3 TEMPAVG PRESSURE GPRESSURE VOLUME PRESSAVG GPRESSAVG
ENERGY: 700000 0.6157 3.3397 0.1054 0.0000 -12309.7928 1851.6351 0.0000 0.0000 1193.6790 -9260.4178 203.4157 -10454.0969 -9258.1884 203.4157 -231.5669 -154.5323 28940.3448 -231.5669 -154.5323
ENERGY: 800000 3.0993 3.8213 0.5640 0.0000 -11755.2602 1662.3074 0.0000 0.0000 1399.0100 -8686.4582 238.4063 -10085.4682 -8684.6051 239.3907 -237.3021 -208.8737 28794.8666 2.9503 2.8030
TCL: Running 100000 steps at 270 kelvin.
TCL: Setting parameter langevinTemp to 270
TCL: Running for 100000 steps
ETITLE: TS BOND ANGLE DIHED IMPRP ELECT VDW BOUNDARY MISC KINETIC TOTAL TEMP POTENTIAL TOTAL3 TEMPAVG PRESSURE GPRESSURE VOLUME PRESSAVG GPRESSAVG
ENERGY: 800000 3.0993 3.8213 0.5640 0.0000 -11755.2602 1662.3074 0.0000 0.0000 1398.2868 -8687.1814 238.2831 -10085.4682 -8685.2013 238.2831 -289.8379 -208.8170 28794.8666 -289.8379 -208.8170
ENERGY: 900000 1.2266 6.2527 0.4918 0.0000 -11349.6940 1605.5120 0.0000 0.0000 1579.2836 -8156.9273 269.1269 -9736.2109 -8152.7558 269.6335 72.1254 169.7035 29474.5510 3.2890 3.1841
TCL: Running 1000000 steps at 300 kelvin.
TCL: Setting parameter langevinTemp to 300
TCL: Running for 1000000 steps
ETITLE: TS BOND ANGLE DIHED IMPRP ELECT VDW BOUNDARY MISC KINETIC TOTAL TEMP POTENTIAL TOTAL3 TEMPAVG PRESSURE GPRESSURE VOLUME PRESSAVG GPRESSAVG
ENERGY: 900000 1.2266 6.2527 0.4918 0.0000 -11349.6940 1605.5120 0.0000 0.0000 1578.4846 -8157.7263 268.9907 -9736.2109 -8155.1890 268.9907 79.9281 169.8312 29474.5510 79.9281 169.8312
ENERGY: 1100000 0.9871 5.9260 0.3903 0.0000 -10767.7254 1496.3378 0.0000 0.0000 1760.2152 -7503.8691 299.9596 -9264.0843 -7499.0519 300.4406 207.2544 303.0276 30649.9399 1.8464 1.7466
ENERGY: 1300000 0.7101 4.6839 0.2375 0.0000 -10616.1974 1420.6199 0.0000 0.0000 1704.7471 -7485.1989 290.5072 -9189.9460 -7482.7560 299.5505 185.6876 269.1036 30214.5219 4.1415 4.1916
ENERGY: 1500000 1.0778 3.8828 0.9610 0.0000 -10668.3437 1436.1803 0.0000 0.0000 1805.0881 -7421.1538 307.6064 -9226.2419 -7417.8156 300.0034 -8.8555 88.9295 30493.0286 3.2666 3.4072
ENERGY: 1700000 2.2357 3.8998 0.4503 0.0000 -10829.8169 1485.8003 0.0000 0.0000 1701.6106 -7635.8201 289.9727 -9337.4307 -7635.3546 299.8454 135.2348 159.6677 30208.8179 2.1730 2.1544
ENERGY: 1900000 0.7416 1.4658 0.4103 0.0000 -10599.6414 1350.4199 0.0000 0.0000 1707.0002 -7539.6036 290.8912 -9246.6038 -7535.3087 300.6434 -789.9609 -632.1409 30337.9034 3.5777 3.7114
TCL: Exiting due to exit command.
