Info: SIMULATION PARAMETERS:
Info: TIMESTEP               2
Info: NUMBER OF STEPS        0
Info: STEPS PER CYCLE        10
Info: PERIODIC CELL BASIS 1  37.38 0 0
Info: PERIODIC CELL BASIS 2  0 36.762 0
Info: PERIODIC CELL BASIS 3  0 0 32.993
Info: PERIODIC CELL CENTER   0 0 0
Info: WRAPPING WATERS AROUND PERIODIC BOUNDARIES ON OUTPUT.
Info: WRAPPING ALL CLUSTERS AROUND PERIODIC BOUNDARIES ON OUTPUT.
Info: FIRST LDB TIMESTEP     50
Info: LAST LDB TIMESTEP     -1
Info: HOM BACKGROUND SCALING 1
Info: PME BACKGROUND SCALING 1
Info: MIN ATOMS PER PATCH    40
Info: EMPTY PATCH LOAD       40 ATOMS
Info: INITIAL TEMPERATURE    300
Info: CENTER OF MASS MOVING INITIALLY? NO
Info: DIELECTRIC             1
Info: EXCLUDE                SCALED ONE-FOUR
Info: 1-4 ELECTROSTATICS SCALED BY 0.833333
Info: MODIFIED 1-4 VDW PARAMETERS WILL BE USED
Info: DCD FILENAME           mobley_5282042_equil.dcd
Info: DCD FREQUENCY          100000
Info: DCD FIRST STEP         100000
Info: DCD FILE WILL CONTAIN UNIT CELL DATA
Info: XST FILENAME           mobley_5282042_equil.xst
Info: XST FREQUENCY          100000
Info: NO VELOCITY DCD OUTPUT
Info: NO FORCE DCD OUTPUT
Info: OUTPUT FILENAME        mobley_5282042_equil
Info: BINARY OUTPUT FILES WILL BE USED
Info: RESTART FILENAME       mobley_5282042_equil.restart
Info: RESTART FREQUENCY      100000
Info: BINARY RESTART FILES WILL BE USED
Info: CUTOFF                 9
Info: PAIRLIST DISTANCE      11
Info: PAIRLIST SHRINK RATE   0.01
Info: PAIRLIST GROW RATE     0.01
Info: PAIRLIST TRIGGER       0.3
Info: PAIRLISTS PER CYCLE    2
Info: PAIRLISTS ENABLED
Info: MARGIN                 8
Info: HYDROGEN GROUP CUTOFF  2.5
Info: PATCH DIMENSION        21.5
Info: ENERGY OUTPUT STEPS    100000
Info: ENERGY EVALUATION STEPS    100000
Info: OUTPUT ENERGY PRECISION 4
Info: CROSSTERM ENERGY INCLUDED IN DIHEDRAL
Info: TIMING OUTPUT STEPS    1000000
Info: PRESSURE OUTPUT STEPS  100000
Info: LANGEVIN DYNAMICS ACTIVE
Info: LANGEVIN TEMPERATURE   30
Info: LANGEVIN USING BBK INTEGRATOR
Info: LANGEVIN DAMPING COEFFICIENT IS 1 INVERSE PS
Info: LANGEVIN DYNAMICS APPLIED TO HYDROGENS
Info: LANGEVIN PISTON PRESSURE CONTROL ACTIVE
Info:        TARGET PRESSURE IS 1.01325 BAR
Info:     OSCILLATION PERIOD IS 50 FS
Info:             DECAY TIME IS 25 FS
Info:     PISTON TEMPERATURE IS 300 K
Info:       PRESSURE CONTROL IS GROUP-BASED
Info:    INITIAL STRAIN RATE IS 0 0 0
Info:       CELL FLUCTUATION IS ISOTROPIC
Info: PARTICLE MESH EWALD (PME) ACTIVE
Info: PME TOLERANCE               1e-06
Info: PME EWALD COEFFICIENT       0.348832
Info: PME INTERPOLATION ORDER     4
Info: PME GRID DIMENSIONS         40 40 36
Info: PME MAXIMUM GRID SPACING    1
Info: FULL ELECTROSTATIC EVALUATION FREQUENCY      2
Info: USING VERLET I (r-RESPA) MTS SCHEME.
Info: C1 SPLITTING OF LONG RANGE ELECTROSTATICS
Info: PLACING ATOMS IN PATCHES BY HYDROGEN GROUPS
Info: RIGID BONDS TO HYDROGEN : ALL
Info:         ERROR TOLERANCE : 1e-08
Info:          MAX ITERATIONS : 100
Info: RIGID WATER USING SETTLE ALGORITHM
Info: RANDOM NUMBER SEED     1743253219
Info: USE HYDROGEN BONDS?    NO
Info: Using AMBER format force field!
Info: AMBER PARM FILE        mobley_5282042.prmtop
Info: COORDINATE PDB         mobley_5282042.pdb
Info: Exclusions will be read from PARM file!
Info: SCNB (VDW SCALING)     2
Info: USING ARITHMETIC MEAN TO COMBINE L-J SIGMA PARAMETERS
Info: BINARY COORDINATES     mobley_5282042_min.coor
Info: SUMMARY OF PARAMETERS:
Info: 13 BONDS
Info: 20 ANGLES
Info:   20 HARMONIC
Info:   0 COSINE-BASED
Info: 9 DIHEDRAL
Info: 0 IMPROPER
Info: 0 CROSSTERM
Info: 0 VDW
Info: 36 VDW_PAIRS
Info: 0 NBTHOLE_PAIRS
Info: STRUCTURE SUMMARY:
Info: 2951 ATOMS
Info: 2953 BONDS
Info: 81 ANGLES
Info: 130 DIHEDRALS
Info: 0 IMPROPERS
Info: 0 CROSSTERMS
Info: 3142 EXCLUSIONS
Info: 2930 RIGID BONDS
Info: 5923 DEGREES OF FREEDOM
Info: 990 HYDROGEN GROUPS
Info: 4 ATOMS IN LARGEST HYDROGEN GROUP
Info: 990 MIGRATION GROUPS
Info: 4 ATOMS IN LARGEST MIGRATION GROUP
Info: TOTAL MASS = 17734.9 amu
Info: TOTAL CHARGE = -0.000199977 e
Info: MASS DENSITY = 0.649573 g/cm^3
Info: ATOM DENSITY = 0.0650892 atoms/A^3
Info: ADDED 0 IMPLICIT EXCLUSIONS
Info: NONBONDED TABLE R-SQUARED SPACING: 0.0625
Info: NONBONDED TABLE SIZE: 705 POINTS
Info: REMOVING COM VELOCITY -0.101625 -0.0476387 0.142609
TCL: Running for 100000 steps
ETITLE: TS BOND ANGLE DIHED IMPRP ELECT VDW BOUNDARY MISC KINETIC TOTAL TEMP POTENTIAL TOTAL3 TEMPAVG PRESSURE GPRESSURE VOLUME PRESSAVG GPRESSAVG
ENERGY: 0 1.1251 3.5323 8.9365 0.0000 -13442.2143 2357.6248 0.0000 0.0000 1761.0424 -9309.9532 299.2392 -11070.9957 -9309.6181 299.2392 277.5336 311.2060 45337.7783 277.5336 311.2060
ENERGY: 100000 2.9460 5.3613 9.2789 0.0000 -14070.3105 2512.4230 0.0000 0.0000 173.1185 -11367.1827 29.4166 -11540.3013 -11366.6806 30.9263 488.5930 564.1014 29489.2740 4.1050 4.1224
TCL: Running 100000 steps at 60 kelvin.
TCL: Setting parameter langevinTemp to 60
TCL: Running for 100000 steps
ETITLE: TS BOND ANGLE DIHED IMPRP ELECT VDW BOUNDARY MISC KINETIC TOTAL TEMP POTENTIAL TOTAL3 TEMPAVG PRESSURE GPRESSURE VOLUME PRESSAVG GPRESSAVG
ENERGY: 100000 2.9460 5.3613 9.2789 0.0000 -14070.3105 2512.4230 0.0000 0.0000 173.0294 -11367.2718 29.4014 -11540.3013 -11366.9665 29.4014 512.3952 564.1481 29489.2740 512.3952 564.1481
ENERGY: 200000 3.4892 6.4289 9.7727 0.0000 -13850.9562 2316.6850 0.0000 0.0000 345.6403 -11168.9401 58.7318 -11514.5804 -11167.6275 59.8849 -606.1434 -576.5270 28709.3212 3.6621 3.7327
TCL: Running 100000 steps at 90 kelvin.
TCL: Setting parameter langevinTemp to 90
TCL: Running for 100000 steps
ETITLE: TS BOND ANGLE DIHED IMPRP ELECT VDW BOUNDARY MISC KINETIC TOTAL TEMP POTENTIAL TOTAL3 TEMPAVG PRESSURE GPRESSURE VOLUME PRESSAVG GPRESSAVG
ENERGY: 200000 3.4892 6.4289 9.7727 0.0000 -13850.9562 2316.6850 0.0000 0.0000 345.4638 -11169.1166 58.7018 -11514.5804 -11168.3260 58.7018 -634.5982 -576.1023 28709.3212 -634.5982 -576.1023
ENERGY: 300000 2.8016 7.4200 12.8988 0.0000 -13728.3372 2270.5193 0.0000 0.0000 531.1388 -10903.5587 90.2520 -11434.6975 -10901.8620 90.0771 -570.3251 -525.1100 28540.4011 2.4483 2.4918
TCL: Running 100000 steps at 120 kelvin.
TCL: Setting parameter langevinTemp to 120
TCL: Running for 100000 steps
ETITLE: TS BOND ANGLE DIHED IMPRP ELECT VDW BOUNDARY MISC KINETIC TOTAL TEMP POTENTIAL TOTAL3 TEMPAVG PRESSURE GPRESSURE VOLUME PRESSAVG GPRESSAVG
ENERGY: 300000 2.8016 7.4200 12.8988 0.0000 -13728.3372 2270.5193 0.0000 0.0000 530.8858 -10903.8118 90.2090 -11434.6975 -10902.5891 90.2090 -582.3373 -524.6267 28540.4011 -582.3373 -524.6267
ENERGY: 400000 3.5805 10.9934 13.2371 0.0000 -13566.3490 2227.3752 0.0000 0.0000 726.5464 -10584.6164 123.4559 -11311.1628 -10583.6228 119.6161 -399.4492 -345.4888 28569.5419 4.5314 4.6844
TCL: Running 100000 steps at 150 kelvin.
TCL: Setting parameter langevinTemp to 150
TCL: Running for 100000 steps
ETITLE: TS BOND ANGLE DIHED IMPRP ELECT VDW BOUNDARY MISC KINETIC TOTAL TEMP POTENTIAL TOTAL3 TEMPAVG PRESSURE GPRESSURE VOLUME PRESSAVG GPRESSAVG
ENERGY: 400000 3.5805 10.9934 13.2371 0.0000 -13566.3490 2227.3752 0.0000 0.0000 726.2123 -10584.9505 123.3992 -11311.1628 -10583.3742 123.3992 -398.2331 -345.2531 28569.5419 -398.2331 -345.2531
ENERGY: 500000 7.7002 12.0230 13.4281 0.0000 -13279.6727 2072.0248 0.0000 0.0000 900.0229 -10274.4737 152.9334 -11174.4966 -10273.4497 150.3845 -1423.3779 -1405.0932 28804.8348 4.4389 4.3940
TCL: Running 100000 steps at 180 kelvin.
TCL: Setting parameter langevinTemp to 180
TCL: Running for 100000 steps
ETITLE: TS BOND ANGLE DIHED IMPRP ELECT VDW BOUNDARY MISC KINETIC TOTAL TEMP POTENTIAL TOTAL3 TEMPAVG PRESSURE GPRESSURE VOLUME PRESSAVG GPRESSAVG
ENERGY: 500000 7.7002 12.0230 13.4281 0.0000 -13279.6727 2072.0248 0.0000 0.0000 899.5984 -10274.8982 152.8612 -11174.4966 -10272.8486 152.8612 -1466.6548 -1406.1507 28804.8348 -1466.6548 -1406.1507
ENERGY: 600000 4.5519 11.3532 12.6083 0.0000 -12974.8795 2106.0532 0.0000 0.0000 1081.9278 -9758.3851 183.8429 -10840.3129 -9755.9630 179.6507 173.6867 202.5754 29000.3039 3.6922 3.5701
TCL: Running 100000 steps at 210 kelvin.
TCL: Setting parameter langevinTemp to 210
TCL: Running for 100000 steps
ETITLE: TS BOND ANGLE DIHED IMPRP ELECT VDW BOUNDARY MISC KINETIC TOTAL TEMP POTENTIAL TOTAL3 TEMPAVG PRESSURE GPRESSURE VOLUME PRESSAVG GPRESSAVG
ENERGY: 600000 4.5519 11.3532 12.6083 0.0000 -12974.8795 2106.0532 0.0000 0.0000 1081.3946 -9758.9183 183.7523 -10840.3129 -9756.4564 183.7523 142.8448 201.6086 29000.3039 142.8448 201.6086
ENERGY: 700000 4.6398 11.7666 14.2768 0.0000 -12300.8242 1895.0240 0.0000 0.0000 1249.0218 -9126.0952 212.2358 -10375.1170 -9123.5083 209.4878 226.5233 292.0070 28781.1343 3.5775 3.5732
TCL: Running 100000 steps at 240 kelvin.
TCL: Setting parameter langevinTemp to 240
TCL: Running for 100000 steps
ETITLE: TS BOND ANGLE DIHED IMPRP ELECT VDW BOUNDARY MISC KINETIC TOTAL TEMP POTENTIAL TOTAL3 TEMPAVG PRESSURE GPRESSURE VOLUME PRESSAVG GPRESSAVG
ENERGY: 700000 4.6398 11.7666 14.2768 0.0000 -12300.8242 1895.0240 0.0000 0.0000 1248.4187 -9126.6983 212.1333 -10375.1170 -9124.6180 212.1333 209.3498 291.4887 28781.1343 209.3498 291.4887
ENERGY: 800000 7.3456 17.6301 17.8704 0.0000 -11741.8084 1783.3002 0.0000 0.0000 1428.2632 -8487.3989 242.6928 -9915.6621 -8483.4308 239.8069 771.1816 855.7596 29276.9288 3.7990 3.7302
TCL: Running 100000 steps at 270 kelvin.
TCL: Setting parameter langevinTemp to 270
TCL: Running for 100000 steps
ETITLE: TS BOND ANGLE DIHED IMPRP ELECT VDW BOUNDARY MISC KINETIC TOTAL TEMP POTENTIAL TOTAL3 TEMPAVG PRESSURE GPRESSURE VOLUME PRESSAVG GPRESSAVG
ENERGY: 800000 7.3456 17.6301 17.8704 0.0000 -11741.8084 1783.3002 0.0000 0.0000 1427.5580 -8488.1041 242.5730 -9915.6621 -8485.5764 242.5730 780.9314 855.1449 29276.9288 780.9314 855.1449
ENERGY: 900000 9.7667 18.7655 17.9292 0.0000 -10946.2990 1438.1052 0.0000 0.0000 1584.4082 -7877.3243 269.2252 -9461.7324 -7873.5115 269.7565 -948.2647 -827.6158 29781.5054 3.6345 3.6544
TCL: Running 1000000 steps at 300 kelvin.
TCL: Setting parameter langevinTemp to 300
TCL: Running for 1000000 steps
ETITLE: TS BOND ANGLE DIHED IMPRP ELECT VDW BOUNDARY MISC KINETIC TOTAL TEMP POTENTIAL TOTAL3 TEMPAVG PRESSURE GPRESSURE VOLUME PRESSAVG GPRESSAVG
ENERGY: 900000 9.7667 18.7655 17.9292 0.0000 -10946.2990 1438.1052 0.0000 0.0000 1583.6834 -7878.0490 269.1021 -9461.7324 -7874.4440 269.1021 -915.6955 -828.9996 29781.5054 -915.6955 -828.9996
ENERGY: 1100000 6.1608 22.2502 18.4592 0.0000 -10528.2252 1487.0918 0.0000 0.0000 1769.8542 -7224.4090 300.7365 -8994.2632 -7220.6124 300.8518 615.0838 732.8598 31029.0866 2.4817 2.3178
ENERGY: 1300000 5.2010 18.1730 14.9664 0.0000 -10676.4816 1449.0459 0.0000 0.0000 1760.6129 -7428.4824 299.1662 -9189.0953 -7421.8168 300.9486 389.5761 483.8044 29976.0759 3.8114 3.8089
ENERGY: 1500000 13.9570 20.7449 16.8410 0.0000 -10587.0648 1411.0872 0.0000 0.0000 1794.5478 -7329.8868 304.9325 -9124.4346 -7323.0551 300.0798 -114.1141 -95.3395 30801.5283 3.3962 3.3818
ENERGY: 1700000 6.5920 27.6910 16.4612 0.0000 -10679.7522 1472.7157 0.0000 0.0000 1710.6978 -7445.5946 290.6846 -9156.2924 -7444.0053 299.7240 420.1093 469.9404 30381.2207 3.5529 3.7192
ENERGY: 1900000 8.8816 21.1334 16.5066 0.0000 -10466.4584 1343.4667 0.0000 0.0000 1701.3795 -7375.0906 289.1012 -9076.4701 -7370.8809 299.9848 -1005.4557 -905.7698 30786.7884 2.8622 2.7176
TCL: Exiting due to exit command.
