Info: SIMULATION PARAMETERS:
Info: TIMESTEP               2
Info: NUMBER OF STEPS        0
Info: STEPS PER CYCLE        10
Info: PERIODIC CELL BASIS 1  31.0271 0 0
Info: PERIODIC CELL BASIS 2  0 30.2206 0
Info: PERIODIC CELL BASIS 3  0 0 32.0808
Info: PERIODIC CELL CENTER   0 0 0
Info: WRAPPING WATERS AROUND PERIODIC BOUNDARIES ON OUTPUT.
Info: WRAPPING ALL CLUSTERS AROUND PERIODIC BOUNDARIES ON OUTPUT.
Info: FIRST LDB TIMESTEP     50
Info: LAST LDB TIMESTEP     -1
Info: HOM BACKGROUND SCALING 1
Info: PME BACKGROUND SCALING 1
Info: MIN ATOMS PER PATCH    40
Info: EMPTY PATCH LOAD       40 ATOMS
Info: VELOCITY FILE          mobley_9913368_equil.vel
Info: CENTER OF MASS MOVING INITIALLY? NO
Info: DIELECTRIC             1
Info: EXCLUDE                SCALED ONE-FOUR
Info: 1-4 ELECTROSTATICS SCALED BY 0.833333
Info: MODIFIED 1-4 VDW PARAMETERS WILL BE USED
Info: DCD FILENAME           mobley_9913368_prod.dcd
Info: DCD FREQUENCY          100000
Info: DCD FIRST STEP         100000
Info: DCD FILE WILL CONTAIN UNIT CELL DATA
Info: XST FILENAME           mobley_9913368_prod.xst
Info: XST FREQUENCY          100000
Info: NO VELOCITY DCD OUTPUT
Info: NO FORCE DCD OUTPUT
Info: OUTPUT FILENAME        mobley_9913368_prod
Info: BINARY OUTPUT FILES WILL BE USED
Info: RESTART FILENAME       mobley_9913368_prod.restart
Info: RESTART FREQUENCY      100000
Info: BINARY RESTART FILES WILL BE USED
Info: CUTOFF                 9
Info: PAIRLIST DISTANCE      11
Info: PAIRLIST SHRINK RATE   0.01
Info: PAIRLIST GROW RATE     0.01
Info: PAIRLIST TRIGGER       0.3
Info: PAIRLISTS PER CYCLE    2
Info: PAIRLISTS ENABLED
Info: MARGIN                 2
Info: HYDROGEN GROUP CUTOFF  2.5
Info: PATCH DIMENSION        15.5
Info: ENERGY OUTPUT STEPS    100000
Info: ENERGY EVALUATION STEPS    100000
Info: OUTPUT ENERGY PRECISION 4
Info: CROSSTERM ENERGY INCLUDED IN DIHEDRAL
Info: TIMING OUTPUT STEPS    1000000
Info: PRESSURE OUTPUT STEPS  100000
Info: ALCHEMICAL FEP ON
Info: FEP CURRENT LAMBDA VALUE     0
Info: FEP COMPARISON LAMBDA VALUE  0.05
Info: FEP INTRA-ALCHEMICAL NON-BONDED INTERACTIONS WILL BE RETAINED
Info: FEP INTRA-ALCHEMICAL BONDED INTERACTIONS WILL BE RETAINED
Info: FEP VDW SHIFTING COEFFICIENT 5
Info: FEP ELEC. ACTIVE FOR ANNIHILATED PARTICLES BETWEEN LAMBDA = 0 AND LAMBDA = 0.5
Info: FEP ELEC. ACTIVE FOR EXNIHILATED PARTICLES BETWEEN LAMBDA = 0.5 AND LAMBDA = 1
Info: FEP VDW ACTIVE FOR ANNIHILATED PARTICLES BETWEEN LAMBDA = 0 AND LAMBDA = 1
Info: FEP VDW ACTIVE FOR EXNIHILATED PARTICLES BETWEEN LAMBDA = 0 AND LAMBDA = 1
Info: FEP BOND ACTIVE FOR ANNIHILATED PARTICLES BETWEEN LAMBDA = 1 AND LAMBDA = 1
Info: FEP BOND ACTIVE FOR EXNIHILATED PARTICLES BETWEEN LAMBDA = 0 AND LAMBDA = 0
Info: LANGEVIN DYNAMICS ACTIVE
Info: LANGEVIN TEMPERATURE   300
Info: LANGEVIN USING BBK INTEGRATOR
Info: LANGEVIN DAMPING COEFFICIENT IS 1 INVERSE PS
Info: LANGEVIN DYNAMICS APPLIED TO HYDROGENS
Info: LANGEVIN PISTON PRESSURE CONTROL ACTIVE
Info:        TARGET PRESSURE IS 1.01325 BAR
Info:     OSCILLATION PERIOD IS 50 FS
Info:             DECAY TIME IS 25 FS
Info:     PISTON TEMPERATURE IS 300 K
Info:       PRESSURE CONTROL IS GROUP-BASED
Info:    INITIAL STRAIN RATE IS 0.0001603 0.0001603 0.0001603
Info:       CELL FLUCTUATION IS ISOTROPIC
Info: PARTICLE MESH EWALD (PME) ACTIVE
Info: PME TOLERANCE               1e-06
Info: PME EWALD COEFFICIENT       0.348832
Info: PME INTERPOLATION ORDER     4
Info: PME GRID DIMENSIONS         32 32 36
Info: PME MAXIMUM GRID SPACING    1
Info: PME CALCULATION WILL BE PERFORMED ON GPU
Info: FULL ELECTROSTATIC EVALUATION FREQUENCY      2
Info: USING VERLET I (r-RESPA) MTS SCHEME.
Info: C1 SPLITTING OF LONG RANGE ELECTROSTATICS
Info: PLACING ATOMS IN PATCHES BY HYDROGEN GROUPS
Info: RIGID BONDS TO HYDROGEN : ALL
Info:         ERROR TOLERANCE : 1e-08
Info:          MAX ITERATIONS : 100
Info: RIGID WATER USING SETTLE ALGORITHM
Info: RANDOM NUMBER SEED     1743476685
Info: USE HYDROGEN BONDS?    NO
Info: Using AMBER format force field!
Info: AMBER PARM FILE        mobley_9913368.prmtop
Info: COORDINATE PDB         mobley_9913368.pdb
Info: Exclusions will be read from PARM file!
Info: SCNB (VDW SCALING)     2
Info: USING ARITHMETIC MEAN TO COMBINE L-J SIGMA PARAMETERS
Info: BINARY COORDINATES     mobley_9913368_equil.coor
Info: SUMMARY OF PARAMETERS:
Info: 5 BONDS
Info: 3 ANGLES
Info:   3 HARMONIC
Info:   0 COSINE-BASED
Info: 2 DIHEDRAL
Info: 0 IMPROPER
Info: 0 CROSSTERM
Info: 0 VDW
Info: 15 VDW_PAIRS
Info: 0 NBTHOLE_PAIRS
Info: To read alchdata from file: mobley_9913368.pdb
Info: To read alchflag data from column: 5
Info: STRUCTURE SUMMARY:
Info: 2907 ATOMS
Info: 2906 BONDS
Info: 6 ANGLES
Info: 6 DIHEDRALS
Info: 0 IMPROPERS
Info: 0 CROSSTERMS
Info: 2916 EXCLUSIONS
Info: 2903 RIGID BONDS
Info: ALCH: 0 ATOMS TO DISAPPEAR IN FINAL STATE
Info: ALCH: 6 ATOMS TO APPEAR IN FINAL STATE
Info: 5818 DEGREES OF FREEDOM
Info: 971 HYDROGEN GROUPS
Info: 3 ATOMS IN LARGEST HYDROGEN GROUP
Info: 971 MIGRATION GROUPS
Info: 3 ATOMS IN LARGEST MIGRATION GROUP
Info: TOTAL MASS = 17518.4 amu
Info: TOTAL CHARGE = 0.000100002 e
Info: MASS DENSITY = 0.967082 g/cm^3
Info: ATOM DENSITY = 0.0966394 atoms/A^3
Info: ADDED 0 IMPLICIT EXCLUSIONS
Info: NONBONDED TABLE R-SQUARED SPACING: 0.0625
Info: NONBONDED TABLE SIZE: 705 POINTS
Info: REMOVING COM VELOCITY -0.0172883 0.0231443 0.0333111
Info: Use 3D box decompostion in PME FFT.
Info: Updated CUDA force table with 4096 elements.
Info: Updated CUDA LJ table with 5 x 5 elements.
Info: Found 9 unique exclusion lists needing 12 bytes
TCL: Running for 1500000 steps
ETITLE: TS BOND ANGLE DIHED IMPRP ELECT VDW BOUNDARY MISC KINETIC TOTAL TEMP POTENTIAL TOTALAVG TEMPAVG PRESSURE GPRESSURE VOLUME PRESSAVG GPRESSAVG
ENERGY: 0 0.2657 0.0942 1.0053 0.0000 -10503.4184 1402.8256 0.0000 0.0000 1774.8200 -7324.4075 307.0230 -9099.2275 -7324.4075 307.0230 -67.9917 23.7222 30080.8976 -67.9917 23.7222
ENERGY: 300000 1.3562 1.1544 0.5075 0.0000 -10535.5567 1402.9128 0.0000 0.0000 1741.8865 -7387.7393 301.3259 -9129.6258 -7367.8430 302.8616 -399.3774 -257.4164 30083.7847 23.9598 113.5775
ENERGY: 600000 2.9176 0.8753 0.2971 0.0000 -10480.4689 1307.8168 0.0000 0.0000 1689.1914 -7479.3707 292.2103 -9168.5621 -7392.8876 300.9353 -1211.7836 -1115.0823 30005.9718 -119.9821 -31.1300
ENERGY: 900000 1.9872 1.6590 0.6732 0.0000 -10517.4952 1389.1333 0.0000 0.0000 1743.0704 -7380.9721 301.5307 -9124.0424 -7392.0581 301.1790 -36.8958 -65.7487 29765.0063 -92.8454 -29.6380
ENERGY: 1200000 1.7708 1.6432 0.0839 0.0000 -10587.4027 1467.3858 0.0000 0.0000 1773.7413 -7342.7777 306.8365 -9116.5191 -7397.1181 301.1117 585.9129 611.6875 29488.2263 -2.0119 54.9262
ENERGY: 1500000 3.1836 2.6331 0.2133 0.0000 -10530.0258 1371.0044 0.0000 0.0000 1716.3103 -7436.6810 296.9016 -9152.9913 -7402.9271 301.3141 -702.3498 -641.4876 30098.3515 -146.3174 -87.0049
TCL: Running FEP window   2: Lambda1 0.05   Lambda2 0.1    [dLambda 0.05  ]
TCL: Setting parameter firsttimestep to 0
TCL: Setting parameter alchLambda to 0.05
Info: NONBONDED TABLE R-SQUARED SPACING: 0.0625
Info: NONBONDED TABLE SIZE: 705 POINTS
TCL: Setting parameter alchLambda2 to 0.1
Info: NONBONDED TABLE R-SQUARED SPACING: 0.0625
Info: NONBONDED TABLE SIZE: 705 POINTS
TCL: Running for 1500000 steps
ETITLE: TS BOND ANGLE DIHED IMPRP ELECT VDW BOUNDARY MISC KINETIC TOTAL TEMP POTENTIAL TOTALAVG TEMPAVG PRESSURE GPRESSURE VOLUME PRESSAVG GPRESSAVG
ENERGY: 0 3.1836 2.6331 0.2133 0.0000 -10530.0272 1373.0542 0.0000 0.0000 1715.4034 -7435.5395 296.7447 -9150.9429 -7435.5395 296.7447 -710.3584 -637.2004 30098.3515 -710.3584 -637.2004
ENERGY: 300000 1.3348 0.2651 3.3854 0.0000 -10486.8668 1361.5094 0.0000 0.0000 1791.2546 -7329.1175 309.8660 -9120.3721 -7373.5148 302.4663 -621.2728 -593.8744 30185.6414 -204.7212 -174.4137
ENERGY: 600000 0.2856 1.8140 0.1923 0.0000 -10470.3726 1335.5158 0.0000 0.0000 1772.6222 -7359.9426 306.6429 -9132.5648 -7376.7655 302.2293 -716.1942 -609.2228 30067.7270 -292.4896 -233.8372
ENERGY: 900000 0.8989 1.1264 1.0212 0.0000 -10509.4518 1407.1684 0.0000 0.0000 1725.6658 -7373.5710 298.5200 -9099.2369 -7379.1138 301.7194 92.9215 110.5535 29709.9972 -308.8855 -253.7705
ENERGY: 1200000 1.0253 0.8614 0.2702 0.0000 -10614.6091 1369.4906 0.0000 0.0000 1696.8682 -7546.0934 293.5383 -9242.9616 -7395.6764 300.7122 -529.1030 -496.0054 29490.1210 -335.1166 -276.9480
ENERGY: 1500000 0.1468 0.4447 3.0830 0.0000 -10535.3506 1400.8654 0.0000 0.0000 1723.9128 -7406.8979 298.2167 -9130.8107 -7397.4033 300.4261 -254.0486 -223.9687 30177.2273 -257.1467 -203.1272
TCL: Running FEP window   3: Lambda1 0.1    Lambda2 0.15000000000000002 [dLambda 0.05000000000000002]
TCL: Setting parameter firsttimestep to 0
TCL: Setting parameter alchLambda to 0.1
Info: NONBONDED TABLE R-SQUARED SPACING: 0.0625
Info: NONBONDED TABLE SIZE: 705 POINTS
TCL: Setting parameter alchLambda2 to 0.15000000000000002
Info: NONBONDED TABLE R-SQUARED SPACING: 0.0625
Info: NONBONDED TABLE SIZE: 705 POINTS
TCL: Running for 1500000 steps
ETITLE: TS BOND ANGLE DIHED IMPRP ELECT VDW BOUNDARY MISC KINETIC TOTAL TEMP POTENTIAL TOTALAVG TEMPAVG PRESSURE GPRESSURE VOLUME PRESSAVG GPRESSAVG
ENERGY: 0 0.1468 0.4447 3.0830 0.0000 -10535.3507 1403.7875 0.0000 0.0000 1723.0297 -7404.8590 298.0639 -9127.8887 -7404.8590 298.0639 -304.4046 -215.9149 30177.2273 -304.4046 -215.9149
ENERGY: 300000 0.5499 0.1206 1.6519 0.0000 -10572.7926 1438.9607 0.0000 0.0000 1727.9285 -7403.5810 298.9114 -9131.5095 -7363.6971 303.5769 203.3394 242.1927 29819.2947 -370.7828 -286.9257
ENERGY: 600000 1.5725 0.6181 0.6417 0.0000 -10593.5845 1450.4837 0.0000 0.0000 1740.1389 -7400.1296 301.0236 -9140.2686 -7368.4917 305.1641 127.0309 194.0755 29912.8040 -250.4058 -186.5935
ENERGY: 900000 0.1276 1.1535 0.2981 0.0000 -10670.2481 1414.6516 0.0000 0.0000 1657.7964 -7596.2209 286.7793 -9254.0173 -7400.8849 303.3336 -449.8673 -395.9385 29561.3388 -107.2950 -47.6697
ENERGY: 1200000 0.3776 1.4761 0.7123 0.0000 -10479.0680 1350.4948 0.0000 0.0000 1733.4454 -7392.5618 299.8657 -9126.0072 -7398.1364 303.1155 -540.5923 -473.1291 29818.0459 -119.4837 -52.8945
ENERGY: 1500000 0.0575 0.6094 2.3306 0.0000 -10595.6664 1392.1283 0.0000 0.0000 1728.3386 -7472.2020 298.9823 -9200.5407 -7412.8152 302.3120 -333.5367 -278.0185 29570.6097 -167.5677 -105.9487
TCL: Running FEP window   4: Lambda1 0.15000000000000002 Lambda2 0.2    [dLambda 0.04999999999999999]
TCL: Setting parameter firsttimestep to 0
TCL: Setting parameter alchLambda to 0.15000000000000002
Info: NONBONDED TABLE R-SQUARED SPACING: 0.0625
Info: NONBONDED TABLE SIZE: 705 POINTS
TCL: Setting parameter alchLambda2 to 0.2
Info: NONBONDED TABLE R-SQUARED SPACING: 0.0625
Info: NONBONDED TABLE SIZE: 705 POINTS
TCL: Running for 1500000 steps
ETITLE: TS BOND ANGLE DIHED IMPRP ELECT VDW BOUNDARY MISC KINETIC TOTAL TEMP POTENTIAL TOTALAVG TEMPAVG PRESSURE GPRESSURE VOLUME PRESSAVG GPRESSAVG
ENERGY: 0 0.0575 0.6094 2.3306 0.0000 -10595.6658 1393.1953 0.0000 0.0000 1727.4603 -7472.0128 298.8304 -9199.4731 -7472.0128 298.8304 -350.9065 -270.7086 29570.6097 -350.9065 -270.7086
ENERGY: 300000 0.3593 0.7419 0.2003 0.0000 -10467.0269 1336.6690 0.0000 0.0000 1727.8855 -7401.1708 298.9039 -9129.0563 -7434.6651 300.0795 -920.1107 -847.5446 30262.3305 -448.8801 -375.8261
ENERGY: 600000 0.0657 0.5747 0.2057 0.0000 -10502.1842 1357.2793 0.0000 0.0000 1691.2425 -7452.8161 292.5651 -9144.0587 -7425.6399 298.9477 -610.6530 -501.3236 29832.4471 -221.3849 -150.0424
ENERGY: 900000 1.5516 1.5030 0.8852 0.0000 -10460.8426 1363.7446 0.0000 0.0000 1812.6575 -7280.5008 313.5685 -9093.1583 -7404.3252 301.2732 -484.5267 -370.4635 29965.2837 -305.6426 -226.1616
ENERGY: 1200000 0.1524 2.4570 0.0844 0.0000 -10573.9742 1406.1694 0.0000 0.0000 1698.6315 -7466.4796 293.8433 -9165.1111 -7417.1642 300.4174 -169.6481 -143.2927 29901.8152 -173.6941 -98.2350
ENERGY: 1500000 0.4221 1.1960 2.5240 0.0000 -10588.3086 1450.0134 0.0000 0.0000 1731.3469 -7402.8062 299.5027 -9134.1531 -7407.2483 300.5790 183.2806 194.3068 30071.4109 -171.4723 -107.5334
TCL: Running FEP window   5: Lambda1 0.2    Lambda2 0.25   [dLambda 0.04999999999999999]
TCL: Setting parameter firsttimestep to 0
TCL: Setting parameter alchLambda to 0.2
Info: NONBONDED TABLE R-SQUARED SPACING: 0.0625
Info: NONBONDED TABLE SIZE: 705 POINTS
TCL: Setting parameter alchLambda2 to 0.25
Info: NONBONDED TABLE R-SQUARED SPACING: 0.0625
Info: NONBONDED TABLE SIZE: 705 POINTS
TCL: Running for 1500000 steps
ETITLE: TS BOND ANGLE DIHED IMPRP ELECT VDW BOUNDARY MISC KINETIC TOTAL TEMP POTENTIAL TOTALAVG TEMPAVG PRESSURE GPRESSURE VOLUME PRESSAVG GPRESSAVG
ENERGY: 0 0.4221 1.1960 2.5240 0.0000 -10588.3079 1449.8563 0.0000 0.0000 1730.4639 -7403.8456 299.3500 -9134.3095 -7403.8456 299.3500 103.8643 194.1361 30071.4109 103.8643 194.1361
ENERGY: 300000 1.2427 0.0733 0.4904 0.0000 -10596.1417 1463.9945 0.0000 0.0000 1774.2074 -7356.1334 306.9171 -9130.3409 -7392.1286 302.6933 283.3427 325.3057 30118.1015 152.6556 211.1301
ENERGY: 600000 1.3477 0.2086 0.6038 0.0000 -10554.8471 1471.0512 0.0000 0.0000 1722.7534 -7358.8824 298.0161 -9081.6358 -7392.5005 302.0684 473.3480 465.4515 29829.3914 167.2023 216.5250
ENERGY: 900000 0.1920 1.1490 0.2511 0.0000 -10623.6904 1482.9532 0.0000 0.0000 1774.7765 -7364.3687 307.0155 -9139.1452 -7393.0418 302.0043 750.7356 748.1004 29499.6427 244.3338 288.2486
ENERGY: 1200000 0.6076 0.6285 0.4311 0.0000 -10570.4802 1411.9136 0.0000 0.0000 1762.6563 -7394.2432 304.9189 -9156.8995 -7393.4969 301.2068 -187.8023 -178.4608 29974.8956 167.4296 206.8317
ENERGY: 1500000 1.2818 0.6067 0.3051 0.0000 -10501.1412 1366.7379 0.0000 0.0000 1772.5556 -7359.6541 306.6313 -9132.2097 -7385.6034 301.3215 -564.1295 -539.8135 30075.8018 92.8526 134.0079
TCL: Running FEP window   6: Lambda1 0.25   Lambda2 0.3    [dLambda 0.04999999999999999]
TCL: Setting parameter firsttimestep to 0
TCL: Setting parameter alchLambda to 0.25
Info: NONBONDED TABLE R-SQUARED SPACING: 0.0625
Info: NONBONDED TABLE SIZE: 705 POINTS
TCL: Setting parameter alchLambda2 to 0.3
Info: NONBONDED TABLE R-SQUARED SPACING: 0.0625
Info: NONBONDED TABLE SIZE: 705 POINTS
TCL: Running for 1500000 steps
ETITLE: TS BOND ANGLE DIHED IMPRP ELECT VDW BOUNDARY MISC KINETIC TOTAL TEMP POTENTIAL TOTALAVG TEMPAVG PRESSURE GPRESSURE VOLUME PRESSAVG GPRESSAVG
ENERGY: 0 1.2818 0.6067 0.3051 0.0000 -10501.1409 1367.5494 0.0000 0.0000 1771.6818 -7359.7161 306.4802 -9131.3979 -7359.7161 306.4802 -624.1568 -531.2799 30075.8018 -624.1568 -531.2799
ENERGY: 300000 1.1052 0.6404 0.8544 0.0000 -10593.4445 1430.3823 0.0000 0.0000 1707.8880 -7452.5743 295.4446 -9160.4623 -7331.4033 301.6457 126.4583 171.4735 29816.7050 -112.1740 -37.9291
ENERGY: 600000 0.9714 0.7446 0.4213 0.0000 -10672.9093 1471.4287 0.0000 0.0000 1692.7084 -7506.6349 292.8187 -9199.3433 -7378.1643 300.7808 592.7010 557.6893 29325.2861 -208.9777 -162.4839
ENERGY: 900000 1.3714 0.3243 0.5388 0.0000 -10414.6720 1364.1083 0.0000 0.0000 1724.6313 -7323.6979 298.3410 -9048.3291 -7372.3365 301.6128 -341.3972 -313.6632 30144.3597 -178.5430 -116.4419
ENERGY: 1200000 0.0972 0.8956 0.4847 0.0000 -10513.5244 1408.8224 0.0000 0.0000 1723.8198 -7379.4048 298.2006 -9103.2246 -7379.1165 301.1450 -57.5069 -38.2256 29954.7354 -159.1708 -103.8577
ENERGY: 1500000 0.8734 1.3608 0.3869 0.0000 -10690.9642 1465.9200 0.0000 0.0000 1732.4485 -7489.9746 299.6933 -9222.4231 -7392.4600 301.0337 -1.0217 66.1985 30009.2757 -123.6070 -72.9923
TCL: Running FEP window   7: Lambda1 0.3    Lambda2 0.35   [dLambda 0.04999999999999999]
TCL: Setting parameter firsttimestep to 0
TCL: Setting parameter alchLambda to 0.3
Info: NONBONDED TABLE R-SQUARED SPACING: 0.0625
Info: NONBONDED TABLE SIZE: 705 POINTS
TCL: Setting parameter alchLambda2 to 0.35
Info: NONBONDED TABLE R-SQUARED SPACING: 0.0625
Info: NONBONDED TABLE SIZE: 705 POINTS
TCL: Running for 1500000 steps
ETITLE: TS BOND ANGLE DIHED IMPRP ELECT VDW BOUNDARY MISC KINETIC TOTAL TEMP POTENTIAL TOTALAVG TEMPAVG PRESSURE GPRESSURE VOLUME PRESSAVG GPRESSAVG
ENERGY: 0 0.8734 1.3608 0.3869 0.0000 -10690.9642 1465.8417 0.0000 0.0000 1731.5843 -7490.9172 299.5438 -9222.5015 -7490.9172 299.5438 -22.0745 65.4215 30009.2757 -22.0745 65.4215
ENERGY: 300000 0.1958 0.5196 0.2598 0.0000 -10540.6433 1425.9895 0.0000 0.0000 1762.4092 -7351.2694 304.8761 -9113.6786 -7429.7992 300.2663 4.1451 45.7182 29926.0640 -182.4808 -124.6845
ENERGY: 600000 0.2912 1.7617 0.5873 0.0000 -10633.5955 1453.4881 0.0000 0.0000 1683.8365 -7493.6309 291.2840 -9177.4673 -7448.8479 297.9215 -267.4680 -191.3049 30274.7451 -187.2931 -119.0992
ENERGY: 900000 2.2497 0.3661 0.5883 0.0000 -10563.4787 1483.7415 0.0000 0.0000 1756.9923 -7319.5406 303.9391 -9076.5329 -7428.3205 299.3839 578.1861 640.6414 30018.2164 -109.2117 -39.8404
ENERGY: 1200000 0.1100 0.3891 1.3495 0.0000 -10565.9575 1364.1415 0.0000 0.0000 1748.3712 -7451.5963 302.4477 -9199.9675 -7425.3906 300.0521 -767.5845 -709.7753 30269.0313 -147.0596 -80.7883
ENERGY: 1500000 1.0663 1.6470 1.2376 0.0000 -10629.2860 1407.7914 0.0000 0.0000 1766.1538 -7451.3900 305.5239 -9217.5437 -7432.0762 300.4516 -522.4014 -402.6016 30095.1994 -95.9616 -30.4506
TCL: Running FEP window   8: Lambda1 0.35   Lambda2 0.39999999999999997 [dLambda 0.04999999999999999]
TCL: Setting parameter firsttimestep to 0
TCL: Setting parameter alchLambda to 0.35
Info: NONBONDED TABLE R-SQUARED SPACING: 0.0625
Info: NONBONDED TABLE SIZE: 705 POINTS
TCL: Setting parameter alchLambda2 to 0.39999999999999997
Info: NONBONDED TABLE R-SQUARED SPACING: 0.0625
Info: NONBONDED TABLE SIZE: 705 POINTS
TCL: Running for 1500000 steps
ETITLE: TS BOND ANGLE DIHED IMPRP ELECT VDW BOUNDARY MISC KINETIC TOTAL TEMP POTENTIAL TOTALAVG TEMPAVG PRESSURE GPRESSURE VOLUME PRESSAVG GPRESSAVG
ENERGY: 0 1.0663 1.6470 1.2376 0.0000 -10629.2866 1407.5514 0.0000 0.0000 1765.2962 -7452.4881 305.3756 -9217.7843 -7452.4881 305.3756 -493.5980 -402.0181 30095.1994 -493.5980 -402.0181
ENERGY: 300000 0.8274 0.7431 0.2404 0.0000 -10705.6971 1495.2900 0.0000 0.0000 1725.9514 -7482.6448 298.5694 -9208.5961 -7431.1078 300.4318 397.1372 466.7166 29694.3161 191.3674 290.5587
ENERGY: 600000 0.3993 2.2030 0.7809 0.0000 -10524.7929 1317.0716 0.0000 0.0000 1733.0866 -7471.2515 299.8037 -9204.3381 -7425.0933 300.5554 -1267.9043 -1188.7386 30477.8830 -60.0752 17.3220
ENERGY: 900000 3.0473 0.3361 0.9114 0.0000 -10576.5432 1436.4782 0.0000 0.0000 1689.5414 -7446.2287 292.2708 -9135.7701 -7425.7699 299.0194 55.4836 164.2499 29976.5330 -24.0594 53.0796
ENERGY: 1200000 0.4029 1.6839 0.5544 0.0000 -10527.1345 1415.6668 0.0000 0.0000 1726.5216 -7382.3049 298.6680 -9108.8265 -7416.9426 298.9016 226.0647 355.2888 29483.8211 -5.4205 69.6195
ENERGY: 1500000 0.3063 1.8797 0.3610 0.0000 -10517.7505 1381.4595 0.0000 0.0000 1757.0881 -7376.6559 303.9556 -9133.7440 -7411.9692 298.9953 -405.3362 -267.4731 29942.4645 -19.2475 56.3680
TCL: Running FEP window   9: Lambda1 0.39999999999999997 Lambda2 0.44999999999999996 [dLambda 0.04999999999999999]
TCL: Setting parameter firsttimestep to 0
TCL: Setting parameter alchLambda to 0.39999999999999997
Info: NONBONDED TABLE R-SQUARED SPACING: 0.0625
Info: NONBONDED TABLE SIZE: 705 POINTS
TCL: Setting parameter alchLambda2 to 0.44999999999999996
Info: NONBONDED TABLE R-SQUARED SPACING: 0.0625
Info: NONBONDED TABLE SIZE: 705 POINTS
TCL: Running for 1500000 steps
ETITLE: TS BOND ANGLE DIHED IMPRP ELECT VDW BOUNDARY MISC KINETIC TOTAL TEMP POTENTIAL TOTALAVG TEMPAVG PRESSURE GPRESSURE VOLUME PRESSAVG GPRESSAVG
ENERGY: 0 0.3063 1.8797 0.3610 0.0000 -10517.7502 1381.2928 0.0000 0.0000 1756.2532 -7377.6572 303.8112 -9133.9104 -7377.6572 303.8112 -343.1255 -264.3440 29942.4645 -343.1255 -264.3440
ENERGY: 300000 0.6736 0.3025 2.0069 0.0000 -10497.5402 1438.2084 0.0000 0.0000 1733.5088 -7322.8399 299.8767 -9056.3487 -7386.2048 300.0616 186.6940 281.8922 30083.9381 46.8594 129.5925
ENERGY: 600000 0.6653 1.3392 1.8156 0.0000 -10709.8959 1484.1497 0.0000 0.0000 1789.0638 -7432.8624 309.4871 -9221.9262 -7388.7607 302.0160 524.2614 595.8303 29483.6766 23.6445 119.4693
ENERGY: 900000 0.8404 0.9523 0.4034 0.0000 -10548.4082 1404.3345 0.0000 0.0000 1760.1501 -7381.7274 304.4853 -9141.8775 -7405.6320 301.3694 -360.2573 -298.6775 29941.9947 -23.7633 56.2964
ENERGY: 1200000 0.7220 1.0690 0.4805 0.0000 -10717.8781 1527.1097 0.0000 0.0000 1834.1778 -7354.3192 317.2912 -9188.4969 -7397.9566 302.9877 998.2138 1069.5318 29461.3115 58.9903 137.5376
ENERGY: 1500000 2.7041 1.4680 0.2630 0.0000 -10796.0336 1538.6000 0.0000 0.0000 1739.6326 -7513.3659 300.9360 -9252.9984 -7407.3302 302.1809 631.8694 641.6588 29594.3940 80.4216 145.9800
TCL: Running FEP window  10: Lambda1 0.44999999999999996 Lambda2 0.49999999999999994 [dLambda 0.04999999999999999]
TCL: Setting parameter firsttimestep to 0
TCL: Setting parameter alchLambda to 0.44999999999999996
Info: NONBONDED TABLE R-SQUARED SPACING: 0.0625
Info: NONBONDED TABLE SIZE: 705 POINTS
TCL: Setting parameter alchLambda2 to 0.49999999999999994
Info: NONBONDED TABLE R-SQUARED SPACING: 0.0625
Info: NONBONDED TABLE SIZE: 705 POINTS
TCL: Running for 1500000 steps
ETITLE: TS BOND ANGLE DIHED IMPRP ELECT VDW BOUNDARY MISC KINETIC TOTAL TEMP POTENTIAL TOTALAVG TEMPAVG PRESSURE GPRESSURE VOLUME PRESSAVG GPRESSAVG
ENERGY: 0 2.7041 1.4680 0.2630 0.0000 -10796.0337 1538.2493 0.0000 0.0000 1738.7566 -7514.5928 300.7845 -9253.3493 -7514.5928 300.7845 572.2506 642.7495 29594.3940 572.2506 642.7495
ENERGY: 300000 0.3979 0.4257 0.5291 0.0000 -10636.6670 1397.1068 0.0000 0.0000 1675.4596 -7562.7479 289.8349 -9238.2075 -7464.4401 296.4475 -426.2000 -300.2410 29638.4872 -68.1612 11.8945
ENERGY: 600000 1.0484 1.1557 0.6732 0.0000 -10538.4809 1430.6559 0.0000 0.0000 1707.5315 -7397.4163 295.3829 -9104.9478 -7425.5083 299.7733 151.7881 299.7752 29886.1379 26.0804 101.0069
ENERGY: 900000 0.0314 1.2677 0.5824 0.0000 -10515.3166 1337.8101 0.0000 0.0000 1748.3195 -7427.3055 302.4388 -9175.6251 -7424.3024 300.5663 -1064.2551 -1039.0567 30433.8575 -156.6718 -87.1088
ENERGY: 1200000 1.8729 1.0513 1.4495 0.0000 -10703.4801 1548.1494 0.0000 0.0000 1717.0500 -7433.9070 297.0295 -9150.9570 -7419.0535 301.3778 1144.6313 1126.7587 29682.0948 -67.0087 -10.0482
ENERGY: 1500000 0.5710 0.8594 0.2756 0.0000 -10503.2006 1403.5135 0.0000 0.0000 1691.7604 -7406.2209 292.6547 -9097.9812 -7421.8132 300.7279 -200.8180 -139.6591 30177.9430 -42.7519 6.5175
TCL: Running FEP window  11: Lambda1 0.49999999999999994 Lambda2 0.5499999999999999 [dLambda 0.04999999999999999]
TCL: Setting parameter firsttimestep to 0
TCL: Setting parameter alchLambda to 0.49999999999999994
Info: NONBONDED TABLE R-SQUARED SPACING: 0.0625
Info: NONBONDED TABLE SIZE: 705 POINTS
TCL: Setting parameter alchLambda2 to 0.5499999999999999
Info: NONBONDED TABLE R-SQUARED SPACING: 0.0625
Info: NONBONDED TABLE SIZE: 705 POINTS
TCL: Running for 1500000 steps
ETITLE: TS BOND ANGLE DIHED IMPRP ELECT VDW BOUNDARY MISC KINETIC TOTAL TEMP POTENTIAL TOTALAVG TEMPAVG PRESSURE GPRESSURE VOLUME PRESSAVG GPRESSAVG
ENERGY: 0 0.5710 0.8594 0.2756 0.0000 -10503.1987 1403.9569 0.0000 0.0000 1690.8852 -7406.6506 292.5033 -9097.5358 -7406.6506 292.5033 -210.3146 -133.9583 30177.9430 -210.3146 -133.9583
ENERGY: 300000 0.7182 0.9484 0.7125 0.0000 -10499.9026 1369.4098 0.0000 0.0000 1685.9593 -7442.1545 291.6512 -9128.1137 -7435.6978 294.8617 -505.9570 -400.0694 30212.0725 -68.4078 1.6027
ENERGY: 600000 0.6454 1.0938 0.6871 0.0000 -10617.4094 1480.5487 0.0000 0.0000 1702.2755 -7432.1590 294.4737 -9134.4344 -7447.6943 295.5442 406.0195 438.4930 29972.8449 -49.4463 13.3216
ENERGY: 900000 1.8358 1.8898 1.3884 0.0000 -10460.6292 1403.9327 0.0000 0.0000 1679.8475 -7371.7349 290.5939 -9051.5824 -7453.2446 295.5521 -16.1538 36.0072 30075.2622 -34.5336 28.3483
ENERGY: 1200000 0.4270 2.0144 0.6620 0.0000 -10534.3320 1416.1580 0.0000 0.0000 1761.0037 -7354.0669 304.6330 -9115.0706 -7449.6639 295.7053 -58.6144 -39.4669 30342.2064 -25.1347 25.9137
ENERGY: 1500000 1.1828 1.7903 1.7522 0.0000 -10529.8740 1374.2748 0.0000 0.0000 1805.0003 -7345.8737 312.2439 -9150.8740 -7434.0159 297.8412 -462.0946 -370.6923 30402.5395 -58.7047 -7.0368
TCL: Running FEP window  12: Lambda1 0.5499999999999999 Lambda2 0.6    [dLambda 0.050000000000000044]
TCL: Setting parameter firsttimestep to 0
TCL: Setting parameter alchLambda to 0.5499999999999999
Info: NONBONDED TABLE R-SQUARED SPACING: 0.0625
Info: NONBONDED TABLE SIZE: 705 POINTS
TCL: Setting parameter alchLambda2 to 0.6
Info: NONBONDED TABLE R-SQUARED SPACING: 0.0625
Info: NONBONDED TABLE SIZE: 705 POINTS
TCL: Running for 1500000 steps
ETITLE: TS BOND ANGLE DIHED IMPRP ELECT VDW BOUNDARY MISC KINETIC TOTAL TEMP POTENTIAL TOTALAVG TEMPAVG PRESSURE GPRESSURE VOLUME PRESSAVG GPRESSAVG
ENERGY: 0 1.1828 1.7903 1.7522 0.0000 -10529.6986 1374.8739 0.0000 0.0000 1804.1782 -7345.9213 312.1017 -9150.0995 -7345.9213 312.1017 -439.2995 -362.3184 30402.5395 -439.2995 -362.3184
ENERGY: 300000 0.0389 1.4600 1.9016 0.0000 -10523.4271 1364.6216 0.0000 0.0000 1824.9021 -7330.5029 315.6867 -9155.4050 -7400.8276 304.3175 -623.2018 -510.5264 30491.2492 -521.0460 -433.6018
ENERGY: 600000 1.2902 1.0993 0.7881 0.0000 -10712.6337 1502.6456 0.0000 0.0000 1725.5568 -7481.2538 298.5011 -9206.8106 -7414.9343 302.3756 741.6470 734.4300 29613.5788 -226.8078 -157.8449
ENERGY: 900000 1.4803 1.0902 0.3259 0.0000 -10650.5736 1458.0248 0.0000 0.0000 1751.1922 -7438.4602 302.9357 -9189.6524 -7409.5025 303.2998 -5.7797 80.2722 29801.6335 -183.4904 -106.5844
ENERGY: 1200000 0.2834 2.2803 1.4222 0.0000 -10577.3646 1410.5019 0.0000 0.0000 1727.3290 -7435.5479 298.8077 -9162.8769 -7411.5500 303.0217 -306.8974 -276.2706 30215.8974 -254.9829 -184.4889
ENERGY: 1500000 0.3707 0.7277 0.1615 0.0000 -10649.2034 1472.3060 0.0000 0.0000 1770.4560 -7405.1815 306.2681 -9175.6375 -7411.2167 303.3461 332.2627 438.6189 29665.6370 -166.5778 -91.1729
TCL: Running FEP window  13: Lambda1 0.6    Lambda2 0.65   [dLambda 0.050000000000000044]
TCL: Setting parameter firsttimestep to 0
TCL: Setting parameter alchLambda to 0.6
Info: NONBONDED TABLE R-SQUARED SPACING: 0.0625
Info: NONBONDED TABLE SIZE: 705 POINTS
TCL: Setting parameter alchLambda2 to 0.65
Info: NONBONDED TABLE R-SQUARED SPACING: 0.0625
Info: NONBONDED TABLE SIZE: 705 POINTS
TCL: Running for 1500000 steps
ETITLE: TS BOND ANGLE DIHED IMPRP ELECT VDW BOUNDARY MISC KINETIC TOTAL TEMP POTENTIAL TOTALAVG TEMPAVG PRESSURE GPRESSURE VOLUME PRESSAVG GPRESSAVG
ENERGY: 0 0.3707 0.7277 0.1615 0.0000 -10649.2895 1472.1230 0.0000 0.0000 1769.5902 -7406.3164 306.1184 -9175.9066 -7406.3164 306.1184 369.4693 443.6441 29665.6370 369.4693 443.6441
ENERGY: 300000 0.7427 1.8635 0.4288 0.0000 -10590.2140 1432.1443 0.0000 0.0000 1783.3780 -7371.6566 308.5035 -9155.0346 -7398.5765 302.9516 -10.6653 109.8930 30190.1346 -100.6888 -28.5625
ENERGY: 600000 0.2413 0.8909 0.6390 0.0000 -10524.9301 1398.2407 0.0000 0.0000 1757.1810 -7367.7371 303.9717 -9124.9182 -7381.1989 303.6633 166.7153 228.9982 29528.3478 -93.9073 -33.8310
ENERGY: 900000 1.4111 0.6930 0.3975 0.0000 -10729.4427 1522.5425 0.0000 0.0000 1762.1389 -7442.2596 304.8294 -9204.3986 -7396.8565 302.7780 264.3758 390.8147 30371.8459 -18.8960 43.8558
ENERGY: 1200000 0.0745 0.3017 0.7141 0.0000 -10495.8784 1373.4770 0.0000 0.0000 1749.2978 -7372.0133 302.6080 -9121.3111 -7391.0366 302.7201 -392.7203 -374.4078 30098.5813 29.5388 89.8685
ENERGY: 1500000 1.9900 1.3711 1.8647 0.0000 -10531.1340 1416.7853 0.0000 0.0000 1690.1423 -7418.9805 292.3748 -9109.1228 -7390.9138 302.0793 121.3128 140.5945 29865.8797 15.1039 76.2264
TCL: Running FEP window  14: Lambda1 0.65   Lambda2 0.7000000000000001 [dLambda 0.050000000000000044]
TCL: Setting parameter firsttimestep to 0
TCL: Setting parameter alchLambda to 0.65
Info: NONBONDED TABLE R-SQUARED SPACING: 0.0625
Info: NONBONDED TABLE SIZE: 705 POINTS
TCL: Setting parameter alchLambda2 to 0.7000000000000001
Info: NONBONDED TABLE R-SQUARED SPACING: 0.0625
Info: NONBONDED TABLE SIZE: 705 POINTS
TCL: Running for 1500000 steps
ETITLE: TS BOND ANGLE DIHED IMPRP ELECT VDW BOUNDARY MISC KINETIC TOTAL TEMP POTENTIAL TOTALAVG TEMPAVG PRESSURE GPRESSURE VOLUME PRESSAVG GPRESSAVG
ENERGY: 0 1.9900 1.3711 1.8647 0.0000 -10531.2336 1416.4509 0.0000 0.0000 1689.2591 -7420.2978 292.2220 -9109.5569 -7420.2978 292.2220 84.8850 143.7647 29865.8797 84.8850 143.7647
ENERGY: 300000 1.0301 0.2515 0.3879 0.0000 -10403.7473 1333.5673 0.0000 0.0000 1779.4839 -7289.0266 307.8299 -9068.5105 -7379.7497 300.7825 -444.6897 -380.7143 29807.6773 -352.5549 -292.6667
ENERGY: 600000 0.4952 0.4034 0.6512 0.0000 -10609.9073 1440.9607 0.0000 0.0000 1762.7542 -7404.6426 304.9358 -9167.3969 -7383.1312 300.6784 -63.9496 26.9517 29919.0747 -187.7161 -115.4699
ENERGY: 900000 0.0723 0.5741 0.3999 0.0000 -10629.2669 1529.1421 0.0000 0.0000 1758.7261 -7340.3523 304.2390 -9099.0785 -7382.5752 301.5936 811.5721 951.5942 30173.5521 -7.7887 70.1502
ENERGY: 1200000 1.1085 1.0592 0.5822 0.0000 -10393.5002 1308.0708 0.0000 0.0000 1766.9149 -7315.7646 305.6556 -9082.6795 -7388.4242 301.4048 -615.2226 -529.0279 29861.5232 -53.1196 27.4824
ENERGY: 1500000 0.6189 0.6706 0.7527 0.0000 -10702.2798 1532.6112 0.0000 0.0000 1769.5786 -7398.0478 306.1164 -9167.6264 -7400.7593 301.6081 1057.0634 1077.0216 29567.8479 36.3326 116.4847
TCL: Running FEP window  15: Lambda1 0.7000000000000001 Lambda2 0.7500000000000001 [dLambda 0.050000000000000044]
TCL: Setting parameter firsttimestep to 0
TCL: Setting parameter alchLambda to 0.7000000000000001
Info: NONBONDED TABLE R-SQUARED SPACING: 0.0625
Info: NONBONDED TABLE SIZE: 705 POINTS
TCL: Setting parameter alchLambda2 to 0.7500000000000001
Info: NONBONDED TABLE R-SQUARED SPACING: 0.0625
Info: NONBONDED TABLE SIZE: 705 POINTS
TCL: Running for 1500000 steps
ETITLE: TS BOND ANGLE DIHED IMPRP ELECT VDW BOUNDARY MISC KINETIC TOTAL TEMP POTENTIAL TOTALAVG TEMPAVG PRESSURE GPRESSURE VOLUME PRESSAVG GPRESSAVG
ENERGY: 0 0.6189 0.6706 0.7527 0.0000 -10702.6935 1533.2305 0.0000 0.0000 1768.7015 -7398.7192 305.9646 -9167.4207 -7398.7192 305.9646 1006.2766 1087.6271 29567.8479 1006.2766 1087.6271
ENERGY: 300000 0.3974 0.1504 0.3921 0.0000 -10563.3647 1376.2028 0.0000 0.0000 1747.0022 -7439.2197 302.2109 -9186.2219 -7393.1151 300.9623 -537.8870 -537.3173 30366.0074 315.6548 347.9008
ENERGY: 600000 0.7836 1.9976 1.8420 0.0000 -10514.7875 1393.0676 0.0000 0.0000 1751.8683 -7365.2285 303.0527 -9117.0968 -7380.0740 302.6711 -191.0229 -142.4120 30069.5966 251.5272 289.9499
ENERGY: 900000 0.7212 0.1526 0.2092 0.0000 -10549.1640 1422.6349 0.0000 0.0000 1654.4897 -7470.9563 286.2073 -9125.4460 -7395.1099 301.0301 -197.4205 -153.8671 30419.3082 175.0533 210.2689
ENERGY: 1200000 1.1846 0.8537 0.7352 0.0000 -10652.4493 1498.0511 0.0000 0.0000 1750.3070 -7401.3178 302.7826 -9151.6248 -7396.8300 300.5783 865.4047 906.3348 29442.0124 203.0912 239.4530
ENERGY: 1500000 3.6608 2.0077 1.2533 0.0000 -10584.6802 1452.2175 0.0000 0.0000 1745.2049 -7380.3359 301.9000 -9125.5409 -7398.9368 300.2458 336.7042 393.2773 30323.8797 206.6950 244.0183
TCL: Running FEP window  16: Lambda1 0.7500000000000001 Lambda2 0.8000000000000002 [dLambda 0.050000000000000044]
TCL: Setting parameter firsttimestep to 0
TCL: Setting parameter alchLambda to 0.7500000000000001
Info: NONBONDED TABLE R-SQUARED SPACING: 0.0625
Info: NONBONDED TABLE SIZE: 705 POINTS
TCL: Setting parameter alchLambda2 to 0.8000000000000002
Info: NONBONDED TABLE R-SQUARED SPACING: 0.0625
Info: NONBONDED TABLE SIZE: 705 POINTS
TCL: Running for 1500000 steps
ETITLE: TS BOND ANGLE DIHED IMPRP ELECT VDW BOUNDARY MISC KINETIC TOTAL TEMP POTENTIAL TOTALAVG TEMPAVG PRESSURE GPRESSURE VOLUME PRESSAVG GPRESSAVG
ENERGY: 0 3.6608 2.0077 1.2533 0.0000 -10584.9438 1452.0456 0.0000 0.0000 1744.3158 -7381.6606 301.7462 -9125.9764 -7381.6606 301.7462 323.1055 394.3258 30323.8797 323.1055 394.3258
ENERGY: 300000 0.9206 0.6618 1.0470 0.0000 -10563.8322 1430.8056 0.0000 0.0000 1747.5349 -7382.8624 302.3030 -9130.3972 -7373.9087 304.0330 -171.1110 -65.0441 30422.2151 -52.7178 18.2377
ENERGY: 600000 0.8400 1.1487 1.3115 0.0000 -10689.8656 1469.6771 0.0000 0.0000 1770.9473 -7445.9410 306.3531 -9216.8883 -7393.6740 304.0140 147.5061 218.8498 30311.2969 99.9733 158.8291
ENERGY: 900000 0.9943 0.7730 0.4739 0.0000 -10548.8285 1346.9215 0.0000 0.0000 1708.4316 -7491.2341 295.5386 -9199.6657 -7413.5419 301.1397 -678.2632 -606.4245 29921.1344 23.5376 74.1451
ENERGY: 1200000 0.1208 0.4029 1.6530 0.0000 -10519.7654 1357.7163 0.0000 0.0000 1767.9273 -7391.9452 305.8307 -9159.8724 -7418.9502 300.9508 -483.2136 -414.2897 30012.0076 -65.3030 -6.9806
ENERGY: 1500000 0.3608 0.7202 1.6224 0.0000 -10676.4054 1451.6856 0.0000 0.0000 1692.5234 -7529.4929 292.7867 -9222.0163 -7422.5773 300.7558 -20.4935 -0.2695 30006.1441 -0.4895 51.4515
TCL: Running FEP window  17: Lambda1 0.8000000000000002 Lambda2 0.8500000000000002 [dLambda 0.050000000000000044]
TCL: Setting parameter firsttimestep to 0
TCL: Setting parameter alchLambda to 0.8000000000000002
Info: NONBONDED TABLE R-SQUARED SPACING: 0.0625
Info: NONBONDED TABLE SIZE: 705 POINTS
TCL: Setting parameter alchLambda2 to 0.8500000000000002
Info: NONBONDED TABLE R-SQUARED SPACING: 0.0625
Info: NONBONDED TABLE SIZE: 705 POINTS
TCL: Running for 1500000 steps
ETITLE: TS BOND ANGLE DIHED IMPRP ELECT VDW BOUNDARY MISC KINETIC TOTAL TEMP POTENTIAL TOTALAVG TEMPAVG PRESSURE GPRESSURE VOLUME PRESSAVG GPRESSAVG
ENERGY: 0 0.3608 0.7202 1.6224 0.0000 -10676.5121 1451.6381 0.0000 0.0000 1691.6241 -7530.5464 292.6311 -9222.1705 -7530.5464 292.6311 -79.7194 3.9502 30006.1441 -79.7194 3.9502
ENERGY: 300000 0.7703 0.6361 0.1114 0.0000 -10611.8850 1403.9753 0.0000 0.0000 1697.6487 -7508.7432 293.6733 -9206.3919 -7439.6762 296.2550 -400.9736 -306.6507 29895.6102 -231.4184 -156.3051
ENERGY: 600000 1.6253 1.0422 2.0185 0.0000 -10403.6802 1301.7068 0.0000 0.0000 1740.9615 -7356.3258 301.1659 -9097.2873 -7388.4105 300.6802 -844.1741 -804.5421 30317.0004 -12.9091 54.0034
ENERGY: 900000 0.6947 0.3516 0.6619 0.0000 -10535.3378 1425.7113 0.0000 0.0000 1747.7464 -7360.1720 302.3396 -9107.9184 -7394.0436 300.7983 -2.0309 49.2500 30056.6288 58.6342 121.0054
ENERGY: 1200000 0.5965 3.4971 1.7672 0.0000 -10588.3354 1394.1924 0.0000 0.0000 1754.8346 -7433.4476 303.5658 -9188.2822 -7406.9905 299.6983 -179.2718 -149.1616 29867.0551 -51.8011 12.7741
ENERGY: 1500000 4.2725 0.7911 2.7584 0.0000 -10706.7982 1502.1427 0.0000 0.0000 1740.5580 -7456.2754 301.0961 -9196.8334 -7415.0802 299.0825 738.5205 831.8755 29461.0668 38.1255 101.9064
TCL: Running FEP window  18: Lambda1 0.8500000000000002 Lambda2 0.9000000000000002 [dLambda 0.050000000000000044]
TCL: Setting parameter firsttimestep to 0
TCL: Setting parameter alchLambda to 0.8500000000000002
Info: NONBONDED TABLE R-SQUARED SPACING: 0.0625
Info: NONBONDED TABLE SIZE: 705 POINTS
TCL: Setting parameter alchLambda2 to 0.9000000000000002
Info: NONBONDED TABLE R-SQUARED SPACING: 0.0625
Info: NONBONDED TABLE SIZE: 705 POINTS
TCL: Running for 1500000 steps
ETITLE: TS BOND ANGLE DIHED IMPRP ELECT VDW BOUNDARY MISC KINETIC TOTAL TEMP POTENTIAL TOTALAVG TEMPAVG PRESSURE GPRESSURE VOLUME PRESSAVG GPRESSAVG
ENERGY: 0 4.2725 0.7911 2.7584 0.0000 -10706.8407 1502.0713 0.0000 0.0000 1739.6763 -7457.2710 300.9436 -9196.9473 -7457.2710 300.9436 769.0821 836.2350 29461.0668 769.0821 836.2350
ENERGY: 300000 0.7312 1.2200 0.0501 0.0000 -10507.0120 1375.1635 0.0000 0.0000 1714.8399 -7415.0073 296.6472 -9129.8472 -7427.5077 298.0482 -395.7186 -327.6321 30005.3553 -175.2459 -117.8933
ENERGY: 600000 0.6433 0.4404 0.0956 0.0000 -10552.3377 1420.7424 0.0000 0.0000 1746.8968 -7383.5191 302.1927 -9130.4159 -7424.9963 298.9561 -25.6771 113.5103 30212.9181 -132.3886 -53.1713
ENERGY: 900000 0.8797 2.4361 0.0083 0.0000 -10617.4666 1449.8524 0.0000 0.0000 1724.7736 -7439.5165 298.3656 -9164.2902 -7424.9661 299.2346 284.6348 386.2550 29778.4531 -115.4398 -38.9691
ENERGY: 1200000 2.2610 0.7159 0.3371 0.0000 -10708.7767 1512.8225 0.0000 0.0000 1692.7420 -7499.8981 292.8245 -9192.6401 -7428.0715 298.1140 712.4152 728.7390 29723.7876 -17.3098 57.0724
ENERGY: 1500000 0.6111 0.6121 1.6675 0.0000 -10522.9625 1335.4454 0.0000 0.0000 1723.7376 -7460.8889 298.1864 -9184.6265 -7422.0994 298.7628 -446.4366 -419.2242 29431.1789 -9.4995 58.3443
TCL: Running FEP window  19: Lambda1 0.9000000000000002 Lambda2 0.9500000000000003 [dLambda 0.050000000000000044]
TCL: Setting parameter firsttimestep to 0
TCL: Setting parameter alchLambda to 0.9000000000000002
Info: NONBONDED TABLE R-SQUARED SPACING: 0.0625
Info: NONBONDED TABLE SIZE: 705 POINTS
TCL: Setting parameter alchLambda2 to 0.9500000000000003
Info: NONBONDED TABLE R-SQUARED SPACING: 0.0625
Info: NONBONDED TABLE SIZE: 705 POINTS
TCL: Running for 1500000 steps
ETITLE: TS BOND ANGLE DIHED IMPRP ELECT VDW BOUNDARY MISC KINETIC TOTAL TEMP POTENTIAL TOTALAVG TEMPAVG PRESSURE GPRESSURE VOLUME PRESSAVG GPRESSAVG
ENERGY: 0 0.6111 0.6121 1.6675 0.0000 -10523.0884 1335.3910 0.0000 0.0000 1722.8184 -7461.9884 298.0274 -9184.8067 -7461.9884 298.0274 -502.4347 -413.7745 29431.1789 -502.4347 -413.7745
ENERGY: 300000 0.5930 1.7809 0.7424 0.0000 -10610.2067 1416.0724 0.0000 0.0000 1732.0728 -7458.9451 299.6283 -9191.0179 -7429.8400 299.7598 -122.3213 -101.2062 30100.3086 35.8740 81.9932
ENERGY: 600000 0.5875 2.1834 1.5519 0.0000 -10539.6401 1348.7939 0.0000 0.0000 1799.1144 -7387.4091 311.2257 -9186.5235 -7417.5221 302.6620 -744.1129 -707.4697 30266.2567 -113.3043 -72.7377
ENERGY: 900000 1.1728 0.5106 1.4656 0.0000 -10484.9124 1389.4111 0.0000 0.0000 1687.5510 -7404.8013 291.9265 -9092.3523 -7425.2619 302.0806 -107.1771 13.8966 29796.1368 -202.3341 -146.4972
ENERGY: 1200000 1.5982 3.1532 1.3584 0.0000 -10637.8174 1456.1279 0.0000 0.0000 1772.5235 -7403.0561 306.6258 -9175.5796 -7417.7796 302.3427 331.0110 441.0049 29773.5544 -97.9759 -31.8362
ENERGY: 1500000 0.4291 0.4033 0.2561 0.0000 -10548.6680 1459.1117 0.0000 0.0000 1700.1914 -7388.2763 294.1132 -9088.4677 -7413.9113 301.2174 158.9982 239.1893 30311.2016 -92.8777 -21.3156
TCL: Running FEP window  20: Lambda1 0.9500000000000003 Lambda2 1.0    [dLambda 0.04999999999999971]
TCL: Setting parameter firsttimestep to 0
TCL: Setting parameter alchLambda to 0.9500000000000003
Info: NONBONDED TABLE R-SQUARED SPACING: 0.0625
Info: NONBONDED TABLE SIZE: 705 POINTS
TCL: Setting parameter alchLambda2 to 1.0
Info: NONBONDED TABLE R-SQUARED SPACING: 0.0625
Info: NONBONDED TABLE SIZE: 705 POINTS
TCL: Running for 1500000 steps
ETITLE: TS BOND ANGLE DIHED IMPRP ELECT VDW BOUNDARY MISC KINETIC TOTAL TEMP POTENTIAL TOTALAVG TEMPAVG PRESSURE GPRESSURE VOLUME PRESSAVG GPRESSAVG
ENERGY: 0 0.4291 0.4033 0.2561 0.0000 -10548.9381 1458.7929 0.0000 0.0000 1699.3062 -7389.7505 293.9601 -9089.0567 -7389.7505 293.9601 145.0644 244.2210 30311.2016 145.0644 244.2210
ENERGY: 300000 1.4526 0.7392 0.2004 0.0000 -10514.0640 1395.8904 0.0000 0.0000 1679.6124 -7436.1690 290.5532 -9115.7814 -7392.9629 296.3078 -29.8219 17.7323 30025.2940 -222.1994 -168.3946
ENERGY: 600000 0.7132 0.3154 0.3224 0.0000 -10487.7103 1400.3471 0.0000 0.0000 1741.8153 -7344.1969 301.3136 -9086.0123 -7417.4113 295.3045 -6.5590 187.3283 29763.3756 -212.7510 -132.4157
ENERGY: 900000 0.4546 2.0567 0.5661 0.0000 -10647.1033 1475.4023 0.0000 0.0000 1734.1793 -7434.4444 299.9927 -9168.6237 -7418.0555 297.3588 190.0696 222.8905 30425.7288 -226.4861 -149.1373
ENERGY: 1200000 0.8972 1.5037 1.3227 0.0000 -10455.1614 1342.6418 0.0000 0.0000 1755.5017 -7353.2943 303.6812 -9108.7961 -7408.9769 298.7475 -280.6518 -247.4336 29602.3627 -171.6026 -93.7057
ENERGY: 1500000 0.8007 3.2708 0.6812 0.0000 -10680.2908 1526.6754 0.0000 0.0000 1740.8916 -7407.9710 301.1538 -9148.8627 -7407.7179 298.7262 755.4326 801.0942 30037.5283 -73.9293 0.0584
TCL: Exiting due to exit command.
