Info: SIMULATION PARAMETERS:
Info: TIMESTEP               2
Info: NUMBER OF STEPS        0
Info: STEPS PER CYCLE        10
Info: PERIODIC CELL BASIS 1  35.89 0 0
Info: PERIODIC CELL BASIS 2  0 34.696 0
Info: PERIODIC CELL BASIS 3  0 0 35.723
Info: PERIODIC CELL CENTER   0 0 0
Info: WRAPPING WATERS AROUND PERIODIC BOUNDARIES ON OUTPUT.
Info: WRAPPING ALL CLUSTERS AROUND PERIODIC BOUNDARIES ON OUTPUT.
Info: FIRST LDB TIMESTEP     50
Info: LAST LDB TIMESTEP     -1
Info: HOM BACKGROUND SCALING 1
Info: PME BACKGROUND SCALING 1
Info: MIN ATOMS PER PATCH    40
Info: EMPTY PATCH LOAD       40 ATOMS
Info: INITIAL TEMPERATURE    300
Info: CENTER OF MASS MOVING INITIALLY? NO
Info: DIELECTRIC             1
Info: EXCLUDE                SCALED ONE-FOUR
Info: 1-4 ELECTROSTATICS SCALED BY 0.833333
Info: MODIFIED 1-4 VDW PARAMETERS WILL BE USED
Info: DCD FILENAME           mobley_2390199_equil.dcd
Info: DCD FREQUENCY          100000
Info: DCD FIRST STEP         100000
Info: DCD FILE WILL CONTAIN UNIT CELL DATA
Info: XST FILENAME           mobley_2390199_equil.xst
Info: XST FREQUENCY          100000
Info: NO VELOCITY DCD OUTPUT
Info: NO FORCE DCD OUTPUT
Info: OUTPUT FILENAME        mobley_2390199_equil
Info: BINARY OUTPUT FILES WILL BE USED
Info: RESTART FILENAME       mobley_2390199_equil.restart
Info: RESTART FREQUENCY      100000
Info: BINARY RESTART FILES WILL BE USED
Info: CUTOFF                 9
Info: PAIRLIST DISTANCE      11
Info: PAIRLIST SHRINK RATE   0.01
Info: PAIRLIST GROW RATE     0.01
Info: PAIRLIST TRIGGER       0.3
Info: PAIRLISTS PER CYCLE    2
Info: PAIRLISTS ENABLED
Info: MARGIN                 8
Info: HYDROGEN GROUP CUTOFF  2.5
Info: PATCH DIMENSION        21.5
Info: ENERGY OUTPUT STEPS    100000
Info: ENERGY EVALUATION STEPS    100000
Info: OUTPUT ENERGY PRECISION 4
Info: CROSSTERM ENERGY INCLUDED IN DIHEDRAL
Info: TIMING OUTPUT STEPS    1000000
Info: PRESSURE OUTPUT STEPS  100000
Info: LANGEVIN DYNAMICS ACTIVE
Info: LANGEVIN TEMPERATURE   30
Info: LANGEVIN USING BBK INTEGRATOR
Info: LANGEVIN DAMPING COEFFICIENT IS 1 INVERSE PS
Info: LANGEVIN DYNAMICS APPLIED TO HYDROGENS
Info: LANGEVIN PISTON PRESSURE CONTROL ACTIVE
Info:        TARGET PRESSURE IS 1.01325 BAR
Info:     OSCILLATION PERIOD IS 50 FS
Info:             DECAY TIME IS 25 FS
Info:     PISTON TEMPERATURE IS 300 K
Info:       PRESSURE CONTROL IS GROUP-BASED
Info:    INITIAL STRAIN RATE IS 0 0 0
Info:       CELL FLUCTUATION IS ISOTROPIC
Info: PARTICLE MESH EWALD (PME) ACTIVE
Info: PME TOLERANCE               1e-06
Info: PME EWALD COEFFICIENT       0.348832
Info: PME INTERPOLATION ORDER     4
Info: PME GRID DIMENSIONS         36 36 36
Info: PME MAXIMUM GRID SPACING    1
Info: FULL ELECTROSTATIC EVALUATION FREQUENCY      2
Info: USING VERLET I (r-RESPA) MTS SCHEME.
Info: C1 SPLITTING OF LONG RANGE ELECTROSTATICS
Info: PLACING ATOMS IN PATCHES BY HYDROGEN GROUPS
Info: RIGID BONDS TO HYDROGEN : ALL
Info:         ERROR TOLERANCE : 1e-08
Info:          MAX ITERATIONS : 100
Info: RIGID WATER USING SETTLE ALGORITHM
Info: RANDOM NUMBER SEED     1743256284
Info: USE HYDROGEN BONDS?    NO
Info: Using AMBER format force field!
Info: AMBER PARM FILE        mobley_2390199.prmtop
Info: COORDINATE PDB         mobley_2390199.pdb
Info: Exclusions will be read from PARM file!
Info: SCNB (VDW SCALING)     2
Info: USING ARITHMETIC MEAN TO COMBINE L-J SIGMA PARAMETERS
Info: BINARY COORDINATES     mobley_2390199_min.coor
Info: SUMMARY OF PARAMETERS:
Info: 6 BONDS
Info: 7 ANGLES
Info:   7 HARMONIC
Info:   0 COSINE-BASED
Info: 8 DIHEDRAL
Info: 0 IMPROPER
Info: 0 CROSSTERM
Info: 0 VDW
Info: 21 VDW_PAIRS
Info: 0 NBTHOLE_PAIRS
Info: STRUCTURE SUMMARY:
Info: 2932 ATOMS
Info: 2931 BONDS
Info: 39 ANGLES
Info: 57 DIHEDRALS
Info: 0 IMPROPERS
Info: 0 CROSSTERMS
Info: 3018 EXCLUSIONS
Info: 2924 RIGID BONDS
Info: 5872 DEGREES OF FREEDOM
Info: 978 HYDROGEN GROUPS
Info: 4 ATOMS IN LARGEST HYDROGEN GROUP
Info: 978 MIGRATION GROUPS
Info: 4 ATOMS IN LARGEST MIGRATION GROUP
Info: TOTAL MASS = 17589.7 amu
Info: TOTAL CHARGE = -0.000399999 e
Info: MASS DENSITY = 0.656624 g/cm^3
Info: ATOM DENSITY = 0.0659118 atoms/A^3
Info: ADDED 0 IMPLICIT EXCLUSIONS
Info: NONBONDED TABLE R-SQUARED SPACING: 0.0625
Info: NONBONDED TABLE SIZE: 705 POINTS
Info: REMOVING COM VELOCITY 0.0166874 -0.0197455 0.120566
TCL: Running for 100000 steps
ETITLE: TS BOND ANGLE DIHED IMPRP ELECT VDW BOUNDARY MISC KINETIC TOTAL TEMP POTENTIAL TOTAL3 TEMPAVG PRESSURE GPRESSURE VOLUME PRESSAVG GPRESSAVG
ENERGY: 0 0.1315 0.5638 2.0817 0.0000 -13529.2087 2405.1264 0.0000 0.0000 1786.1574 -9335.1479 306.1428 -11121.3053 -9334.7891 306.1428 450.6401 485.8421 44483.6885 450.6401 485.8421
ENERGY: 100000 0.2824 1.4654 1.8206 0.0000 -14059.7289 2431.1069 0.0000 0.0000 176.6540 -11448.3998 30.2780 -11625.0537 -11447.8769 30.9144 -262.8537 -214.3094 29013.2122 4.2433 4.1918
TCL: Running 100000 steps at 60 kelvin.
TCL: Setting parameter langevinTemp to 60
TCL: Running for 100000 steps
ETITLE: TS BOND ANGLE DIHED IMPRP ELECT VDW BOUNDARY MISC KINETIC TOTAL TEMP POTENTIAL TOTAL3 TEMPAVG PRESSURE GPRESSURE VOLUME PRESSAVG GPRESSAVG
ENERGY: 100000 0.2824 1.4654 1.8206 0.0000 -14059.7289 2431.1069 0.0000 0.0000 176.5682 -11448.4855 30.2633 -11625.0537 -11448.1007 30.2633 -261.2853 -214.1607 29013.2122 -261.2853 -214.1607
ENERGY: 200000 1.4455 2.0019 1.8818 0.0000 -14031.0571 2425.5344 0.0000 0.0000 336.3036 -11263.8899 57.6416 -11600.1935 -11262.6104 59.9748 -244.2329 -191.6675 28911.1874 4.5295 4.5681
TCL: Running 100000 steps at 90 kelvin.
TCL: Setting parameter langevinTemp to 90
TCL: Running for 100000 steps
ETITLE: TS BOND ANGLE DIHED IMPRP ELECT VDW BOUNDARY MISC KINETIC TOTAL TEMP POTENTIAL TOTAL3 TEMPAVG PRESSURE GPRESSURE VOLUME PRESSAVG GPRESSAVG
ENERGY: 200000 1.4455 2.0019 1.8818 0.0000 -14031.0571 2425.5344 0.0000 0.0000 336.1311 -11264.0624 57.6120 -11600.1935 -11263.3257 57.6120 -246.4598 -191.1895 28911.1874 -246.4598 -191.1895
ENERGY: 300000 0.7763 4.2487 1.9606 0.0000 -13815.2656 2321.1841 0.0000 0.0000 532.9205 -10954.1754 91.3412 -11487.0959 -10953.5786 89.7250 -503.7224 -446.4648 28854.7384 5.3587 5.1904
TCL: Running 100000 steps at 120 kelvin.
TCL: Setting parameter langevinTemp to 120
TCL: Running for 100000 steps
ETITLE: TS BOND ANGLE DIHED IMPRP ELECT VDW BOUNDARY MISC KINETIC TOTAL TEMP POTENTIAL TOTAL3 TEMPAVG PRESSURE GPRESSURE VOLUME PRESSAVG GPRESSAVG
ENERGY: 300000 0.7763 4.2487 1.9606 0.0000 -13815.2656 2321.1841 0.0000 0.0000 532.6587 -10954.4371 91.2963 -11487.0959 -10953.3861 91.2963 -494.1430 -447.3914 28854.7384 -494.1430 -447.3914
ENERGY: 400000 0.5306 4.3273 2.1148 0.0000 -13688.6329 2352.1503 0.0000 0.0000 697.0728 -10632.4371 119.4765 -11329.5099 -10630.2171 119.9806 477.0245 513.0557 28637.1207 3.4120 3.4803
TCL: Running 100000 steps at 150 kelvin.
TCL: Setting parameter langevinTemp to 150
TCL: Running for 100000 steps
ETITLE: TS BOND ANGLE DIHED IMPRP ELECT VDW BOUNDARY MISC KINETIC TOTAL TEMP POTENTIAL TOTAL3 TEMPAVG PRESSURE GPRESSURE VOLUME PRESSAVG GPRESSAVG
ENERGY: 400000 0.5306 4.3273 2.1148 0.0000 -13688.6329 2352.1503 0.0000 0.0000 696.7393 -10632.7706 119.4193 -11329.5099 -10631.4205 119.4193 466.8541 512.9743 28637.1207 466.8541 512.9743
ENERGY: 500000 1.8880 5.3308 3.9141 0.0000 -13567.3389 2361.0391 0.0000 0.0000 885.2095 -10309.9573 151.7226 -11195.1668 -10307.7253 149.8167 979.6576 1032.1224 28718.6008 4.4996 4.4646
TCL: Running 100000 steps at 180 kelvin.
TCL: Setting parameter langevinTemp to 180
TCL: Running for 100000 steps
ETITLE: TS BOND ANGLE DIHED IMPRP ELECT VDW BOUNDARY MISC KINETIC TOTAL TEMP POTENTIAL TOTAL3 TEMPAVG PRESSURE GPRESSURE VOLUME PRESSAVG GPRESSAVG
ENERGY: 500000 1.8880 5.3308 3.9141 0.0000 -13567.3389 2361.0391 0.0000 0.0000 884.7727 -10310.3941 151.6478 -11195.1668 -10308.9958 151.6478 974.1246 1032.0852 28718.6008 974.1246 1032.0852
ENERGY: 600000 1.5701 5.4736 2.5308 0.0000 -12914.3461 1996.3629 0.0000 0.0000 1056.1840 -9852.2248 181.0272 -10908.4087 -9850.3115 180.1502 -1115.4503 -1035.2424 28983.8638 4.1136 4.0965
TCL: Running 100000 steps at 210 kelvin.
TCL: Setting parameter langevinTemp to 210
TCL: Running for 100000 steps
ETITLE: TS BOND ANGLE DIHED IMPRP ELECT VDW BOUNDARY MISC KINETIC TOTAL TEMP POTENTIAL TOTAL3 TEMPAVG PRESSURE GPRESSURE VOLUME PRESSAVG GPRESSAVG
ENERGY: 600000 1.5701 5.4736 2.5308 0.0000 -12914.3461 1996.3629 0.0000 0.0000 1055.6777 -9852.7310 180.9405 -10908.4087 -9850.5403 180.9405 -1096.0370 -1035.9902 28983.8638 -1096.0370 -1035.9902
ENERGY: 700000 0.8244 6.5224 3.5440 0.0000 -12255.7679 1906.5334 0.0000 0.0000 1258.2547 -9080.0892 215.6616 -10338.3438 -9076.8033 209.8269 738.0028 757.0886 28435.1480 3.8327 3.8141
TCL: Running 100000 steps at 240 kelvin.
TCL: Setting parameter langevinTemp to 240
TCL: Running for 100000 steps
ETITLE: TS BOND ANGLE DIHED IMPRP ELECT VDW BOUNDARY MISC KINETIC TOTAL TEMP POTENTIAL TOTAL3 TEMPAVG PRESSURE GPRESSURE VOLUME PRESSAVG GPRESSAVG
ENERGY: 700000 0.8244 6.5224 3.5440 0.0000 -12255.7679 1906.5334 0.0000 0.0000 1257.6677 -9080.6761 215.5610 -10338.3438 -9078.4329 215.5610 673.3688 756.8672 28435.1480 673.3688 756.8672
ENERGY: 800000 1.7474 9.6812 4.0806 0.0000 -11747.4415 1702.1049 0.0000 0.0000 1383.6263 -8646.2010 237.1500 -10029.8274 -8644.5666 239.9080 146.3002 184.3333 28761.8150 3.5934 3.5663
TCL: Running 100000 steps at 270 kelvin.
TCL: Setting parameter langevinTemp to 270
TCL: Running for 100000 steps
ETITLE: TS BOND ANGLE DIHED IMPRP ELECT VDW BOUNDARY MISC KINETIC TOTAL TEMP POTENTIAL TOTAL3 TEMPAVG PRESSURE GPRESSURE VOLUME PRESSAVG GPRESSAVG
ENERGY: 800000 1.7474 9.6812 4.0806 0.0000 -11747.4415 1702.1049 0.0000 0.0000 1382.8920 -8646.9354 237.0242 -10029.8274 -8644.8032 237.0242 115.5075 183.7379 28761.8150 115.5075 183.7379
ENERGY: 900000 2.0815 13.1921 3.4454 0.0000 -11030.9521 1498.5012 0.0000 0.0000 1594.0390 -7919.6929 273.2142 -9513.7319 -7918.2295 269.4409 -281.1438 -287.5956 29832.5231 2.4363 2.5593
TCL: Running 1000000 steps at 300 kelvin.
TCL: Setting parameter langevinTemp to 300
TCL: Running for 1000000 steps
ETITLE: TS BOND ANGLE DIHED IMPRP ELECT VDW BOUNDARY MISC KINETIC TOTAL TEMP POTENTIAL TOTAL3 TEMPAVG PRESSURE GPRESSURE VOLUME PRESSAVG GPRESSAVG
ENERGY: 900000 2.0815 13.1921 3.4454 0.0000 -11030.9521 1498.5012 0.0000 0.0000 1593.2514 -7920.4805 273.0792 -9513.7319 -7917.9198 273.0792 -363.1388 -287.8222 29832.5231 -363.1388 -287.8222
ENERGY: 1100000 1.2725 7.3599 3.6433 0.0000 -10724.5576 1491.2006 0.0000 0.0000 1802.9797 -7418.1016 309.0261 -9221.0813 -7415.3918 299.7326 471.7612 575.0411 30399.7065 3.2084 3.2787
ENERGY: 1300000 2.8662 7.6677 2.5998 0.0000 -10559.9854 1456.2425 0.0000 0.0000 1745.7156 -7344.8937 299.2112 -9090.6093 -7339.6374 300.1096 453.1245 547.9470 30273.8806 2.4485 2.6668
ENERGY: 1500000 3.6574 9.0991 5.6557 0.0000 -10601.3634 1411.7949 0.0000 0.0000 1768.0959 -7403.0604 303.0471 -9171.1563 -7398.4102 299.8008 180.0561 186.3033 29821.2539 3.0534 2.9059
ENERGY: 1700000 1.8783 13.5038 4.4965 0.0000 -10523.1979 1308.0471 0.0000 0.0000 1741.2444 -7454.0278 298.4448 -9195.2722 -7451.6715 300.2412 -794.4348 -742.3672 30015.2599 3.9251 3.9395
ENERGY: 1900000 2.3455 8.7192 2.9485 0.0000 -10570.8927 1391.0737 0.0000 0.0000 1771.5409 -7394.2648 303.6376 -9165.8058 -7393.0881 299.8159 0.5503 16.5158 30078.4550 2.8658 2.7813
TCL: Exiting due to exit command.
