Info: SIMULATION PARAMETERS:
Info: TIMESTEP               2
Info: NUMBER OF STEPS        0
Info: STEPS PER CYCLE        10
Info: PERIODIC CELL BASIS 1  31.6277 0 0
Info: PERIODIC CELL BASIS 2  0 31.1059 0
Info: PERIODIC CELL BASIS 3  0 0 31.3105
Info: PERIODIC CELL CENTER   0 0 0
Info: WRAPPING WATERS AROUND PERIODIC BOUNDARIES ON OUTPUT.
Info: WRAPPING ALL CLUSTERS AROUND PERIODIC BOUNDARIES ON OUTPUT.
Info: FIRST LDB TIMESTEP     50
Info: LAST LDB TIMESTEP     -1
Info: HOM BACKGROUND SCALING 1
Info: PME BACKGROUND SCALING 1
Info: MIN ATOMS PER PATCH    40
Info: EMPTY PATCH LOAD       40 ATOMS
Info: VELOCITY FILE          mobley_1952272_equil.vel
Info: CENTER OF MASS MOVING INITIALLY? NO
Info: DIELECTRIC             1
Info: EXCLUDE                SCALED ONE-FOUR
Info: 1-4 ELECTROSTATICS SCALED BY 0.833333
Info: MODIFIED 1-4 VDW PARAMETERS WILL BE USED
Info: DCD FILENAME           mobley_1952272_prod.dcd
Info: DCD FREQUENCY          100000
Info: DCD FIRST STEP         100000
Info: DCD FILE WILL CONTAIN UNIT CELL DATA
Info: XST FILENAME           mobley_1952272_prod.xst
Info: XST FREQUENCY          100000
Info: NO VELOCITY DCD OUTPUT
Info: NO FORCE DCD OUTPUT
Info: OUTPUT FILENAME        mobley_1952272_prod
Info: BINARY OUTPUT FILES WILL BE USED
Info: RESTART FILENAME       mobley_1952272_prod.restart
Info: RESTART FREQUENCY      100000
Info: BINARY RESTART FILES WILL BE USED
Info: CUTOFF                 9
Info: PAIRLIST DISTANCE      11
Info: PAIRLIST SHRINK RATE   0.01
Info: PAIRLIST GROW RATE     0.01
Info: PAIRLIST TRIGGER       0.3
Info: PAIRLISTS PER CYCLE    2
Info: PAIRLISTS ENABLED
Info: MARGIN                 2
Info: HYDROGEN GROUP CUTOFF  2.5
Info: PATCH DIMENSION        15.5
Info: ENERGY OUTPUT STEPS    100000
Info: ENERGY EVALUATION STEPS    100000
Info: OUTPUT ENERGY PRECISION 4
Info: CROSSTERM ENERGY INCLUDED IN DIHEDRAL
Info: TIMING OUTPUT STEPS    1000000
Info: PRESSURE OUTPUT STEPS  100000
Info: ALCHEMICAL FEP ON
Info: FEP CURRENT LAMBDA VALUE     0
Info: FEP COMPARISON LAMBDA VALUE  0.05
Info: FEP INTRA-ALCHEMICAL NON-BONDED INTERACTIONS WILL BE RETAINED
Info: FEP INTRA-ALCHEMICAL BONDED INTERACTIONS WILL BE RETAINED
Info: FEP VDW SHIFTING COEFFICIENT 5
Info: FEP ELEC. ACTIVE FOR ANNIHILATED PARTICLES BETWEEN LAMBDA = 0 AND LAMBDA = 0.5
Info: FEP ELEC. ACTIVE FOR EXNIHILATED PARTICLES BETWEEN LAMBDA = 0.5 AND LAMBDA = 1
Info: FEP VDW ACTIVE FOR ANNIHILATED PARTICLES BETWEEN LAMBDA = 0 AND LAMBDA = 1
Info: FEP VDW ACTIVE FOR EXNIHILATED PARTICLES BETWEEN LAMBDA = 0 AND LAMBDA = 1
Info: FEP BOND ACTIVE FOR ANNIHILATED PARTICLES BETWEEN LAMBDA = 1 AND LAMBDA = 1
Info: FEP BOND ACTIVE FOR EXNIHILATED PARTICLES BETWEEN LAMBDA = 0 AND LAMBDA = 0
Info: LANGEVIN DYNAMICS ACTIVE
Info: LANGEVIN TEMPERATURE   300
Info: LANGEVIN USING BBK INTEGRATOR
Info: LANGEVIN DAMPING COEFFICIENT IS 1 INVERSE PS
Info: LANGEVIN DYNAMICS APPLIED TO HYDROGENS
Info: LANGEVIN PISTON PRESSURE CONTROL ACTIVE
Info:        TARGET PRESSURE IS 1.01325 BAR
Info:     OSCILLATION PERIOD IS 50 FS
Info:             DECAY TIME IS 25 FS
Info:     PISTON TEMPERATURE IS 300 K
Info:       PRESSURE CONTROL IS GROUP-BASED
Info:    INITIAL STRAIN RATE IS -0.000453163 -0.000453163 -0.000453163
Info:       CELL FLUCTUATION IS ISOTROPIC
Info: PARTICLE MESH EWALD (PME) ACTIVE
Info: PME TOLERANCE               1e-06
Info: PME EWALD COEFFICIENT       0.348832
Info: PME INTERPOLATION ORDER     4
Info: PME GRID DIMENSIONS         32 32 32
Info: PME MAXIMUM GRID SPACING    1
Info: PME CALCULATION WILL BE PERFORMED ON GPU
Info: FULL ELECTROSTATIC EVALUATION FREQUENCY      2
Info: USING VERLET I (r-RESPA) MTS SCHEME.
Info: C1 SPLITTING OF LONG RANGE ELECTROSTATICS
Info: PLACING ATOMS IN PATCHES BY HYDROGEN GROUPS
Info: RIGID BONDS TO HYDROGEN : ALL
Info:         ERROR TOLERANCE : 1e-08
Info:          MAX ITERATIONS : 100
Info: RIGID WATER USING SETTLE ALGORITHM
Info: RANDOM NUMBER SEED     1743477622
Info: USE HYDROGEN BONDS?    NO
Info: Using AMBER format force field!
Info: AMBER PARM FILE        mobley_1952272.prmtop
Info: COORDINATE PDB         mobley_1952272.pdb
Info: Exclusions will be read from PARM file!
Info: SCNB (VDW SCALING)     2
Info: USING ARITHMETIC MEAN TO COMBINE L-J SIGMA PARAMETERS
Info: BINARY COORDINATES     mobley_1952272_equil.coor
Info: SUMMARY OF PARAMETERS:
Info: 5 BONDS
Info: 4 ANGLES
Info:   4 HARMONIC
Info:   0 COSINE-BASED
Info: 1 DIHEDRAL
Info: 0 IMPROPER
Info: 0 CROSSTERM
Info: 0 VDW
Info: 21 VDW_PAIRS
Info: 0 NBTHOLE_PAIRS
Info: To read alchdata from file: mobley_1952272.pdb
Info: To read alchflag data from column: 5
Info: STRUCTURE SUMMARY:
Info: 2998 ATOMS
Info: 2997 BONDS
Info: 9 ANGLES
Info: 6 DIHEDRALS
Info: 0 IMPROPERS
Info: 0 CROSSTERMS
Info: 3012 EXCLUSIONS
Info: 2994 RIGID BONDS
Info: ALCH: 0 ATOMS TO DISAPPEAR IN FINAL STATE
Info: ALCH: 7 ATOMS TO APPEAR IN FINAL STATE
Info: 6000 DEGREES OF FREEDOM
Info: 1001 HYDROGEN GROUPS
Info: 4 ATOMS IN LARGEST HYDROGEN GROUP
Info: 1001 MIGRATION GROUPS
Info: 4 ATOMS IN LARGEST MIGRATION GROUP
Info: TOTAL MASS = 18023 amu
Info: TOTAL CHARGE = 9.99793e-05 e
Info: MASS DENSITY = 0.971597 g/cm^3
Info: ATOM DENSITY = 0.0973266 atoms/A^3
Info: ADDED 0 IMPLICIT EXCLUSIONS
Info: NONBONDED TABLE R-SQUARED SPACING: 0.0625
Info: NONBONDED TABLE SIZE: 705 POINTS
Info: REDUCING NUMBER OF PATCHES TO IMPROVE LOAD BALANCE
Info: REMOVING COM VELOCITY 0.0936186 -0.0495566 -0.0919445
Info: Use 3D box decompostion in PME FFT.
Info: Updated CUDA force table with 4096 elements.
Info: Updated CUDA LJ table with 6 x 6 elements.
Info: Found 10 unique exclusion lists needing 12 bytes
TCL: Running for 1500000 steps
ETITLE: TS BOND ANGLE DIHED IMPRP ELECT VDW BOUNDARY MISC KINETIC TOTAL TEMP POTENTIAL TOTALAVG TEMPAVG PRESSURE GPRESSURE VOLUME PRESSAVG GPRESSAVG
ENERGY: 0 0.3539 1.6016 0.0000 0.0000 -10928.7622 1542.7252 0.0000 0.0000 1782.8210 -7601.2605 299.0521 -9384.0815 -7601.2605 299.0521 664.0514 741.8460 30803.4878 664.0514 741.8460
ENERGY: 300000 2.9857 3.1464 0.0000 0.0000 -10976.5730 1480.7015 0.0000 0.0000 1809.7385 -7680.0010 303.5673 -9489.7394 -7646.3759 300.1710 -74.2069 -34.0715 30752.4589 176.8008 228.8161
ENERGY: 600000 0.2409 1.8909 0.0000 0.0000 -11044.2554 1600.4561 0.0000 0.0000 1804.9810 -7636.6866 302.7692 -9441.6675 -7650.2913 298.3582 1048.6762 1148.7799 30396.1482 82.6827 142.2035
ENERGY: 900000 1.7386 3.6961 0.0000 0.0000 -11034.5825 1530.7340 0.0000 0.0000 1812.1610 -7686.2528 303.9736 -9498.4138 -7644.3532 299.6638 182.2841 243.9881 30956.7755 119.5634 185.5568
ENERGY: 1200000 0.8549 3.2273 0.0000 0.0000 -10771.5929 1376.4616 0.0000 0.0000 1754.5518 -7636.4973 294.3102 -9391.0491 -7643.8626 298.1925 -989.9404 -846.5931 31469.8896 -59.0830 15.2591
ENERGY: 1500000 0.1880 2.0594 0.0000 0.0000 -10941.0329 1456.8888 0.0000 0.0000 1786.6875 -7695.2092 299.7007 -9481.8967 -7642.4373 298.4265 -311.5270 -273.9350 30745.8018 -65.3397 1.4086
TCL: Running FEP window   2: Lambda1 0.05   Lambda2 0.1    [dLambda 0.05  ]
TCL: Setting parameter firsttimestep to 0
TCL: Setting parameter alchLambda to 0.05
Info: NONBONDED TABLE R-SQUARED SPACING: 0.0625
Info: NONBONDED TABLE SIZE: 705 POINTS
TCL: Setting parameter alchLambda2 to 0.1
Info: NONBONDED TABLE R-SQUARED SPACING: 0.0625
Info: NONBONDED TABLE SIZE: 705 POINTS
TCL: Running for 1500000 steps
ETITLE: TS BOND ANGLE DIHED IMPRP ELECT VDW BOUNDARY MISC KINETIC TOTAL TEMP POTENTIAL TOTALAVG TEMPAVG PRESSURE GPRESSURE VOLUME PRESSAVG GPRESSAVG
ENERGY: 0 0.1880 2.0594 0.0000 0.0000 -10941.0325 1459.6227 0.0000 0.0000 1785.7903 -7693.3721 299.5502 -9479.1625 -7693.3721 299.5502 -362.3174 -273.7371 30745.8018 -362.3174 -273.7371
ENERGY: 300000 2.0245 1.5828 0.0000 0.0000 -10845.8160 1406.7284 0.0000 0.0000 1760.0118 -7675.4685 295.2261 -9435.4803 -7687.6118 295.4523 -422.3448 -304.3676 30518.3856 157.8986 256.3272
ENERGY: 600000 2.5064 3.1742 0.0000 0.0000 -10949.3242 1526.9241 0.0000 0.0000 1795.4437 -7621.2759 301.1695 -9416.7195 -7640.6559 298.6510 533.0725 570.7137 30661.0287 94.0498 174.4133
ENERGY: 900000 1.4279 2.7062 0.0000 0.0000 -10966.9106 1572.9778 0.0000 0.0000 1777.4557 -7612.3430 298.1521 -9389.7987 -7625.7899 298.4216 879.0787 946.7827 30624.1058 124.6717 197.9596
ENERGY: 1200000 0.5854 1.9415 0.0000 0.0000 -10798.6542 1464.1236 0.0000 0.0000 1857.7316 -7474.2720 311.6177 -9332.0037 -7617.3391 299.7611 -7.9303 30.8976 31416.6312 46.5213 120.0291
ENERGY: 1500000 0.6855 1.8284 0.0000 0.0000 -11011.3757 1497.3897 0.0000 0.0000 1818.2865 -7693.1856 305.0011 -9511.4721 -7625.2167 300.7038 403.3564 414.1263 30297.4837 141.2420 211.0503
TCL: Running FEP window   3: Lambda1 0.1    Lambda2 0.15000000000000002 [dLambda 0.05000000000000002]
TCL: Setting parameter firsttimestep to 0
TCL: Setting parameter alchLambda to 0.1
Info: NONBONDED TABLE R-SQUARED SPACING: 0.0625
Info: NONBONDED TABLE SIZE: 705 POINTS
TCL: Setting parameter alchLambda2 to 0.15000000000000002
Info: NONBONDED TABLE R-SQUARED SPACING: 0.0625
Info: NONBONDED TABLE SIZE: 705 POINTS
TCL: Running for 1500000 steps
ETITLE: TS BOND ANGLE DIHED IMPRP ELECT VDW BOUNDARY MISC KINETIC TOTAL TEMP POTENTIAL TOTALAVG TEMPAVG PRESSURE GPRESSURE VOLUME PRESSAVG GPRESSAVG
ENERGY: 0 0.6855 1.8284 0.0000 0.0000 -11011.3777 1498.2634 0.0000 0.0000 1817.4212 -7693.1792 304.8560 -9510.6004 -7693.1792 304.8560 335.1488 416.1565 30297.4837 335.1488 416.1565
ENERGY: 300000 1.4014 2.7158 0.0000 0.0000 -11040.6976 1520.0497 0.0000 0.0000 1805.7989 -7710.7317 302.9065 -9516.5307 -7641.5643 305.1153 280.0535 355.6987 30528.5565 221.0465 269.4873
ENERGY: 600000 1.5799 2.4418 0.0000 0.0000 -10881.7390 1387.9375 0.0000 0.0000 1828.6670 -7661.1128 306.7424 -9489.7799 -7642.1040 302.9536 -959.5080 -936.5690 31370.9467 -231.4555 -186.8975
ENERGY: 900000 0.5455 1.8868 0.0000 0.0000 -10947.5920 1527.5095 0.0000 0.0000 1763.3280 -7654.3222 295.7823 -9417.6502 -7638.9257 302.6340 513.3195 624.2522 30446.1413 0.3104 50.8653
ENERGY: 1200000 0.2322 2.1059 0.0000 0.0000 -10897.5695 1435.3220 0.0000 0.0000 1799.8878 -7660.0215 301.9149 -9459.9094 -7642.9024 302.4391 -558.8760 -480.5554 31349.7381 -63.3426 -3.9718
ENERGY: 1500000 2.2849 1.7904 0.0000 0.0000 -10742.8334 1391.4204 0.0000 0.0000 1796.9155 -7550.4222 301.4163 -9347.3377 -7633.6787 301.7059 -487.5344 -307.6425 31014.5278 -146.1764 -75.8023
TCL: Running FEP window   4: Lambda1 0.15000000000000002 Lambda2 0.2    [dLambda 0.04999999999999999]
TCL: Setting parameter firsttimestep to 0
TCL: Setting parameter alchLambda to 0.15000000000000002
Info: NONBONDED TABLE R-SQUARED SPACING: 0.0625
Info: NONBONDED TABLE SIZE: 705 POINTS
TCL: Setting parameter alchLambda2 to 0.2
Info: NONBONDED TABLE R-SQUARED SPACING: 0.0625
Info: NONBONDED TABLE SIZE: 705 POINTS
TCL: Running for 1500000 steps
ETITLE: TS BOND ANGLE DIHED IMPRP ELECT VDW BOUNDARY MISC KINETIC TOTAL TEMP POTENTIAL TOTALAVG TEMPAVG PRESSURE GPRESSURE VOLUME PRESSAVG GPRESSAVG
ENERGY: 0 2.2849 1.7904 0.0000 0.0000 -10742.8345 1392.4432 0.0000 0.0000 1796.0084 -7550.3075 301.2642 -9346.3159 -7550.3075 301.2642 -396.2968 -303.5186 31014.5278 -396.2968 -303.5186
ENERGY: 300000 0.0550 6.1664 0.0000 0.0000 -10868.0959 1440.9634 0.0000 0.0000 1823.3297 -7597.5813 305.8471 -9420.9110 -7609.3804 302.8305 -53.5666 -62.8272 30641.5086 -158.6042 -96.0896
ENERGY: 600000 0.4226 2.8226 0.0000 0.0000 -11000.6379 1536.6273 0.0000 0.0000 1813.5757 -7647.1896 304.2109 -9460.7653 -7642.0288 302.2684 462.1002 520.5977 30665.4855 -54.3702 6.0667
ENERGY: 900000 0.3864 2.8479 0.0000 0.0000 -10949.5433 1473.4273 0.0000 0.0000 1723.8100 -7749.0717 289.1536 -9472.8817 -7642.7461 301.1499 -408.6805 -347.7193 31357.0361 -79.9610 -11.8480
ENERGY: 1200000 1.8655 3.5327 0.0000 0.0000 -10969.5668 1505.3006 0.0000 0.0000 1748.2502 -7710.6178 293.2532 -9458.8680 -7653.2604 300.0913 56.0878 145.2737 30738.5946 -97.4982 -34.5064
ENERGY: 1500000 1.5134 2.7798 0.0000 0.0000 -11028.0648 1576.3826 0.0000 0.0000 1782.3397 -7665.0494 298.9714 -9447.3891 -7657.7144 299.8451 618.5501 653.5361 30922.6693 -81.9800 -20.5106
TCL: Running FEP window   5: Lambda1 0.2    Lambda2 0.25   [dLambda 0.04999999999999999]
TCL: Setting parameter firsttimestep to 0
TCL: Setting parameter alchLambda to 0.2
Info: NONBONDED TABLE R-SQUARED SPACING: 0.0625
Info: NONBONDED TABLE SIZE: 705 POINTS
TCL: Setting parameter alchLambda2 to 0.25
Info: NONBONDED TABLE R-SQUARED SPACING: 0.0625
Info: NONBONDED TABLE SIZE: 705 POINTS
TCL: Running for 1500000 steps
ETITLE: TS BOND ANGLE DIHED IMPRP ELECT VDW BOUNDARY MISC KINETIC TOTAL TEMP POTENTIAL TOTALAVG TEMPAVG PRESSURE GPRESSURE VOLUME PRESSAVG GPRESSAVG
ENERGY: 0 1.5134 2.7798 0.0000 0.0000 -11028.0646 1576.7144 0.0000 0.0000 1781.4195 -7665.6376 298.8170 -9447.0570 -7665.6376 298.8170 573.9816 656.4827 30922.6693 573.9816 656.4827
ENERGY: 300000 0.8903 4.4804 0.0000 0.0000 -10996.6837 1546.4006 0.0000 0.0000 1776.4612 -7668.4512 297.9853 -9444.9124 -7630.4658 298.5755 557.6939 607.5454 30830.4084 337.4500 400.4215
ENERGY: 600000 1.5099 3.2010 0.0000 0.0000 -10915.1803 1543.1386 0.0000 0.0000 1809.8763 -7557.4545 303.5904 -9367.3308 -7624.9276 298.1031 574.9584 628.4474 31146.5978 400.5933 450.0651
ENERGY: 900000 1.9812 4.2549 0.0000 0.0000 -10802.6225 1408.8815 0.0000 0.0000 1828.9201 -7558.5848 306.7848 -9387.5049 -7619.2443 300.6421 -553.6783 -523.4950 31223.4786 210.3570 263.8609
ENERGY: 1200000 0.1114 3.3724 0.0000 0.0000 -10840.0729 1393.4865 0.0000 0.0000 1792.2040 -7650.8987 300.6260 -9443.1027 -7622.3615 300.7264 -604.7562 -520.1076 30758.0757 89.1864 149.3215
ENERGY: 1500000 0.1679 3.3147 0.0000 0.0000 -10794.1507 1419.8611 0.0000 0.0000 1791.5276 -7579.2794 300.5126 -9370.8070 -7633.1418 300.0444 -426.4217 -360.0441 31254.8147 -7.7868 52.4443
TCL: Running FEP window   6: Lambda1 0.25   Lambda2 0.3    [dLambda 0.04999999999999999]
TCL: Setting parameter firsttimestep to 0
TCL: Setting parameter alchLambda to 0.25
Info: NONBONDED TABLE R-SQUARED SPACING: 0.0625
Info: NONBONDED TABLE SIZE: 705 POINTS
TCL: Setting parameter alchLambda2 to 0.3
Info: NONBONDED TABLE R-SQUARED SPACING: 0.0625
Info: NONBONDED TABLE SIZE: 705 POINTS
TCL: Running for 1500000 steps
ETITLE: TS BOND ANGLE DIHED IMPRP ELECT VDW BOUNDARY MISC KINETIC TOTAL TEMP POTENTIAL TOTALAVG TEMPAVG PRESSURE GPRESSURE VOLUME PRESSAVG GPRESSAVG
ENERGY: 0 0.1679 3.3147 0.0000 0.0000 -10794.1512 1420.3082 0.0000 0.0000 1790.6327 -7579.7277 300.3624 -9370.3604 -7579.7277 300.3624 -428.0553 -355.1980 31254.8147 -428.0553 -355.1980
ENERGY: 300000 0.2310 2.1812 0.0000 0.0000 -10998.7413 1547.1727 0.0000 0.0000 1764.1753 -7684.9810 295.9245 -9449.1563 -7636.4055 297.0461 740.1971 827.5642 30463.4380 -164.2104 -94.6818
ENERGY: 600000 0.6742 3.2226 0.0000 0.0000 -10976.2289 1453.2867 0.0000 0.0000 1824.5998 -7694.4455 306.0601 -9519.0453 -7650.2838 297.3166 -258.0583 -226.7968 30795.3658 -44.4211 18.2228
ENERGY: 900000 1.5087 1.7252 0.0000 0.0000 -10962.3259 1470.3192 0.0000 0.0000 1769.0341 -7719.7387 296.7395 -9488.7728 -7642.8605 297.8834 -163.4679 -144.6504 30905.9779 57.1546 123.7955
ENERGY: 1200000 0.9259 1.3871 0.0000 0.0000 -10985.6394 1493.0225 0.0000 0.0000 1808.2164 -7682.0875 303.3120 -9490.3039 -7638.9629 298.9838 158.3756 200.5396 30657.1104 83.7329 145.4286
ENERGY: 1500000 0.4079 1.6744 0.0000 0.0000 -10999.5120 1488.2874 0.0000 0.0000 1835.8158 -7673.3263 307.9415 -9509.1422 -7640.6884 299.7560 51.0090 101.6023 30735.3178 58.5410 125.4942
TCL: Running FEP window   7: Lambda1 0.3    Lambda2 0.35   [dLambda 0.04999999999999999]
TCL: Setting parameter firsttimestep to 0
TCL: Setting parameter alchLambda to 0.3
Info: NONBONDED TABLE R-SQUARED SPACING: 0.0625
Info: NONBONDED TABLE SIZE: 705 POINTS
TCL: Setting parameter alchLambda2 to 0.35
Info: NONBONDED TABLE R-SQUARED SPACING: 0.0625
Info: NONBONDED TABLE SIZE: 705 POINTS
TCL: Running for 1500000 steps
ETITLE: TS BOND ANGLE DIHED IMPRP ELECT VDW BOUNDARY MISC KINETIC TOTAL TEMP POTENTIAL TOTALAVG TEMPAVG PRESSURE GPRESSURE VOLUME PRESSAVG GPRESSAVG
ENERGY: 0 0.4079 1.6745 0.0000 0.0000 -10999.5140 1488.4553 0.0000 0.0000 1834.9028 -7674.0736 307.7884 -9508.9764 -7674.0736 307.7884 12.2961 104.4718 30735.3178 12.2961 104.4718
ENERGY: 300000 0.4233 2.8382 0.0000 0.0000 -10849.3735 1432.1517 0.0000 0.0000 1772.8589 -7641.1014 297.3811 -9413.9603 -7640.6163 304.1191 -223.0087 -154.3950 31066.2614 160.3267 220.7212
ENERGY: 600000 0.9927 2.8198 0.0000 0.0000 -10910.5259 1442.6255 0.0000 0.0000 1848.0626 -7616.0253 309.9958 -9464.0880 -7622.1728 305.8024 -232.7755 -198.7450 30728.5618 104.8346 157.2973
ENERGY: 900000 1.0505 1.8983 0.0000 0.0000 -10752.4172 1403.8508 0.0000 0.0000 1757.4730 -7588.1445 294.8002 -9345.6175 -7624.5025 304.4833 -248.2201 -144.0051 30807.9736 55.7647 110.6550
ENERGY: 1200000 0.3289 2.9567 0.0000 0.0000 -10917.3889 1464.3112 0.0000 0.0000 1819.3581 -7630.4339 305.1809 -9449.7921 -7640.9490 303.0382 -133.9929 -20.9387 30659.6921 -5.5855 54.0348
ENERGY: 1500000 1.1300 3.4646 0.0000 0.0000 -10858.7515 1458.8675 0.0000 0.0000 1769.8171 -7625.4724 296.8708 -9395.2894 -7640.7988 302.2831 5.4941 6.1612 31034.8929 -12.6355 41.6871
TCL: Running FEP window   8: Lambda1 0.35   Lambda2 0.39999999999999997 [dLambda 0.04999999999999999]
TCL: Setting parameter firsttimestep to 0
TCL: Setting parameter alchLambda to 0.35
Info: NONBONDED TABLE R-SQUARED SPACING: 0.0625
Info: NONBONDED TABLE SIZE: 705 POINTS
TCL: Setting parameter alchLambda2 to 0.39999999999999997
Info: NONBONDED TABLE R-SQUARED SPACING: 0.0625
Info: NONBONDED TABLE SIZE: 705 POINTS
TCL: Running for 1500000 steps
ETITLE: TS BOND ANGLE DIHED IMPRP ELECT VDW BOUNDARY MISC KINETIC TOTAL TEMP POTENTIAL TOTALAVG TEMPAVG PRESSURE GPRESSURE VOLUME PRESSAVG GPRESSAVG
ENERGY: 0 1.1300 3.4646 0.0000 0.0000 -10858.7514 1458.8082 0.0000 0.0000 1768.9289 -7626.4197 296.7218 -9395.3486 -7626.4197 296.7218 -56.6851 8.1991 31034.8929 -56.6851 8.1991
ENERGY: 300000 0.2101 2.3442 0.0000 0.0000 -10979.8168 1487.2078 0.0000 0.0000 1809.3237 -7680.7309 303.4977 -9490.0546 -7641.5359 301.5717 219.9050 295.9248 30333.3682 -207.7082 -137.3341
ENERGY: 600000 1.0433 2.7520 0.0000 0.0000 -10802.7260 1407.3799 0.0000 0.0000 1700.1683 -7691.3826 285.1879 -9391.5509 -7648.4969 297.3169 -622.9074 -534.6010 31325.3370 -187.8311 -130.0066
ENERGY: 900000 1.2246 1.2271 0.0000 0.0000 -10879.8564 1460.4753 0.0000 0.0000 1806.6514 -7610.2781 303.0494 -9416.9294 -7649.7248 297.9500 -237.2563 -164.9833 31279.5579 -235.5793 -178.1490
ENERGY: 1200000 1.0438 4.0714 0.0000 0.0000 -11044.1767 1618.9265 0.0000 0.0000 1780.5969 -7639.5381 298.6790 -9420.1350 -7645.9930 298.4332 1365.4644 1429.0041 30419.2584 -131.3647 -68.4542
ENERGY: 1500000 0.5385 4.0603 0.0000 0.0000 -10909.7695 1501.7224 0.0000 0.0000 1777.2503 -7626.1980 298.1177 -9403.4483 -7643.6078 298.4069 167.9245 273.3630 30822.0144 -93.1245 -22.6787
TCL: Running FEP window   9: Lambda1 0.39999999999999997 Lambda2 0.44999999999999996 [dLambda 0.04999999999999999]
TCL: Setting parameter firsttimestep to 0
TCL: Setting parameter alchLambda to 0.39999999999999997
Info: NONBONDED TABLE R-SQUARED SPACING: 0.0625
Info: NONBONDED TABLE SIZE: 705 POINTS
TCL: Setting parameter alchLambda2 to 0.44999999999999996
Info: NONBONDED TABLE R-SQUARED SPACING: 0.0625
Info: NONBONDED TABLE SIZE: 705 POINTS
TCL: Running for 1500000 steps
ETITLE: TS BOND ANGLE DIHED IMPRP ELECT VDW BOUNDARY MISC KINETIC TOTAL TEMP POTENTIAL TOTALAVG TEMPAVG PRESSURE GPRESSURE VOLUME PRESSAVG GPRESSAVG
ENERGY: 0 0.5385 4.0603 0.0000 0.0000 -10909.7698 1501.3646 0.0000 0.0000 1776.3305 -7627.4758 297.9634 -9403.8064 -7627.4758 297.9634 189.8352 271.6279 30822.0144 189.8352 271.6279
ENERGY: 300000 1.3860 2.8253 0.0000 0.0000 -10843.0540 1420.8949 0.0000 0.0000 1761.3805 -7656.5674 295.4557 -9417.9478 -7625.6634 299.6937 -64.7868 -50.4568 30247.8763 -125.3993 -59.0301
ENERGY: 600000 0.6192 2.1694 0.0000 0.0000 -10838.7511 1417.3297 0.0000 0.0000 1770.5639 -7648.0689 296.9961 -9418.6328 -7652.4636 298.8350 -377.5933 -314.8277 31142.1698 -162.2727 -109.8553
ENERGY: 900000 0.7033 4.6124 0.0000 0.0000 -10790.9430 1355.9390 0.0000 0.0000 1836.9757 -7592.7126 308.1361 -9429.6883 -7645.4353 299.8231 -872.6681 -803.8775 31195.0478 -173.8942 -120.6239
ENERGY: 1200000 1.5022 5.2467 0.0000 0.0000 -11050.1932 1501.5712 0.0000 0.0000 1756.6209 -7785.2522 294.6573 -9541.8731 -7665.9257 299.3415 353.8630 412.3162 30182.1531 -135.1975 -81.1083
ENERGY: 1500000 0.5796 2.7489 0.0000 0.0000 -10924.0742 1499.6591 0.0000 0.0000 1773.3143 -7647.7722 297.4575 -9421.0865 -7658.0905 299.3276 354.8874 401.0676 30667.4390 -101.5791 -45.5135
TCL: Running FEP window  10: Lambda1 0.44999999999999996 Lambda2 0.49999999999999994 [dLambda 0.04999999999999999]
TCL: Setting parameter firsttimestep to 0
TCL: Setting parameter alchLambda to 0.44999999999999996
Info: NONBONDED TABLE R-SQUARED SPACING: 0.0625
Info: NONBONDED TABLE SIZE: 705 POINTS
TCL: Setting parameter alchLambda2 to 0.49999999999999994
Info: NONBONDED TABLE R-SQUARED SPACING: 0.0625
Info: NONBONDED TABLE SIZE: 705 POINTS
TCL: Running for 1500000 steps
ETITLE: TS BOND ANGLE DIHED IMPRP ELECT VDW BOUNDARY MISC KINETIC TOTAL TEMP POTENTIAL TOTALAVG TEMPAVG PRESSURE GPRESSURE VOLUME PRESSAVG GPRESSAVG
ENERGY: 0 0.5796 2.7489 0.0000 0.0000 -10924.0736 1500.3406 0.0000 0.0000 1772.4413 -7647.9632 297.3110 -9420.4045 -7647.9632 297.3110 323.6605 410.2864 30667.4390 323.6605 410.2864
ENERGY: 300000 0.4353 2.3888 0.0000 0.0000 -10830.9804 1452.2535 0.0000 0.0000 1765.7486 -7610.1542 296.1884 -9375.9028 -7635.2125 298.9485 -23.6445 58.4213 30836.7434 95.2290 165.2573
ENERGY: 600000 0.7264 3.8120 0.0000 0.0000 -10761.1234 1374.7606 0.0000 0.0000 1718.8366 -7662.9878 288.3193 -9381.8244 -7614.9709 298.6012 -667.6362 -618.0188 30914.3731 -126.6109 -65.0238
ENERGY: 900000 0.2686 4.6662 0.0000 0.0000 -10889.7627 1495.3238 0.0000 0.0000 1831.0843 -7558.4197 307.1479 -9389.5041 -7605.0381 301.4560 323.5263 360.9791 30813.9160 -62.8337 4.4299
ENERGY: 1200000 0.1734 1.5903 0.0000 0.0000 -10810.1583 1451.4270 0.0000 0.0000 1814.5807 -7542.3868 304.3795 -9356.9676 -7606.7582 301.2252 9.4920 65.8015 31217.1255 -75.2325 -4.4632
ENERGY: 1500000 0.1607 3.7565 0.0000 0.0000 -10751.2250 1392.8229 0.0000 0.0000 1779.6582 -7574.8267 298.5216 -9354.4849 -7612.3232 301.1938 -290.2518 -219.4021 30805.2315 -127.2086 -58.7542
TCL: Running FEP window  11: Lambda1 0.49999999999999994 Lambda2 0.5499999999999999 [dLambda 0.04999999999999999]
TCL: Setting parameter firsttimestep to 0
TCL: Setting parameter alchLambda to 0.49999999999999994
Info: NONBONDED TABLE R-SQUARED SPACING: 0.0625
Info: NONBONDED TABLE SIZE: 705 POINTS
TCL: Setting parameter alchLambda2 to 0.5499999999999999
Info: NONBONDED TABLE R-SQUARED SPACING: 0.0625
Info: NONBONDED TABLE SIZE: 705 POINTS
TCL: Running for 1500000 steps
ETITLE: TS BOND ANGLE DIHED IMPRP ELECT VDW BOUNDARY MISC KINETIC TOTAL TEMP POTENTIAL TOTALAVG TEMPAVG PRESSURE GPRESSURE VOLUME PRESSAVG GPRESSAVG
ENERGY: 0 0.1607 3.7565 0.0000 0.0000 -10751.2249 1393.0470 0.0000 0.0000 1778.7830 -7575.4777 298.3748 -9354.2607 -7575.4777 298.3748 -297.2436 -215.6041 30805.2315 -297.2436 -215.6041
ENERGY: 300000 0.7532 4.0931 0.0000 0.0000 -10878.4042 1460.9696 0.0000 0.0000 1759.6811 -7652.9073 295.1706 -9412.5884 -7628.4342 299.8175 -189.7637 -55.3620 31007.3385 -93.1841 -5.0565
ENERGY: 600000 2.3443 5.5965 0.0000 0.0000 -10950.0725 1520.5905 0.0000 0.0000 1786.4109 -7635.1301 299.6543 -9421.5411 -7611.2376 300.4319 489.4136 528.0324 30742.5540 -42.6803 32.0006
ENERGY: 900000 0.1192 2.7232 0.0000 0.0000 -10813.1011 1378.5084 0.0000 0.0000 1777.3266 -7654.4238 298.1305 -9431.7504 -7617.3856 299.8354 -486.4944 -423.2791 30426.6598 -33.7186 28.6390
ENERGY: 1200000 0.6958 3.6354 0.0000 0.0000 -10918.4418 1492.7952 0.0000 0.0000 1752.9854 -7668.3300 294.0475 -9421.3155 -7642.6341 298.8484 309.4284 354.3317 30612.9569 65.2798 124.2156
ENERGY: 1500000 2.2399 1.4575 0.0000 0.0000 -10947.3007 1482.7548 0.0000 0.0000 1808.0087 -7652.8398 303.2771 -9460.8485 -7646.2151 299.1646 119.5451 151.5773 30792.2265 23.6627 81.4612
TCL: Running FEP window  12: Lambda1 0.5499999999999999 Lambda2 0.6    [dLambda 0.050000000000000044]
TCL: Setting parameter firsttimestep to 0
TCL: Setting parameter alchLambda to 0.5499999999999999
Info: NONBONDED TABLE R-SQUARED SPACING: 0.0625
Info: NONBONDED TABLE SIZE: 705 POINTS
TCL: Setting parameter alchLambda2 to 0.6
Info: NONBONDED TABLE R-SQUARED SPACING: 0.0625
Info: NONBONDED TABLE SIZE: 705 POINTS
TCL: Running for 1500000 steps
ETITLE: TS BOND ANGLE DIHED IMPRP ELECT VDW BOUNDARY MISC KINETIC TOTAL TEMP POTENTIAL TOTALAVG TEMPAVG PRESSURE GPRESSURE VOLUME PRESSAVG GPRESSAVG
ENERGY: 0 2.2399 1.4575 0.0000 0.0000 -10946.8382 1483.1714 0.0000 0.0000 1807.1546 -7652.8148 303.1338 -9459.9694 -7652.8148 303.1338 71.6071 159.4125 30792.2265 71.6071 159.4125
ENERGY: 300000 0.1279 2.7639 0.0000 0.0000 -10922.2608 1417.5089 0.0000 0.0000 1815.8562 -7686.0040 304.5935 -9501.8602 -7666.0062 303.1431 -499.7836 -452.8114 30848.8466 -116.5538 -64.2057
ENERGY: 600000 1.1881 3.2158 0.0000 0.0000 -10940.0233 1496.7084 0.0000 0.0000 1803.3159 -7635.5951 302.4899 -9438.9110 -7654.9104 300.4226 266.0507 398.8750 30792.7716 -81.3464 -4.8148
ENERGY: 900000 1.8269 1.8613 0.0000 0.0000 -11079.1727 1652.2291 0.0000 0.0000 1822.6200 -7600.6354 305.7280 -9423.2554 -7636.5323 301.5653 1280.5952 1354.5050 30920.4638 -23.1752 48.2972
ENERGY: 1200000 0.1147 2.3175 0.0000 0.0000 -10872.2672 1434.3998 0.0000 0.0000 1841.4570 -7593.9781 308.8878 -9435.4351 -7648.3412 300.5207 -469.2318 -406.4783 31283.5010 13.0303 82.6295
ENERGY: 1500000 2.9363 0.9896 0.0000 0.0000 -10761.2696 1401.5926 0.0000 0.0000 1802.1931 -7553.5580 302.3016 -9355.7510 -7634.4551 300.9845 -382.6453 -309.3084 31118.8972 -54.2828 10.1993
TCL: Running FEP window  13: Lambda1 0.6    Lambda2 0.65   [dLambda 0.050000000000000044]
TCL: Setting parameter firsttimestep to 0
TCL: Setting parameter alchLambda to 0.6
Info: NONBONDED TABLE R-SQUARED SPACING: 0.0625
Info: NONBONDED TABLE SIZE: 705 POINTS
TCL: Setting parameter alchLambda2 to 0.65
Info: NONBONDED TABLE R-SQUARED SPACING: 0.0625
Info: NONBONDED TABLE SIZE: 705 POINTS
TCL: Running for 1500000 steps
ETITLE: TS BOND ANGLE DIHED IMPRP ELECT VDW BOUNDARY MISC KINETIC TOTAL TEMP POTENTIAL TOTALAVG TEMPAVG PRESSURE GPRESSURE VOLUME PRESSAVG GPRESSAVG
ENERGY: 0 2.9363 0.9896 0.0000 0.0000 -10761.1323 1401.9618 0.0000 0.0000 1801.2656 -7553.9788 302.1460 -9355.2445 -7553.9788 302.1460 -390.5413 -305.4286 31118.8972 -390.5413 -305.4286
ENERGY: 300000 0.2460 1.8550 0.0000 0.0000 -10846.2091 1451.0148 0.0000 0.0000 1700.4357 -7692.6576 285.2327 -9393.0933 -7645.5934 296.4818 -119.5975 -63.4243 30918.9413 53.7073 118.7373
ENERGY: 600000 1.0619 5.9629 0.0000 0.0000 -11140.9806 1632.2294 0.0000 0.0000 1760.4837 -7741.2428 295.3052 -9501.7265 -7661.6606 297.1042 1360.4560 1400.2563 30233.4028 245.7045 297.9504
ENERGY: 900000 0.2722 2.1161 0.0000 0.0000 -10921.0051 1544.9823 0.0000 0.0000 1791.1241 -7582.5104 300.4449 -9373.6345 -7653.5651 298.4674 810.3570 908.8828 30516.3621 228.5077 289.8877
ENERGY: 1200000 0.2720 1.7662 0.0000 0.0000 -10888.5377 1501.8599 0.0000 0.0000 1846.2452 -7538.3944 309.6909 -9384.6396 -7652.4519 298.4770 254.6175 354.3082 30878.7973 180.9704 244.3727
ENERGY: 1500000 0.0842 2.1925 0.0000 0.0000 -10786.4647 1411.3812 0.0000 0.0000 1800.7418 -7572.0650 302.0582 -9372.8068 -7642.6660 299.1087 -512.0898 -414.9286 31448.9150 93.2537 162.0208
TCL: Running FEP window  14: Lambda1 0.65   Lambda2 0.7000000000000001 [dLambda 0.050000000000000044]
TCL: Setting parameter firsttimestep to 0
TCL: Setting parameter alchLambda to 0.65
Info: NONBONDED TABLE R-SQUARED SPACING: 0.0625
Info: NONBONDED TABLE SIZE: 705 POINTS
TCL: Setting parameter alchLambda2 to 0.7000000000000001
Info: NONBONDED TABLE R-SQUARED SPACING: 0.0625
Info: NONBONDED TABLE SIZE: 705 POINTS
TCL: Running for 1500000 steps
ETITLE: TS BOND ANGLE DIHED IMPRP ELECT VDW BOUNDARY MISC KINETIC TOTAL TEMP POTENTIAL TOTALAVG TEMPAVG PRESSURE GPRESSURE VOLUME PRESSAVG GPRESSAVG
ENERGY: 0 0.0842 2.1925 0.0000 0.0000 -10786.1856 1411.2932 0.0000 0.0000 1799.8400 -7572.7757 301.9069 -9372.6157 -7572.7757 301.9069 -485.6700 -413.6217 31448.9150 -485.6700 -413.6217
ENERGY: 300000 0.6874 5.4617 0.0000 0.0000 -10848.6989 1348.7276 0.0000 0.0000 1828.2148 -7665.6073 306.6665 -9493.8221 -7624.9539 303.1655 -1114.8938 -1051.8241 31069.4313 -553.6105 -475.6748
ENERGY: 600000 0.6183 3.3455 0.0000 0.0000 -11064.8254 1563.7493 0.0000 0.0000 1816.2652 -7680.8471 304.6621 -9497.1123 -7631.2217 302.0035 596.8313 648.0713 30523.7955 -181.2936 -116.6362
ENERGY: 900000 1.7635 1.7838 0.0000 0.0000 -10711.1927 1324.6886 0.0000 0.0000 1812.1676 -7570.7893 303.9747 -9382.9569 -7620.2291 301.4925 -934.1920 -843.2447 31092.6160 -210.2026 -145.2925
ENERGY: 1200000 0.1712 3.6280 0.0000 0.0000 -11170.4838 1625.1346 0.0000 0.0000 1809.7957 -7731.7543 303.5769 -9541.5500 -7623.7523 301.7497 963.7376 1003.3215 30519.1941 -27.7635 38.3223
ENERGY: 1500000 1.0930 2.6472 0.0000 0.0000 -11078.4669 1559.6107 0.0000 0.0000 1786.6588 -7728.4572 299.6959 -9515.1160 -7628.7270 301.4384 556.1960 633.7020 30446.0349 -24.7834 39.1881
TCL: Running FEP window  15: Lambda1 0.7000000000000001 Lambda2 0.7500000000000001 [dLambda 0.050000000000000044]
TCL: Setting parameter firsttimestep to 0
TCL: Setting parameter alchLambda to 0.7000000000000001
Info: NONBONDED TABLE R-SQUARED SPACING: 0.0625
Info: NONBONDED TABLE SIZE: 705 POINTS
TCL: Setting parameter alchLambda2 to 0.7500000000000001
Info: NONBONDED TABLE R-SQUARED SPACING: 0.0625
Info: NONBONDED TABLE SIZE: 705 POINTS
TCL: Running for 1500000 steps
ETITLE: TS BOND ANGLE DIHED IMPRP ELECT VDW BOUNDARY MISC KINETIC TOTAL TEMP POTENTIAL TOTALAVG TEMPAVG PRESSURE GPRESSURE VOLUME PRESSAVG GPRESSAVG
ENERGY: 0 1.0930 2.6472 0.0000 0.0000 -11078.6018 1560.1974 0.0000 0.0000 1785.8074 -7728.8567 299.5531 -9514.6642 -7728.8567 299.5531 552.4522 646.0371 30446.0349 552.4522 646.0371
ENERGY: 300000 0.5278 4.2801 0.0000 0.0000 -10813.7532 1388.0731 0.0000 0.0000 1780.2437 -7640.6284 298.6198 -9420.8721 -7667.2286 302.5835 -389.6185 -420.1623 30829.4147 116.8090 181.3613
ENERGY: 600000 0.3036 2.6339 0.0000 0.0000 -10879.1370 1436.5283 0.0000 0.0000 1811.9894 -7627.6818 303.9448 -9439.6711 -7678.7125 300.8651 -154.0421 -88.2032 30638.1709 3.9306 59.0181
ENERGY: 900000 1.2429 3.2374 0.0000 0.0000 -10952.1626 1507.0561 0.0000 0.0000 1784.9780 -7655.6483 299.4139 -9440.6263 -7658.4782 301.3991 44.5772 87.1656 31199.1849 17.3002 71.4277
ENERGY: 1200000 2.1308 3.2316 0.0000 0.0000 -10909.9333 1466.6579 0.0000 0.0000 1819.0223 -7618.8905 305.1246 -9437.9129 -7657.2785 301.6389 -136.9026 -59.9529 30822.5995 -65.4303 -6.7524
ENERGY: 1500000 1.4795 2.9160 0.0000 0.0000 -11066.9052 1599.9398 0.0000 0.0000 1785.1776 -7677.3923 299.4474 -9462.5699 -7660.3144 301.3787 790.7199 818.9511 31265.2289 0.0405 56.8615
TCL: Running FEP window  16: Lambda1 0.7500000000000001 Lambda2 0.8000000000000002 [dLambda 0.050000000000000044]
TCL: Setting parameter firsttimestep to 0
TCL: Setting parameter alchLambda to 0.7500000000000001
Info: NONBONDED TABLE R-SQUARED SPACING: 0.0625
Info: NONBONDED TABLE SIZE: 705 POINTS
TCL: Setting parameter alchLambda2 to 0.8000000000000002
Info: NONBONDED TABLE R-SQUARED SPACING: 0.0625
Info: NONBONDED TABLE SIZE: 705 POINTS
TCL: Running for 1500000 steps
ETITLE: TS BOND ANGLE DIHED IMPRP ELECT VDW BOUNDARY MISC KINETIC TOTAL TEMP POTENTIAL TOTALAVG TEMPAVG PRESSURE GPRESSURE VOLUME PRESSAVG GPRESSAVG
ENERGY: 0 1.4795 2.9160 0.0000 0.0000 -11067.1121 1600.0432 0.0000 0.0000 1784.3369 -7678.3364 299.3064 -9462.6733 -7678.3364 299.3064 740.5258 822.1477 31265.2289 740.5258 822.1477
ENERGY: 300000 1.3880 2.5929 0.0000 0.0000 -11002.1309 1569.4711 0.0000 0.0000 1845.6934 -7582.9855 309.5984 -9428.6789 -7676.3085 299.1965 651.9148 681.8325 31118.1232 -20.9513 30.4317
ENERGY: 600000 3.8527 3.0168 0.0000 0.0000 -10791.4713 1398.0312 0.0000 0.0000 1813.6722 -7572.8983 304.2271 -9386.5706 -7649.8036 300.2593 -608.6948 -548.7879 31158.9863 -57.9424 -8.7214
ENERGY: 900000 0.5656 1.8384 0.0000 0.0000 -10852.9833 1410.5138 0.0000 0.0000 1791.5254 -7648.5402 300.5122 -9440.0656 -7653.7880 301.6135 -331.8391 -184.1589 30647.9759 -81.6197 -21.3253
ENERGY: 1200000 0.0370 1.9055 0.0000 0.0000 -10952.8166 1484.6428 0.0000 0.0000 1800.2525 -7665.9788 301.9761 -9466.2313 -7654.8053 301.1147 121.0106 232.3522 30620.3471 -40.5254 22.3153
ENERGY: 1500000 0.4599 2.0642 0.0000 0.0000 -10950.7920 1487.2394 0.0000 0.0000 1824.5667 -7636.4617 306.0546 -9461.0284 -7655.7312 301.0614 474.8861 544.1680 30293.2853 4.3045 68.5700
TCL: Running FEP window  17: Lambda1 0.8000000000000002 Lambda2 0.8500000000000002 [dLambda 0.050000000000000044]
TCL: Setting parameter firsttimestep to 0
TCL: Setting parameter alchLambda to 0.8000000000000002
Info: NONBONDED TABLE R-SQUARED SPACING: 0.0625
Info: NONBONDED TABLE SIZE: 705 POINTS
TCL: Setting parameter alchLambda2 to 0.8500000000000002
Info: NONBONDED TABLE R-SQUARED SPACING: 0.0625
Info: NONBONDED TABLE SIZE: 705 POINTS
TCL: Running for 1500000 steps
ETITLE: TS BOND ANGLE DIHED IMPRP ELECT VDW BOUNDARY MISC KINETIC TOTAL TEMP POTENTIAL TOTALAVG TEMPAVG PRESSURE GPRESSURE VOLUME PRESSAVG GPRESSAVG
ENERGY: 0 0.4599 2.0642 0.0000 0.0000 -10951.2876 1487.7244 0.0000 0.0000 1823.6914 -7637.3477 305.9078 -9461.0391 -7637.3477 305.9078 462.2148 556.3720 30293.2853 462.2148 556.3720
ENERGY: 300000 0.1830 4.7789 0.0000 0.0000 -10767.6754 1401.3548 0.0000 0.0000 1820.5350 -7540.8238 305.3783 -9361.3588 -7634.0955 300.9385 -200.6958 -137.6444 31022.8115 81.7469 157.3236
ENERGY: 600000 1.4620 4.5441 0.0000 0.0000 -10843.5121 1395.8704 0.0000 0.0000 1796.1578 -7645.4779 301.2892 -9441.6357 -7635.2439 302.9832 -449.3106 -465.3380 30606.2416 26.1437 80.7239
ENERGY: 900000 2.2916 2.4197 0.0000 0.0000 -10907.3782 1479.7424 0.0000 0.0000 1784.6418 -7638.2827 299.3575 -9422.9245 -7650.4395 300.9705 197.9253 238.2714 30621.9404 -3.7681 50.4622
ENERGY: 1200000 1.5128 2.8296 0.0000 0.0000 -10893.1876 1464.2465 0.0000 0.0000 1777.9507 -7646.6480 298.2352 -9424.5987 -7658.5449 299.3624 -25.3664 -55.1806 31129.1726 -23.2624 22.7230
ENERGY: 1500000 0.1376 3.6966 0.0000 0.0000 -10891.1738 1436.9594 0.0000 0.0000 1807.4708 -7642.9095 303.1869 -9450.3803 -7653.1725 300.1555 -227.7472 -199.5605 30790.1186 51.2260 96.1492
TCL: Running FEP window  18: Lambda1 0.8500000000000002 Lambda2 0.9000000000000002 [dLambda 0.050000000000000044]
TCL: Setting parameter firsttimestep to 0
TCL: Setting parameter alchLambda to 0.8500000000000002
Info: NONBONDED TABLE R-SQUARED SPACING: 0.0625
Info: NONBONDED TABLE SIZE: 705 POINTS
TCL: Setting parameter alchLambda2 to 0.9000000000000002
Info: NONBONDED TABLE R-SQUARED SPACING: 0.0625
Info: NONBONDED TABLE SIZE: 705 POINTS
TCL: Running for 1500000 steps
ETITLE: TS BOND ANGLE DIHED IMPRP ELECT VDW BOUNDARY MISC KINETIC TOTAL TEMP POTENTIAL TOTALAVG TEMPAVG PRESSURE GPRESSURE VOLUME PRESSAVG GPRESSAVG
ENERGY: 0 0.1376 3.6966 0.0000 0.0000 -10892.0196 1437.3970 0.0000 0.0000 1806.5605 -7644.2279 303.0342 -9450.7884 -7644.2279 303.0342 -272.8276 -190.4698 30790.1186 -272.8276 -190.4698
ENERGY: 300000 1.4690 1.5880 0.0000 0.0000 -11008.8974 1594.8985 0.0000 0.0000 1807.9808 -7602.9610 303.2724 -9410.9418 -7632.0717 301.8315 1003.6696 1068.7175 30616.5067 242.1041 313.3511
ENERGY: 600000 1.0772 4.7714 0.0000 0.0000 -10870.9805 1393.4273 0.0000 0.0000 1822.5595 -7649.1451 305.7179 -9471.7045 -7663.5629 301.2606 -831.1388 -706.7534 31127.2289 88.1087 182.6776
ENERGY: 900000 1.3238 3.5544 0.0000 0.0000 -10897.1208 1496.7202 0.0000 0.0000 1725.4896 -7670.0327 289.4353 -9395.5223 -7652.3515 299.9949 134.7330 170.8203 31313.0760 79.2151 159.2894
ENERGY: 1200000 0.2553 3.7188 0.0000 0.0000 -10849.2476 1488.4772 0.0000 0.0000 1764.4225 -7592.3738 295.9659 -9356.7963 -7645.7048 300.1181 128.0785 225.2769 31194.9890 21.3158 100.2992
ENERGY: 1500000 3.5806 2.0046 0.0000 0.0000 -10764.2844 1376.5495 0.0000 0.0000 1800.4072 -7581.7425 302.0020 -9382.1497 -7638.0521 300.5605 -809.1137 -770.5893 31740.9624 -57.4613 11.6172
TCL: Running FEP window  19: Lambda1 0.9000000000000002 Lambda2 0.9500000000000003 [dLambda 0.050000000000000044]
TCL: Setting parameter firsttimestep to 0
TCL: Setting parameter alchLambda to 0.9000000000000002
Info: NONBONDED TABLE R-SQUARED SPACING: 0.0625
Info: NONBONDED TABLE SIZE: 705 POINTS
TCL: Setting parameter alchLambda2 to 0.9500000000000003
Info: NONBONDED TABLE R-SQUARED SPACING: 0.0625
Info: NONBONDED TABLE SIZE: 705 POINTS
TCL: Running for 1500000 steps
ETITLE: TS BOND ANGLE DIHED IMPRP ELECT VDW BOUNDARY MISC KINETIC TOTAL TEMP POTENTIAL TOTALAVG TEMPAVG PRESSURE GPRESSURE VOLUME PRESSAVG GPRESSAVG
ENERGY: 0 3.5806 2.0046 0.0000 0.0000 -10764.5290 1376.2795 0.0000 0.0000 1799.5306 -7583.1337 301.8550 -9382.6643 -7583.1337 301.8550 -846.8762 -767.2009 31740.9624 -846.8762 -767.2009
ENERGY: 300000 0.0194 2.6329 0.0000 0.0000 -10861.2298 1431.1524 0.0000 0.0000 1769.2701 -7658.1550 296.7791 -9427.4251 -7632.9908 298.8195 -459.6731 -382.0947 30936.8205 -345.8898 -263.7387
ENERGY: 600000 0.4684 6.0025 0.0000 0.0000 -10908.0002 1480.2342 0.0000 0.0000 1742.5667 -7678.7284 292.2998 -9421.2951 -7646.0776 296.5898 31.7138 77.8611 31065.1847 -245.8586 -171.1297
ENERGY: 900000 0.9753 2.3996 0.0000 0.0000 -11040.8107 1488.7311 0.0000 0.0000 1745.1110 -7803.5936 292.7266 -9548.7046 -7665.2219 297.0503 238.2618 256.6253 30275.5230 -151.4861 -90.7195
ENERGY: 1200000 1.8883 4.8976 0.0000 0.0000 -10793.0887 1427.9717 0.0000 0.0000 1791.6639 -7566.6673 300.5354 -9358.3312 -7651.2529 297.8697 -75.6855 -37.6097 30876.9481 -247.3497 -187.5507
ENERGY: 1500000 0.2288 3.7301 0.0000 0.0000 -10966.0375 1470.7803 0.0000 0.0000 1781.1069 -7710.1914 298.7646 -9491.2982 -7656.4232 298.3190 -58.5103 97.4374 30448.3989 -254.1404 -186.8258
TCL: Running FEP window  20: Lambda1 0.9500000000000003 Lambda2 1.0    [dLambda 0.04999999999999971]
TCL: Setting parameter firsttimestep to 0
TCL: Setting parameter alchLambda to 0.9500000000000003
Info: NONBONDED TABLE R-SQUARED SPACING: 0.0625
Info: NONBONDED TABLE SIZE: 705 POINTS
TCL: Setting parameter alchLambda2 to 1.0
Info: NONBONDED TABLE R-SQUARED SPACING: 0.0625
Info: NONBONDED TABLE SIZE: 705 POINTS
TCL: Running for 1500000 steps
ETITLE: TS BOND ANGLE DIHED IMPRP ELECT VDW BOUNDARY MISC KINETIC TOTAL TEMP POTENTIAL TOTALAVG TEMPAVG PRESSURE GPRESSURE VOLUME PRESSAVG GPRESSAVG
ENERGY: 0 0.2288 3.7301 0.0000 0.0000 -10966.5862 1470.7488 0.0000 0.0000 1780.1750 -7711.7035 298.6083 -9491.8784 -7711.7035 298.6083 13.1880 104.0997 30448.3989 13.1880 104.0997
ENERGY: 300000 0.2731 3.5008 0.0000 0.0000 -10814.9087 1409.6403 0.0000 0.0000 1777.1129 -7624.3817 298.0946 -9401.4945 -7660.3921 300.7621 -263.0945 -191.2177 30753.3793 -130.7759 -62.8200
ENERGY: 600000 0.7474 1.8520 0.0000 0.0000 -10905.1819 1451.6885 0.0000 0.0000 1776.7243 -7674.1697 298.0295 -9450.8941 -7662.5472 301.4165 -27.0951 9.1908 30965.8978 -243.0040 -173.6152
ENERGY: 900000 1.5846 4.5327 0.0000 0.0000 -11015.5384 1569.0212 0.0000 0.0000 1798.7556 -7641.6443 301.7250 -9440.3999 -7656.3348 301.6312 899.3536 862.7675 30739.7273 -108.0108 -50.9089
ENERGY: 1200000 0.2949 2.0173 0.0000 0.0000 -10844.0758 1370.6284 0.0000 0.0000 1810.1424 -7660.9928 303.6350 -9471.1352 -7662.2075 301.5025 -912.0886 -873.8140 31053.9511 -149.1820 -101.5208
ENERGY: 1500000 1.2554 6.2496 0.0000 0.0000 -10892.8992 1398.0659 0.0000 0.0000 1786.8997 -7700.4286 299.7363 -9487.3283 -7660.4237 302.1228 -459.9789 -485.9403 30706.2118 -192.4133 -143.4472
TCL: Exiting due to exit command.
