Info: SIMULATION PARAMETERS:
Info: TIMESTEP               2
Info: NUMBER OF STEPS        0
Info: STEPS PER CYCLE        10
Info: PERIODIC CELL BASIS 1  34.207 0 0
Info: PERIODIC CELL BASIS 2  0 33.314 0
Info: PERIODIC CELL BASIS 3  0 0 38.379
Info: PERIODIC CELL CENTER   0 0 0
Info: WRAPPING WATERS AROUND PERIODIC BOUNDARIES ON OUTPUT.
Info: WRAPPING ALL CLUSTERS AROUND PERIODIC BOUNDARIES ON OUTPUT.
Info: FIRST LDB TIMESTEP     50
Info: LAST LDB TIMESTEP     -1
Info: HOM BACKGROUND SCALING 1
Info: PME BACKGROUND SCALING 1
Info: MIN ATOMS PER PATCH    40
Info: EMPTY PATCH LOAD       40 ATOMS
Info: INITIAL TEMPERATURE    300
Info: CENTER OF MASS MOVING INITIALLY? NO
Info: DIELECTRIC             1
Info: EXCLUDE                SCALED ONE-FOUR
Info: 1-4 ELECTROSTATICS SCALED BY 0.833333
Info: MODIFIED 1-4 VDW PARAMETERS WILL BE USED
Info: DCD FILENAME           mobley_9942801_equil.dcd
Info: DCD FREQUENCY          100000
Info: DCD FIRST STEP         100000
Info: DCD FILE WILL CONTAIN UNIT CELL DATA
Info: XST FILENAME           mobley_9942801_equil.xst
Info: XST FREQUENCY          100000
Info: NO VELOCITY DCD OUTPUT
Info: NO FORCE DCD OUTPUT
Info: OUTPUT FILENAME        mobley_9942801_equil
Info: BINARY OUTPUT FILES WILL BE USED
Info: RESTART FILENAME       mobley_9942801_equil.restart
Info: RESTART FREQUENCY      100000
Info: BINARY RESTART FILES WILL BE USED
Info: CUTOFF                 9
Info: PAIRLIST DISTANCE      11
Info: PAIRLIST SHRINK RATE   0.01
Info: PAIRLIST GROW RATE     0.01
Info: PAIRLIST TRIGGER       0.3
Info: PAIRLISTS PER CYCLE    2
Info: PAIRLISTS ENABLED
Info: MARGIN                 8
Info: HYDROGEN GROUP CUTOFF  2.5
Info: PATCH DIMENSION        21.5
Info: ENERGY OUTPUT STEPS    100000
Info: ENERGY EVALUATION STEPS    100000
Info: OUTPUT ENERGY PRECISION 4
Info: CROSSTERM ENERGY INCLUDED IN DIHEDRAL
Info: TIMING OUTPUT STEPS    1000000
Info: PRESSURE OUTPUT STEPS  100000
Info: LANGEVIN DYNAMICS ACTIVE
Info: LANGEVIN TEMPERATURE   30
Info: LANGEVIN USING BBK INTEGRATOR
Info: LANGEVIN DAMPING COEFFICIENT IS 1 INVERSE PS
Info: LANGEVIN DYNAMICS APPLIED TO HYDROGENS
Info: LANGEVIN PISTON PRESSURE CONTROL ACTIVE
Info:        TARGET PRESSURE IS 1.01325 BAR
Info:     OSCILLATION PERIOD IS 50 FS
Info:             DECAY TIME IS 25 FS
Info:     PISTON TEMPERATURE IS 300 K
Info:       PRESSURE CONTROL IS GROUP-BASED
Info:    INITIAL STRAIN RATE IS 0 0 0
Info:       CELL FLUCTUATION IS ISOTROPIC
Info: PARTICLE MESH EWALD (PME) ACTIVE
Info: PME TOLERANCE               1e-06
Info: PME EWALD COEFFICIENT       0.348832
Info: PME INTERPOLATION ORDER     4
Info: PME GRID DIMENSIONS         36 36 40
Info: PME MAXIMUM GRID SPACING    1
Info: FULL ELECTROSTATIC EVALUATION FREQUENCY      2
Info: USING VERLET I (r-RESPA) MTS SCHEME.
Info: C1 SPLITTING OF LONG RANGE ELECTROSTATICS
Info: PLACING ATOMS IN PATCHES BY HYDROGEN GROUPS
Info: RIGID BONDS TO HYDROGEN : ALL
Info:         ERROR TOLERANCE : 1e-08
Info:          MAX ITERATIONS : 100
Info: RIGID WATER USING SETTLE ALGORITHM
Info: RANDOM NUMBER SEED     1743234159
Info: USE HYDROGEN BONDS?    NO
Info: Using AMBER format force field!
Info: AMBER PARM FILE        mobley_9942801.prmtop
Info: COORDINATE PDB         mobley_9942801.pdb
Info: Exclusions will be read from PARM file!
Info: SCNB (VDW SCALING)     2
Info: USING ARITHMETIC MEAN TO COMBINE L-J SIGMA PARAMETERS
Info: BINARY COORDINATES     mobley_9942801_min.coor
Info: SUMMARY OF PARAMETERS:
Info: 7 BONDS
Info: 7 ANGLES
Info: 5 DIHEDRAL
Info: 0 IMPROPER
Info: 0 CROSSTERM
Info: 0 VDW
Info: 21 VDW_PAIRS
Info: 0 NBTHOLE_PAIRS
Info: STRUCTURE SUMMARY:
Info: 2916 ATOMS
Info: 2916 BONDS
Info: 36 ANGLES
Info: 51 DIHEDRALS
Info: 0 IMPROPERS
Info: 0 CROSSTERMS
Info: 2994 EXCLUSIONS
Info: 2907 RIGID BONDS
Info: 5841 DEGREES OF FREEDOM
Info: 974 HYDROGEN GROUPS
Info: 4 ATOMS IN LARGEST HYDROGEN GROUP
Info: 974 MIGRATION GROUPS
Info: 4 ATOMS IN LARGEST MIGRATION GROUP
Info: TOTAL MASS = 17505.6 amu
Info: TOTAL CHARGE = 0.000200041 e
Info: MASS DENSITY = 0.664663 g/cm^3
Info: ATOM DENSITY = 0.0666733 atoms/A^3
Info: ADDED 0 IMPLICIT EXCLUSIONS
Info: NONBONDED TABLE R-SQUARED SPACING: 0.0625
Info: NONBONDED TABLE SIZE: 705 POINTS
Info: REMOVING COM VELOCITY -0.0466503 0.00915709 0.117503
TCL: Running for 100000 steps
ETITLE: TS BOND ANGLE DIHED IMPRP ELECT VDW BOUNDARY MISC KINETIC TOTAL TEMP POTENTIAL TOTAL3 TEMPAVG PRESSURE GPRESSURE VOLUME PRESSAVG GPRESSAVG
ENERGY: 0 0.1805 0.2043 0.0447 0.0000 -13458.4807 2397.2073 0.0000 0.0000 1790.5897 -9270.2543 308.5313 -11060.8440 -9269.8586 308.5313 628.3037 662.9091 43735.6337 628.3037 662.9091
ENERGY: 100000 0.6137 0.7899 0.3044 0.0000 -13934.5004 2323.9355 0.0000 0.0000 175.1613 -11433.6956 30.1815 -11608.8569 -11433.2776 30.9860 -1107.6768 -1056.5029 28416.7270 3.3347 3.3737
TCL: Running 100000 steps at 60 kelvin.
TCL: Setting parameter langevinTemp to 60
TCL: Running for 100000 steps
ETITLE: TS BOND ANGLE DIHED IMPRP ELECT VDW BOUNDARY MISC KINETIC TOTAL TEMP POTENTIAL TOTAL3 TEMPAVG PRESSURE GPRESSURE VOLUME PRESSAVG GPRESSAVG
ENERGY: 100000 0.6137 0.7899 0.3044 0.0000 -13934.5004 2323.9355 0.0000 0.0000 175.0737 -11433.7831 30.1665 -11608.8569 -11433.3000 30.1665 -1116.7251 -1056.5998 28416.7270 -1116.7251 -1056.5998
ENERGY: 200000 0.6473 2.0001 1.2702 0.0000 -13943.8854 2409.5996 0.0000 0.0000 340.8991 -11189.4692 58.7393 -11530.3683 -11188.6212 60.0699 -1.7858 50.5093 28394.5794 2.9601 2.9202
TCL: Running 100000 steps at 90 kelvin.
TCL: Setting parameter langevinTemp to 90
TCL: Running for 100000 steps
ETITLE: TS BOND ANGLE DIHED IMPRP ELECT VDW BOUNDARY MISC KINETIC TOTAL TEMP POTENTIAL TOTAL3 TEMPAVG PRESSURE GPRESSURE VOLUME PRESSAVG GPRESSAVG
ENERGY: 200000 0.6473 2.0001 1.2702 0.0000 -13943.8854 2409.5996 0.0000 0.0000 340.7263 -11189.6419 58.7096 -11530.3683 -11188.9402 58.7096 -3.9895 50.4726 28394.5794 -3.9895 50.4726
ENERGY: 300000 0.6069 1.8465 0.6129 0.0000 -13785.8319 2383.8609 0.0000 0.0000 528.5406 -10870.3642 91.0713 -11398.9047 -10869.3561 89.9173 486.8310 543.3553 28189.2699 4.3520 4.2568
TCL: Running 100000 steps at 120 kelvin.
TCL: Setting parameter langevinTemp to 120
TCL: Running for 100000 steps
ETITLE: TS BOND ANGLE DIHED IMPRP ELECT VDW BOUNDARY MISC KINETIC TOTAL TEMP POTENTIAL TOTAL3 TEMPAVG PRESSURE GPRESSURE VOLUME PRESSAVG GPRESSAVG
ENERGY: 300000 0.6069 1.8465 0.6129 0.0000 -13785.8319 2383.8609 0.0000 0.0000 528.2779 -10870.6269 91.0260 -11398.9047 -10869.4076 91.0260 489.4867 542.5932 28189.2699 489.4867 542.5932
ENERGY: 400000 1.6103 1.9692 0.9850 0.0000 -13561.8646 2278.7463 0.0000 0.0000 692.2544 -10586.2995 119.2803 -11278.5538 -10583.9990 119.7247 6.7280 66.9002 28199.1601 2.7163 2.6752
TCL: Running 100000 steps at 150 kelvin.
TCL: Setting parameter langevinTemp to 150
TCL: Running for 100000 steps
ETITLE: TS BOND ANGLE DIHED IMPRP ELECT VDW BOUNDARY MISC KINETIC TOTAL TEMP POTENTIAL TOTAL3 TEMPAVG PRESSURE GPRESSURE VOLUME PRESSAVG GPRESSAVG
ENERGY: 400000 1.6103 1.9692 0.9850 0.0000 -13561.8646 2278.7463 0.0000 0.0000 691.9103 -10586.6435 119.2211 -11278.5538 -10585.0395 119.2211 21.2803 67.3133 28199.1601 21.2803 67.3133
ENERGY: 500000 1.0544 2.9785 0.9181 0.0000 -13443.4038 2297.8046 0.0000 0.0000 912.7584 -10227.8898 157.2748 -11140.6482 -10224.9334 150.3845 713.5201 775.0289 28242.9314 5.2373 5.0931
TCL: Running 100000 steps at 180 kelvin.
TCL: Setting parameter langevinTemp to 180
TCL: Running for 100000 steps
ETITLE: TS BOND ANGLE DIHED IMPRP ELECT VDW BOUNDARY MISC KINETIC TOTAL TEMP POTENTIAL TOTAL3 TEMPAVG PRESSURE GPRESSURE VOLUME PRESSAVG GPRESSAVG
ENERGY: 500000 1.0544 2.9785 0.9181 0.0000 -13443.4038 2297.8046 0.0000 0.0000 912.3041 -10228.3441 157.1965 -11140.6482 -10226.4313 157.1965 731.5137 774.8414 28242.9314 731.5137 774.8414
ENERGY: 600000 5.0017 4.2880 3.3943 0.0000 -12890.5490 2073.2581 0.0000 0.0000 1044.3436 -9760.2634 179.9478 -10804.6070 -9757.2889 179.9604 -279.3193 -188.8096 28483.5788 3.8144 3.6409
TCL: Running 100000 steps at 210 kelvin.
TCL: Setting parameter langevinTemp to 210
TCL: Running for 100000 steps
ETITLE: TS BOND ANGLE DIHED IMPRP ELECT VDW BOUNDARY MISC KINETIC TOTAL TEMP POTENTIAL TOTAL3 TEMPAVG PRESSURE GPRESSURE VOLUME PRESSAVG GPRESSAVG
ENERGY: 600000 5.0017 4.2880 3.3943 0.0000 -12890.5490 2073.2581 0.0000 0.0000 1043.8147 -9760.7922 179.8567 -10804.6070 -9758.6560 179.8567 -258.1007 -188.8611 28483.5788 -258.1007 -188.8611
ENERGY: 700000 3.1269 3.9815 1.6429 0.0000 -12362.8156 1939.6925 0.0000 0.0000 1202.6050 -9211.7669 207.2174 -10414.3719 -9208.8015 209.6981 236.2029 369.6472 28460.5250 2.3985 2.5146
TCL: Running 100000 steps at 240 kelvin.
TCL: Setting parameter langevinTemp to 240
TCL: Running for 100000 steps
ETITLE: TS BOND ANGLE DIHED IMPRP ELECT VDW BOUNDARY MISC KINETIC TOTAL TEMP POTENTIAL TOTAL3 TEMPAVG PRESSURE GPRESSURE VOLUME PRESSAVG GPRESSAVG
ENERGY: 700000 3.1269 3.9815 1.6429 0.0000 -12362.8156 1939.6925 0.0000 0.0000 1202.0133 -9212.3586 207.1154 -10414.3719 -9210.5619 207.1154 289.0159 370.2783 28460.5250 289.0159 370.2783
ENERGY: 800000 4.0991 7.3129 3.3032 0.0000 -11868.7966 1829.3012 0.0000 0.0000 1381.8235 -8642.9568 238.0980 -10024.7802 -8639.5919 239.9252 884.0125 981.1066 28405.7973 4.7661 4.7493
TCL: Running 100000 steps at 270 kelvin.
TCL: Setting parameter langevinTemp to 270
TCL: Running for 100000 steps
ETITLE: TS BOND ANGLE DIHED IMPRP ELECT VDW BOUNDARY MISC KINETIC TOTAL TEMP POTENTIAL TOTAL3 TEMPAVG PRESSURE GPRESSURE VOLUME PRESSAVG GPRESSAVG
ENERGY: 800000 4.0991 7.3129 3.3032 0.0000 -11868.7966 1829.3012 0.0000 0.0000 1381.1384 -8643.6418 237.9800 -10024.7802 -8641.3834 237.9800 893.9120 980.9536 28405.7973 893.9120 980.9536
ENERGY: 900000 2.7018 12.2633 1.0113 0.0000 -11065.0278 1577.9714 0.0000 0.0000 1602.8168 -7868.2633 276.1767 -9471.0800 -7866.0809 269.6799 630.7189 730.3541 28952.2301 4.9773 4.9375
TCL: Running 1000000 steps at 300 kelvin.
TCL: Setting parameter langevinTemp to 300
TCL: Running for 1000000 steps
ETITLE: TS BOND ANGLE DIHED IMPRP ELECT VDW BOUNDARY MISC KINETIC TOTAL TEMP POTENTIAL TOTAL3 TEMPAVG PRESSURE GPRESSURE VOLUME PRESSAVG GPRESSAVG
ENERGY: 900000 2.7018 12.2633 1.0113 0.0000 -11065.0278 1577.9714 0.0000 0.0000 1602.0230 -7869.0570 276.0399 -9471.0800 -7866.3459 276.0399 658.1374 728.9087 28952.2301 658.1374 728.9087
ENERGY: 1100000 1.7195 8.9227 2.1712 0.0000 -10406.9116 1355.0242 0.0000 0.0000 1762.2100 -7276.8641 303.6413 -9039.0741 -7272.8159 299.7369 -226.0481 -72.9085 29967.7200 3.0734 3.1092
ENERGY: 1300000 3.4511 6.0401 2.3402 0.0000 -10583.8596 1432.7630 0.0000 0.0000 1754.1900 -7385.0751 302.2594 -9139.2652 -7383.1456 300.3850 372.7589 442.2032 29373.7807 3.8467 3.7892
ENERGY: 1500000 1.6076 7.1707 2.4594 0.0000 -10571.8255 1414.4052 0.0000 0.0000 1778.0760 -7368.1066 306.3751 -9146.1826 -7364.0310 300.0995 56.9501 94.3788 29863.5571 2.9294 2.8438
ENERGY: 1700000 1.4536 10.6548 2.0215 0.0000 -10561.5245 1421.6822 0.0000 0.0000 1770.2189 -7355.4934 305.0213 -9125.7123 -7350.8560 300.2404 75.4735 125.0811 30134.4592 3.9123 4.0120
ENERGY: 1900000 3.0884 6.7459 3.6554 0.0000 -10591.8928 1407.4547 0.0000 0.0000 1739.1931 -7431.7554 299.6753 -9170.9484 -7426.8729 300.3060 -294.9541 -272.0982 30214.9031 2.8165 2.6252
TCL: Exiting due to exit command.
