Info: SIMULATION PARAMETERS:
Info: TIMESTEP               2
Info: NUMBER OF STEPS        0
Info: STEPS PER CYCLE        10
Info: PERIODIC CELL BASIS 1  34.207 0 0
Info: PERIODIC CELL BASIS 2  0 35.411 0
Info: PERIODIC CELL BASIS 3  0 0 36.199
Info: PERIODIC CELL CENTER   0 0 0
Info: WRAPPING WATERS AROUND PERIODIC BOUNDARIES ON OUTPUT.
Info: WRAPPING ALL CLUSTERS AROUND PERIODIC BOUNDARIES ON OUTPUT.
Info: FIRST LDB TIMESTEP     50
Info: LAST LDB TIMESTEP     -1
Info: HOM BACKGROUND SCALING 1
Info: PME BACKGROUND SCALING 1
Info: MIN ATOMS PER PATCH    40
Info: EMPTY PATCH LOAD       40 ATOMS
Info: INITIAL TEMPERATURE    300
Info: CENTER OF MASS MOVING INITIALLY? NO
Info: DIELECTRIC             1
Info: EXCLUDE                SCALED ONE-FOUR
Info: 1-4 ELECTROSTATICS SCALED BY 0.833333
Info: MODIFIED 1-4 VDW PARAMETERS WILL BE USED
Info: DCD FILENAME           mobley_6978427_equil.dcd
Info: DCD FREQUENCY          100000
Info: DCD FIRST STEP         100000
Info: DCD FILE WILL CONTAIN UNIT CELL DATA
Info: XST FILENAME           mobley_6978427_equil.xst
Info: XST FREQUENCY          100000
Info: NO VELOCITY DCD OUTPUT
Info: NO FORCE DCD OUTPUT
Info: OUTPUT FILENAME        mobley_6978427_equil
Info: BINARY OUTPUT FILES WILL BE USED
Info: RESTART FILENAME       mobley_6978427_equil.restart
Info: RESTART FREQUENCY      100000
Info: BINARY RESTART FILES WILL BE USED
Info: CUTOFF                 9
Info: PAIRLIST DISTANCE      11
Info: PAIRLIST SHRINK RATE   0.01
Info: PAIRLIST GROW RATE     0.01
Info: PAIRLIST TRIGGER       0.3
Info: PAIRLISTS PER CYCLE    2
Info: PAIRLISTS ENABLED
Info: MARGIN                 8
Info: HYDROGEN GROUP CUTOFF  2.5
Info: PATCH DIMENSION        21.5
Info: ENERGY OUTPUT STEPS    100000
Info: ENERGY EVALUATION STEPS    100000
Info: OUTPUT ENERGY PRECISION 4
Info: CROSSTERM ENERGY INCLUDED IN DIHEDRAL
Info: TIMING OUTPUT STEPS    1000000
Info: PRESSURE OUTPUT STEPS  100000
Info: LANGEVIN DYNAMICS ACTIVE
Info: LANGEVIN TEMPERATURE   30
Info: LANGEVIN USING BBK INTEGRATOR
Info: LANGEVIN DAMPING COEFFICIENT IS 1 INVERSE PS
Info: LANGEVIN DYNAMICS APPLIED TO HYDROGENS
Info: LANGEVIN PISTON PRESSURE CONTROL ACTIVE
Info:        TARGET PRESSURE IS 1.01325 BAR
Info:     OSCILLATION PERIOD IS 50 FS
Info:             DECAY TIME IS 25 FS
Info:     PISTON TEMPERATURE IS 300 K
Info:       PRESSURE CONTROL IS GROUP-BASED
Info:    INITIAL STRAIN RATE IS 0 0 0
Info:       CELL FLUCTUATION IS ISOTROPIC
Info: PARTICLE MESH EWALD (PME) ACTIVE
Info: PME TOLERANCE               1e-06
Info: PME EWALD COEFFICIENT       0.348832
Info: PME INTERPOLATION ORDER     4
Info: PME GRID DIMENSIONS         36 36 40
Info: PME MAXIMUM GRID SPACING    1
Info: FULL ELECTROSTATIC EVALUATION FREQUENCY      2
Info: USING VERLET I (r-RESPA) MTS SCHEME.
Info: C1 SPLITTING OF LONG RANGE ELECTROSTATICS
Info: PLACING ATOMS IN PATCHES BY HYDROGEN GROUPS
Info: RIGID BONDS TO HYDROGEN : ALL
Info:         ERROR TOLERANCE : 1e-08
Info:          MAX ITERATIONS : 100
Info: RIGID WATER USING SETTLE ALGORITHM
Info: RANDOM NUMBER SEED     1743236592
Info: USE HYDROGEN BONDS?    NO
Info: Using AMBER format force field!
Info: AMBER PARM FILE        mobley_6978427.prmtop
Info: COORDINATE PDB         mobley_6978427.pdb
Info: Exclusions will be read from PARM file!
Info: SCNB (VDW SCALING)     2
Info: USING ARITHMETIC MEAN TO COMBINE L-J SIGMA PARAMETERS
Info: BINARY COORDINATES     mobley_6978427_min.coor
Info: SUMMARY OF PARAMETERS:
Info: 9 BONDS
Info: 11 ANGLES
Info:   11 HARMONIC
Info:   0 COSINE-BASED
Info: 16 DIHEDRAL
Info: 0 IMPROPER
Info: 0 CROSSTERM
Info: 0 VDW
Info: 36 VDW_PAIRS
Info: 0 NBTHOLE_PAIRS
Info: STRUCTURE SUMMARY:
Info: 2961 ATOMS
Info: 2961 BONDS
Info: 46 ANGLES
Info: 83 DIHEDRALS
Info: 0 IMPROPERS
Info: 0 CROSSTERMS
Info: 3069 EXCLUSIONS
Info: 2951 RIGID BONDS
Info: 5932 DEGREES OF FREEDOM
Info: 989 HYDROGEN GROUPS
Info: 4 ATOMS IN LARGEST HYDROGEN GROUP
Info: 989 MIGRATION GROUPS
Info: 4 ATOMS IN LARGEST MIGRATION GROUP
Info: TOTAL MASS = 17779.9 amu
Info: TOTAL CHARGE = -0.000199955 e
Info: MASS DENSITY = 0.673345 g/cm^3
Info: ATOM DENSITY = 0.0675287 atoms/A^3
Info: ADDED 0 IMPLICIT EXCLUSIONS
Info: NONBONDED TABLE R-SQUARED SPACING: 0.0625
Info: NONBONDED TABLE SIZE: 705 POINTS
Info: REMOVING COM VELOCITY 0.0262396 0.0713667 0.176496
TCL: Running for 100000 steps
ETITLE: TS BOND ANGLE DIHED IMPRP ELECT VDW BOUNDARY MISC KINETIC TOTAL TEMP POTENTIAL TOTAL3 TEMPAVG PRESSURE GPRESSURE VOLUME PRESSAVG GPRESSAVG
ENERGY: 0 0.3838 0.8961 3.5313 0.0000 -13724.5884 2430.1537 0.0000 0.0000 1714.7406 -9574.8829 290.9294 -11289.6235 -9574.5517 290.9294 520.6083 561.8414 43847.9963 520.6083 561.8414
ENERGY: 100000 1.5423 2.5041 3.4756 0.0000 -14152.1990 2394.8607 0.0000 0.0000 171.8870 -11577.9292 29.1630 -11749.8163 -11577.1968 30.8960 -837.0136 -788.1750 28970.5668 3.3314 3.3302
TCL: Running 100000 steps at 60 kelvin.
TCL: Setting parameter langevinTemp to 60
TCL: Running for 100000 steps
ETITLE: TS BOND ANGLE DIHED IMPRP ELECT VDW BOUNDARY MISC KINETIC TOTAL TEMP POTENTIAL TOTAL3 TEMPAVG PRESSURE GPRESSURE VOLUME PRESSAVG GPRESSAVG
ENERGY: 100000 1.5423 2.5041 3.4756 0.0000 -14152.1990 2394.8607 0.0000 0.0000 171.7974 -11578.0189 29.1478 -11749.8163 -11577.5703 29.1478 -850.9568 -788.0918 28970.5668 -850.9568 -788.0918
ENERGY: 200000 0.8209 2.4092 4.8852 0.0000 -14086.2704 2406.7870 0.0000 0.0000 349.6305 -11321.7375 59.3197 -11671.3680 -11320.7017 59.9128 -363.9900 -286.5571 29064.7747 4.4414 4.3148
TCL: Running 100000 steps at 90 kelvin.
TCL: Setting parameter langevinTemp to 90
TCL: Running for 100000 steps
ETITLE: TS BOND ANGLE DIHED IMPRP ELECT VDW BOUNDARY MISC KINETIC TOTAL TEMP POTENTIAL TOTAL3 TEMPAVG PRESSURE GPRESSURE VOLUME PRESSAVG GPRESSAVG
ENERGY: 200000 0.8209 2.4092 4.8852 0.0000 -14086.2704 2406.7870 0.0000 0.0000 349.4613 -11321.9068 59.2909 -11671.3680 -11321.1213 59.2909 -345.9384 -286.1074 29064.7747 -345.9384 -286.1074
ENERGY: 300000 2.3602 3.3751 4.0392 0.0000 -14038.2564 2445.7934 0.0000 0.0000 531.7458 -11050.9427 90.2180 -11582.6885 -11049.7597 90.2107 466.6075 516.7883 28676.3753 2.4032 2.3806
TCL: Running 100000 steps at 120 kelvin.
TCL: Setting parameter langevinTemp to 120
TCL: Running for 100000 steps
ETITLE: TS BOND ANGLE DIHED IMPRP ELECT VDW BOUNDARY MISC KINETIC TOTAL TEMP POTENTIAL TOTAL3 TEMPAVG PRESSURE GPRESSURE VOLUME PRESSAVG GPRESSAVG
ENERGY: 300000 2.3602 3.3751 4.0392 0.0000 -14038.2564 2445.7934 0.0000 0.0000 531.4827 -11051.2058 90.1734 -11582.6885 -11050.1412 90.1734 451.7463 517.0243 28676.3753 451.7463 517.0243
ENERGY: 400000 1.2893 5.3429 5.4934 0.0000 -13868.8713 2399.1791 0.0000 0.0000 697.7311 -10759.8355 118.3797 -11457.5666 -10758.8315 120.1844 670.6478 671.2277 28683.0163 4.1535 4.1658
TCL: Running 100000 steps at 150 kelvin.
TCL: Setting parameter langevinTemp to 150
TCL: Running for 100000 steps
ETITLE: TS BOND ANGLE DIHED IMPRP ELECT VDW BOUNDARY MISC KINETIC TOTAL TEMP POTENTIAL TOTAL3 TEMPAVG PRESSURE GPRESSURE VOLUME PRESSAVG GPRESSAVG
ENERGY: 400000 1.2893 5.3429 5.4934 0.0000 -13868.8713 2399.1791 0.0000 0.0000 697.3810 -10760.1856 118.3203 -11457.5666 -10758.7673 118.3203 624.5351 669.8753 28683.0163 624.5351 669.8753
ENERGY: 500000 1.1138 4.5399 3.8564 0.0000 -13646.6118 2288.2311 0.0000 0.0000 883.4735 -10465.3971 149.8935 -11348.8706 -10462.2728 149.7311 -101.8824 -43.3634 29092.1186 3.7362 3.8516
TCL: Running 100000 steps at 180 kelvin.
TCL: Setting parameter langevinTemp to 180
TCL: Running for 100000 steps
ETITLE: TS BOND ANGLE DIHED IMPRP ELECT VDW BOUNDARY MISC KINETIC TOTAL TEMP POTENTIAL TOTAL3 TEMPAVG PRESSURE GPRESSURE VOLUME PRESSAVG GPRESSAVG
ENERGY: 500000 1.1138 4.5399 3.8564 0.0000 -13646.6118 2288.2311 0.0000 0.0000 883.0431 -10465.8275 149.8205 -11348.8706 -10464.0531 149.8205 -107.4246 -43.0686 29092.1186 -107.4246 -43.0686
ENERGY: 600000 3.5164 7.6186 4.1599 0.0000 -13046.3327 2007.3791 0.0000 0.0000 1090.8033 -9932.8555 185.0699 -11023.6588 -9929.9843 180.3357 -1262.9575 -1176.5519 29397.3791 3.8152 3.8415
TCL: Running 100000 steps at 210 kelvin.
TCL: Setting parameter langevinTemp to 210
TCL: Running for 100000 steps
ETITLE: TS BOND ANGLE DIHED IMPRP ELECT VDW BOUNDARY MISC KINETIC TOTAL TEMP POTENTIAL TOTAL3 TEMPAVG PRESSURE GPRESSURE VOLUME PRESSAVG GPRESSAVG
ENERGY: 600000 3.5164 7.6186 4.1599 0.0000 -13046.3327 2007.3791 0.0000 0.0000 1090.2739 -9933.3849 184.9800 -11023.6588 -9930.9722 184.9800 -1239.2204 -1176.8456 29397.3791 -1239.2204 -1176.8456
ENERGY: 700000 2.8620 7.5314 4.3551 0.0000 -12336.6521 1850.9507 0.0000 0.0000 1275.1791 -9195.7737 216.3518 -10470.9529 -9193.1690 210.0460 -363.1072 -215.2181 28894.3206 3.1342 3.1551
TCL: Running 100000 steps at 240 kelvin.
TCL: Setting parameter langevinTemp to 240
TCL: Running for 100000 steps
ETITLE: TS BOND ANGLE DIHED IMPRP ELECT VDW BOUNDARY MISC KINETIC TOTAL TEMP POTENTIAL TOTAL3 TEMPAVG PRESSURE GPRESSURE VOLUME PRESSAVG GPRESSAVG
ENERGY: 700000 2.8620 7.5314 4.3551 0.0000 -12336.6521 1850.9507 0.0000 0.0000 1274.5324 -9196.4205 216.2420 -10470.9529 -9194.0339 216.2420 -293.1568 -216.0980 28894.3206 -293.1568 -216.0980
ENERGY: 800000 3.2263 7.1391 4.8230 0.0000 -11960.5642 1763.6046 0.0000 0.0000 1406.5537 -8775.2175 238.6413 -10181.7712 -8772.3408 240.1751 -125.2939 -10.4425 29095.0333 4.2477 4.4744
TCL: Running 100000 steps at 270 kelvin.
TCL: Setting parameter langevinTemp to 270
TCL: Running for 100000 steps
ETITLE: TS BOND ANGLE DIHED IMPRP ELECT VDW BOUNDARY MISC KINETIC TOTAL TEMP POTENTIAL TOTAL3 TEMPAVG PRESSURE GPRESSURE VOLUME PRESSAVG GPRESSAVG
ENERGY: 800000 3.2263 7.1391 4.8230 0.0000 -11960.5642 1763.6046 0.0000 0.0000 1405.8524 -8775.9188 238.5223 -10181.7712 -8773.3485 238.5223 -98.5301 -9.8510 29095.0333 -98.5301 -9.8510
ENERGY: 900000 0.6852 11.4817 4.1953 0.0000 -11221.4632 1509.6170 0.0000 0.0000 1605.4615 -8090.0224 272.3887 -9695.4840 -8085.6008 269.2416 -474.4385 -331.1083 29547.1906 4.8710 4.8796
TCL: Running 1000000 steps at 300 kelvin.
TCL: Setting parameter langevinTemp to 300
TCL: Running for 1000000 steps
ETITLE: TS BOND ANGLE DIHED IMPRP ELECT VDW BOUNDARY MISC KINETIC TOTAL TEMP POTENTIAL TOTAL3 TEMPAVG PRESSURE GPRESSURE VOLUME PRESSAVG GPRESSAVG
ENERGY: 900000 0.6852 11.4817 4.1953 0.0000 -11221.4632 1509.6170 0.0000 0.0000 1604.6522 -8090.8317 272.2514 -9695.4840 -8087.9548 272.2514 -411.9434 -331.4563 29547.1906 -411.9434 -331.4563
ENERGY: 1100000 2.7340 12.6685 6.2075 0.0000 -10781.3121 1454.7202 0.0000 0.0000 1806.8479 -7498.1341 306.5567 -9304.9820 -7494.7145 299.9587 -208.0527 -114.9683 30742.9456 2.9176 2.9588
ENERGY: 1300000 4.0105 8.7994 4.5877 0.0000 -10619.5943 1419.6672 0.0000 0.0000 1836.1855 -7346.3440 311.5343 -9182.5295 -7346.0437 299.9294 -59.3273 -5.9327 30777.4666 3.4528 3.6237
ENERGY: 1500000 6.9679 13.7289 5.6740 0.0000 -10761.4341 1485.3316 0.0000 0.0000 1741.5661 -7508.1654 295.4808 -9249.7316 -7504.4967 300.0757 106.0270 197.2970 30443.3125 3.4574 3.2498
ENERGY: 1700000 2.3979 15.2473 4.1669 0.0000 -10586.2650 1343.3756 0.0000 0.0000 1748.1771 -7472.9003 296.6024 -9221.0774 -7466.8221 300.4769 -356.3940 -344.7988 30175.6221 3.6959 3.5957
ENERGY: 1900000 2.2343 14.3469 5.0655 0.0000 -10652.7509 1396.9588 0.0000 0.0000 1756.2565 -7477.8888 297.9732 -9234.1454 -7474.4509 300.8991 -427.4872 -343.4030 30854.9568 4.7052 4.6392
TCL: Exiting due to exit command.
