Info: SIMULATION PARAMETERS:
Info: TIMESTEP               2
Info: NUMBER OF STEPS        0
Info: STEPS PER CYCLE        10
Info: PERIODIC CELL BASIS 1  34.986 0 0
Info: PERIODIC CELL BASIS 2  0 35.779 0
Info: PERIODIC CELL BASIS 3  0 0 35.644
Info: PERIODIC CELL CENTER   0 0 0
Info: WRAPPING WATERS AROUND PERIODIC BOUNDARIES ON OUTPUT.
Info: WRAPPING ALL CLUSTERS AROUND PERIODIC BOUNDARIES ON OUTPUT.
Info: FIRST LDB TIMESTEP     50
Info: LAST LDB TIMESTEP     -1
Info: HOM BACKGROUND SCALING 1
Info: PME BACKGROUND SCALING 1
Info: MIN ATOMS PER PATCH    40
Info: EMPTY PATCH LOAD       40 ATOMS
Info: INITIAL TEMPERATURE    300
Info: CENTER OF MASS MOVING INITIALLY? NO
Info: DIELECTRIC             1
Info: EXCLUDE                SCALED ONE-FOUR
Info: 1-4 ELECTROSTATICS SCALED BY 0.833333
Info: MODIFIED 1-4 VDW PARAMETERS WILL BE USED
Info: DCD FILENAME           mobley_8427539_equil.dcd
Info: DCD FREQUENCY          100000
Info: DCD FIRST STEP         100000
Info: DCD FILE WILL CONTAIN UNIT CELL DATA
Info: XST FILENAME           mobley_8427539_equil.xst
Info: XST FREQUENCY          100000
Info: NO VELOCITY DCD OUTPUT
Info: NO FORCE DCD OUTPUT
Info: OUTPUT FILENAME        mobley_8427539_equil
Info: BINARY OUTPUT FILES WILL BE USED
Info: RESTART FILENAME       mobley_8427539_equil.restart
Info: RESTART FREQUENCY      100000
Info: BINARY RESTART FILES WILL BE USED
Info: CUTOFF                 9
Info: PAIRLIST DISTANCE      11
Info: PAIRLIST SHRINK RATE   0.01
Info: PAIRLIST GROW RATE     0.01
Info: PAIRLIST TRIGGER       0.3
Info: PAIRLISTS PER CYCLE    2
Info: PAIRLISTS ENABLED
Info: MARGIN                 8
Info: HYDROGEN GROUP CUTOFF  2.5
Info: PATCH DIMENSION        21.5
Info: ENERGY OUTPUT STEPS    100000
Info: ENERGY EVALUATION STEPS    100000
Info: OUTPUT ENERGY PRECISION 4
Info: CROSSTERM ENERGY INCLUDED IN DIHEDRAL
Info: TIMING OUTPUT STEPS    1000000
Info: PRESSURE OUTPUT STEPS  100000
Info: LANGEVIN DYNAMICS ACTIVE
Info: LANGEVIN TEMPERATURE   30
Info: LANGEVIN USING BBK INTEGRATOR
Info: LANGEVIN DAMPING COEFFICIENT IS 1 INVERSE PS
Info: LANGEVIN DYNAMICS APPLIED TO HYDROGENS
Info: LANGEVIN PISTON PRESSURE CONTROL ACTIVE
Info:        TARGET PRESSURE IS 1.01325 BAR
Info:     OSCILLATION PERIOD IS 50 FS
Info:             DECAY TIME IS 25 FS
Info:     PISTON TEMPERATURE IS 300 K
Info:       PRESSURE CONTROL IS GROUP-BASED
Info:    INITIAL STRAIN RATE IS 0 0 0
Info:       CELL FLUCTUATION IS ISOTROPIC
Info: PARTICLE MESH EWALD (PME) ACTIVE
Info: PME TOLERANCE               1e-06
Info: PME EWALD COEFFICIENT       0.348832
Info: PME INTERPOLATION ORDER     4
Info: PME GRID DIMENSIONS         36 36 36
Info: PME MAXIMUM GRID SPACING    1
Info: FULL ELECTROSTATIC EVALUATION FREQUENCY      2
Info: USING VERLET I (r-RESPA) MTS SCHEME.
Info: C1 SPLITTING OF LONG RANGE ELECTROSTATICS
Info: PLACING ATOMS IN PATCHES BY HYDROGEN GROUPS
Info: RIGID BONDS TO HYDROGEN : ALL
Info:         ERROR TOLERANCE : 1e-08
Info:          MAX ITERATIONS : 100
Info: RIGID WATER USING SETTLE ALGORITHM
Info: RANDOM NUMBER SEED     1743226372
Info: USE HYDROGEN BONDS?    NO
Info: Using AMBER format force field!
Info: AMBER PARM FILE        mobley_8427539.prmtop
Info: COORDINATE PDB         mobley_8427539.pdb
Info: Exclusions will be read from PARM file!
Info: SCNB (VDW SCALING)     2
Info: USING ARITHMETIC MEAN TO COMBINE L-J SIGMA PARAMETERS
Info: BINARY COORDINATES     mobley_8427539_min.coor
Info: SUMMARY OF PARAMETERS:
Info: 8 BONDS
Info: 9 ANGLES
Info:   9 HARMONIC
Info:   0 COSINE-BASED
Info: 12 DIHEDRAL
Info: 0 IMPROPER
Info: 0 CROSSTERM
Info: 0 VDW
Info: 36 VDW_PAIRS
Info: 0 NBTHOLE_PAIRS
Info: STRUCTURE SUMMARY:
Info: 2973 ATOMS
Info: 2972 BONDS
Info: 18 ANGLES
Info: 28 DIHEDRALS
Info: 0 IMPROPERS
Info: 0 CROSSTERMS
Info: 3009 EXCLUSIONS
Info: 2968 RIGID BONDS
Info: 5951 DEGREES OF FREEDOM
Info: 992 HYDROGEN GROUPS
Info: 4 ATOMS IN LARGEST HYDROGEN GROUP
Info: 992 MIGRATION GROUPS
Info: 4 ATOMS IN LARGEST MIGRATION GROUP
Info: TOTAL MASS = 17854.9 amu
Info: TOTAL CHARGE = 0.00019991 e
Info: MASS DENSITY = 0.664519 g/cm^3
Info: ATOM DENSITY = 0.0666325 atoms/A^3
Info: ADDED 0 IMPLICIT EXCLUSIONS
Info: NONBONDED TABLE R-SQUARED SPACING: 0.0625
Info: NONBONDED TABLE SIZE: 705 POINTS
Info: REMOVING COM VELOCITY 0.0176614 -0.0151654 0.164229
TCL: Running for 100000 steps
ETITLE: TS BOND ANGLE DIHED IMPRP ELECT VDW BOUNDARY MISC KINETIC TOTAL TEMP POTENTIAL TOTAL3 TEMPAVG PRESSURE GPRESSURE VOLUME PRESSAVG GPRESSAVG
ENERGY: 0 0.1897 0.8237 5.2581 0.0000 -13856.3711 2441.9272 0.0000 0.0000 1821.2730 -9586.8995 308.0176 -11408.1725 -9586.5571 308.0176 657.5192 681.6214 44617.8794 657.5192 681.6214
ENERGY: 100000 0.4142 1.4552 5.1877 0.0000 -14414.1477 2503.5368 0.0000 0.0000 178.3281 -11725.2256 30.1592 -11903.5537 -11724.6543 30.8643 -141.6743 -88.7819 29448.0651 3.8284 3.8674
TCL: Running 100000 steps at 60 kelvin.
TCL: Setting parameter langevinTemp to 60
TCL: Running for 100000 steps
ETITLE: TS BOND ANGLE DIHED IMPRP ELECT VDW BOUNDARY MISC KINETIC TOTAL TEMP POTENTIAL TOTAL3 TEMPAVG PRESSURE GPRESSURE VOLUME PRESSAVG GPRESSAVG
ENERGY: 100000 0.4142 1.4552 5.1877 0.0000 -14414.1477 2503.5368 0.0000 0.0000 178.2401 -11725.3136 30.1443 -11903.5537 -11724.9757 30.1443 -132.7273 -88.7830 29448.0651 -132.7273 -88.7830
ENERGY: 200000 0.2298 0.9410 5.2776 0.0000 -14261.7433 2414.9135 0.0000 0.0000 358.0010 -11482.3803 60.5459 -11840.3813 -11481.3220 59.9058 -498.9404 -444.9082 29230.1433 3.4815 3.4038
TCL: Running 100000 steps at 90 kelvin.
TCL: Setting parameter langevinTemp to 90
TCL: Running for 100000 steps
ETITLE: TS BOND ANGLE DIHED IMPRP ELECT VDW BOUNDARY MISC KINETIC TOTAL TEMP POTENTIAL TOTAL3 TEMPAVG PRESSURE GPRESSURE VOLUME PRESSAVG GPRESSAVG
ENERGY: 200000 0.2298 0.9410 5.2776 0.0000 -14261.7433 2414.9135 0.0000 0.0000 357.8257 -11482.5557 60.5162 -11840.3813 -11481.7268 60.5162 -504.3371 -444.8195 29230.1433 -504.3371 -444.8195
ENERGY: 300000 0.1952 2.4354 5.7905 0.0000 -14199.6307 2482.6747 0.0000 0.0000 545.0109 -11163.5241 92.1734 -11708.5350 -11162.0517 89.8993 498.8604 525.6219 29377.8577 3.7857 3.6987
TCL: Running 100000 steps at 120 kelvin.
TCL: Setting parameter langevinTemp to 120
TCL: Running for 100000 steps
ETITLE: TS BOND ANGLE DIHED IMPRP ELECT VDW BOUNDARY MISC KINETIC TOTAL TEMP POTENTIAL TOTAL3 TEMPAVG PRESSURE GPRESSURE VOLUME PRESSAVG GPRESSAVG
ENERGY: 300000 0.1952 2.4354 5.7905 0.0000 -14199.6307 2482.6747 0.0000 0.0000 544.7473 -11163.7877 92.1288 -11708.5350 -11162.8151 92.1288 479.2022 525.4466 29377.8577 479.2022 525.4466
ENERGY: 400000 1.3110 3.3897 6.2808 0.0000 -14134.7779 2558.0404 0.0000 0.0000 699.2849 -10866.4710 118.2646 -11565.7559 -10865.4213 119.9462 1775.7560 1838.9508 28927.9882 3.9837 3.9493
TCL: Running 100000 steps at 150 kelvin.
TCL: Setting parameter langevinTemp to 150
TCL: Running for 100000 steps
ETITLE: TS BOND ANGLE DIHED IMPRP ELECT VDW BOUNDARY MISC KINETIC TOTAL TEMP POTENTIAL TOTAL3 TEMPAVG PRESSURE GPRESSURE VOLUME PRESSAVG GPRESSAVG
ENERGY: 400000 1.3110 3.3897 6.2808 0.0000 -14134.7779 2558.0404 0.0000 0.0000 698.9504 -10866.8055 118.2080 -11565.7559 -10865.7024 118.2080 1793.6868 1838.6394 28927.9882 1793.6868 1838.6394
ENERGY: 500000 0.8807 1.7413 5.8334 0.0000 -13791.6592 2341.9437 0.0000 0.0000 869.7144 -10571.5456 147.0880 -11441.2600 -10569.5008 149.6448 382.7507 461.4604 29043.6848 3.8810 3.9808
TCL: Running 100000 steps at 180 kelvin.
TCL: Setting parameter langevinTemp to 180
TCL: Running for 100000 steps
ETITLE: TS BOND ANGLE DIHED IMPRP ELECT VDW BOUNDARY MISC KINETIC TOTAL TEMP POTENTIAL TOTAL3 TEMPAVG PRESSURE GPRESSURE VOLUME PRESSAVG GPRESSAVG
ENERGY: 500000 0.8807 1.7413 5.8334 0.0000 -13791.6592 2341.9437 0.0000 0.0000 869.2861 -10571.9739 147.0155 -11441.2600 -10570.4654 147.0155 406.7529 462.1167 29043.6848 406.7529 462.1167
ENERGY: 600000 1.3170 5.2527 5.6744 0.0000 -13207.0804 2089.1124 0.0000 0.0000 1077.7617 -10027.9622 182.2734 -11105.7239 -10026.4104 179.9402 -341.0116 -326.6961 29095.7198 5.0200 4.8718
TCL: Running 100000 steps at 210 kelvin.
TCL: Setting parameter langevinTemp to 210
TCL: Running for 100000 steps
ETITLE: TS BOND ANGLE DIHED IMPRP ELECT VDW BOUNDARY MISC KINETIC TOTAL TEMP POTENTIAL TOTAL3 TEMPAVG PRESSURE GPRESSURE VOLUME PRESSAVG GPRESSAVG
ENERGY: 600000 1.3170 5.2527 5.6744 0.0000 -13207.0804 2089.1124 0.0000 0.0000 1077.2151 -10028.5089 182.1809 -11105.7239 -10026.3861 182.1809 -380.9686 -327.6637 29095.7198 -380.9686 -327.6637
ENERGY: 700000 0.1829 3.0883 6.7272 0.0000 -12528.3644 1874.8103 0.0000 0.0000 1240.6773 -9402.8785 209.8260 -10643.5558 -9401.4431 210.0197 -338.7880 -224.2818 29032.7418 4.4136 4.3324
TCL: Running 100000 steps at 240 kelvin.
TCL: Setting parameter langevinTemp to 240
TCL: Running for 100000 steps
ETITLE: TS BOND ANGLE DIHED IMPRP ELECT VDW BOUNDARY MISC KINETIC TOTAL TEMP POTENTIAL TOTAL3 TEMPAVG PRESSURE GPRESSURE VOLUME PRESSAVG GPRESSAVG
ENERGY: 700000 0.1829 3.0883 6.7272 0.0000 -12528.3644 1874.8103 0.0000 0.0000 1240.0818 -9403.4740 209.7253 -10643.5558 -9401.0744 209.7253 -317.9809 -226.3444 29032.7418 -317.9809 -226.3444
ENERGY: 800000 2.9205 3.5395 6.2440 0.0000 -11795.4011 1638.1342 0.0000 0.0000 1422.2583 -8722.3047 240.5354 -10144.5630 -8718.3123 240.2572 -267.8872 -207.9721 28958.7978 3.0799 3.0131
TCL: Running 100000 steps at 270 kelvin.
TCL: Setting parameter langevinTemp to 270
TCL: Running for 100000 steps
ETITLE: TS BOND ANGLE DIHED IMPRP ELECT VDW BOUNDARY MISC KINETIC TOTAL TEMP POTENTIAL TOTAL3 TEMPAVG PRESSURE GPRESSURE VOLUME PRESSAVG GPRESSAVG
ENERGY: 800000 2.9205 3.5395 6.2440 0.0000 -11795.4011 1638.1342 0.0000 0.0000 1421.5377 -8723.0253 240.4135 -10144.5630 -8721.0501 240.4135 -297.5378 -207.9809 28958.7978 -297.5378 -207.9809
ENERGY: 900000 0.4428 5.3790 7.4877 0.0000 -11518.5087 1686.8130 0.0000 0.0000 1606.9738 -8211.4124 271.7748 -9818.3862 -8206.5307 269.8634 1034.5688 1141.2996 29369.0001 1.8243 1.6347
TCL: Running 1000000 steps at 300 kelvin.
TCL: Setting parameter langevinTemp to 300
TCL: Running for 1000000 steps
ETITLE: TS BOND ANGLE DIHED IMPRP ELECT VDW BOUNDARY MISC KINETIC TOTAL TEMP POTENTIAL TOTAL3 TEMPAVG PRESSURE GPRESSURE VOLUME PRESSAVG GPRESSAVG
ENERGY: 900000 0.4428 5.3790 7.4877 0.0000 -11518.5087 1686.8130 0.0000 0.0000 1606.1652 -8212.2210 271.6381 -9818.3862 -8210.1384 271.6381 1062.9233 1142.9128 29369.0001 1062.9233 1142.9128
ENERGY: 1100000 0.6154 6.3025 7.0878 0.0000 -10800.0760 1428.5547 0.0000 0.0000 1767.4729 -7590.0427 298.9188 -9357.5156 -7588.5078 300.6589 -35.0748 38.3741 30367.4632 2.9026 2.9355
ENERGY: 1300000 1.2960 3.7523 6.8601 0.0000 -10832.8486 1416.6900 0.0000 0.0000 1796.0221 -7608.2282 303.7471 -9404.2503 -7605.0146 300.1179 -192.3879 -128.8853 30589.1442 4.1074 4.1176
ENERGY: 1500000 1.0857 5.4144 7.6481 0.0000 -10885.7569 1502.0116 0.0000 0.0000 1858.8765 -7510.7206 314.3772 -9369.5971 -7508.4131 300.4263 411.5019 485.0010 30628.5877 3.2641 3.2633
ENERGY: 1700000 1.5016 6.2050 8.3425 0.0000 -10744.6706 1393.2557 0.0000 0.0000 1736.8794 -7598.4865 293.7447 -9335.3658 -7596.1989 300.2972 -525.7238 -437.6426 31068.3978 2.6097 2.5927
ENERGY: 1900000 0.3263 2.8018 8.0813 0.0000 -10780.2751 1434.3866 0.0000 0.0000 1804.1441 -7530.5351 305.1207 -9334.6792 -7527.1422 300.9113 83.0989 225.7610 30281.2570 3.0817 3.1833
TCL: Exiting due to exit command.
