Info: SIMULATION PARAMETERS:
Info: TIMESTEP               2
Info: NUMBER OF STEPS        0
Info: STEPS PER CYCLE        10
Info: PERIODIC CELL BASIS 1  34.207 0 0
Info: PERIODIC CELL BASIS 2  0 35.267 0
Info: PERIODIC CELL BASIS 3  0 0 35.723
Info: PERIODIC CELL CENTER   0 0 0
Info: WRAPPING WATERS AROUND PERIODIC BOUNDARIES ON OUTPUT.
Info: WRAPPING ALL CLUSTERS AROUND PERIODIC BOUNDARIES ON OUTPUT.
Info: FIRST LDB TIMESTEP     50
Info: LAST LDB TIMESTEP     -1
Info: HOM BACKGROUND SCALING 1
Info: PME BACKGROUND SCALING 1
Info: MIN ATOMS PER PATCH    40
Info: EMPTY PATCH LOAD       40 ATOMS
Info: INITIAL TEMPERATURE    300
Info: CENTER OF MASS MOVING INITIALLY? NO
Info: DIELECTRIC             1
Info: EXCLUDE                SCALED ONE-FOUR
Info: 1-4 ELECTROSTATICS SCALED BY 0.833333
Info: MODIFIED 1-4 VDW PARAMETERS WILL BE USED
Info: DCD FILENAME           mobley_2972906_equil.dcd
Info: DCD FREQUENCY          100000
Info: DCD FIRST STEP         100000
Info: DCD FILE WILL CONTAIN UNIT CELL DATA
Info: XST FILENAME           mobley_2972906_equil.xst
Info: XST FREQUENCY          100000
Info: NO VELOCITY DCD OUTPUT
Info: NO FORCE DCD OUTPUT
Info: OUTPUT FILENAME        mobley_2972906_equil
Info: BINARY OUTPUT FILES WILL BE USED
Info: RESTART FILENAME       mobley_2972906_equil.restart
Info: RESTART FREQUENCY      100000
Info: BINARY RESTART FILES WILL BE USED
Info: CUTOFF                 9
Info: PAIRLIST DISTANCE      11
Info: PAIRLIST SHRINK RATE   0.01
Info: PAIRLIST GROW RATE     0.01
Info: PAIRLIST TRIGGER       0.3
Info: PAIRLISTS PER CYCLE    2
Info: PAIRLISTS ENABLED
Info: MARGIN                 8
Info: HYDROGEN GROUP CUTOFF  2.5
Info: PATCH DIMENSION        21.5
Info: ENERGY OUTPUT STEPS    100000
Info: ENERGY EVALUATION STEPS    100000
Info: OUTPUT ENERGY PRECISION 4
Info: CROSSTERM ENERGY INCLUDED IN DIHEDRAL
Info: TIMING OUTPUT STEPS    1000000
Info: PRESSURE OUTPUT STEPS  100000
Info: LANGEVIN DYNAMICS ACTIVE
Info: LANGEVIN TEMPERATURE   30
Info: LANGEVIN USING BBK INTEGRATOR
Info: LANGEVIN DAMPING COEFFICIENT IS 1 INVERSE PS
Info: LANGEVIN DYNAMICS APPLIED TO HYDROGENS
Info: LANGEVIN PISTON PRESSURE CONTROL ACTIVE
Info:        TARGET PRESSURE IS 1.01325 BAR
Info:     OSCILLATION PERIOD IS 50 FS
Info:             DECAY TIME IS 25 FS
Info:     PISTON TEMPERATURE IS 300 K
Info:       PRESSURE CONTROL IS GROUP-BASED
Info:    INITIAL STRAIN RATE IS 0 0 0
Info:       CELL FLUCTUATION IS ISOTROPIC
Info: PARTICLE MESH EWALD (PME) ACTIVE
Info: PME TOLERANCE               1e-06
Info: PME EWALD COEFFICIENT       0.348832
Info: PME INTERPOLATION ORDER     4
Info: PME GRID DIMENSIONS         36 36 36
Info: PME MAXIMUM GRID SPACING    1
Info: FULL ELECTROSTATIC EVALUATION FREQUENCY      2
Info: USING VERLET I (r-RESPA) MTS SCHEME.
Info: C1 SPLITTING OF LONG RANGE ELECTROSTATICS
Info: PLACING ATOMS IN PATCHES BY HYDROGEN GROUPS
Info: RIGID BONDS TO HYDROGEN : ALL
Info:         ERROR TOLERANCE : 1e-08
Info:          MAX ITERATIONS : 100
Info: RIGID WATER USING SETTLE ALGORITHM
Info: RANDOM NUMBER SEED     1743158967
Info: USE HYDROGEN BONDS?    NO
Info: Using AMBER format force field!
Info: AMBER PARM FILE        mobley_2972906.prmtop
Info: COORDINATE PDB         mobley_2972906.pdb
Info: Exclusions will be read from PARM file!
Info: SCNB (VDW SCALING)     2
Info: USING ARITHMETIC MEAN TO COMBINE L-J SIGMA PARAMETERS
Info: BINARY COORDINATES     mobley_2972906_min.coor
Info: SUMMARY OF PARAMETERS:
Info: 7 BONDS
Info: 7 ANGLES
Info:   7 HARMONIC
Info:   0 COSINE-BASED
Info: 3 DIHEDRAL
Info: 0 IMPROPER
Info: 0 CROSSTERM
Info: 0 VDW
Info: 21 VDW_PAIRS
Info: 0 NBTHOLE_PAIRS
Info: STRUCTURE SUMMARY:
Info: 2913 ATOMS
Info: 2913 BONDS
Info: 13 ANGLES
Info: 20 DIHEDRALS
Info: 0 IMPROPERS
Info: 0 CROSSTERMS
Info: 2937 EXCLUSIONS
Info: 2908 RIGID BONDS
Info: 5831 DEGREES OF FREEDOM
Info: 973 HYDROGEN GROUPS
Info: 3 ATOMS IN LARGEST HYDROGEN GROUP
Info: 973 MIGRATION GROUPS
Info: 3 ATOMS IN LARGEST MIGRATION GROUP
Info: TOTAL MASS = 17523.6 amu
Info: TOTAL CHARGE = -0.000100012 e
Info: MASS DENSITY = 0.67523 g/cm^3
Info: ATOM DENSITY = 0.0675941 atoms/A^3
Info: ADDED 0 IMPLICIT EXCLUSIONS
Info: NONBONDED TABLE R-SQUARED SPACING: 0.0625
Info: NONBONDED TABLE SIZE: 705 POINTS
Info: REMOVING COM VELOCITY -0.222757 -0.038826 -0.0635232
TCL: Running for 100000 steps
ETITLE: TS BOND ANGLE DIHED IMPRP ELECT VDW BOUNDARY MISC KINETIC TOTAL TEMP POTENTIAL TOTAL3 TEMPAVG PRESSURE GPRESSURE VOLUME PRESSAVG GPRESSAVG
ENERGY: 0 0.0079 0.2779 0.0107 0.0000 -13513.1794 2380.8184 0.0000 0.0000 1703.8809 -9428.1835 294.0943 -11132.0644 -9427.8389 294.0943 460.4895 496.1007 43095.4509 460.4895 496.1007
ENERGY: 100000 0.1640 0.5200 0.1537 0.0000 -14141.9641 2507.6081 0.0000 0.0000 169.4422 -11464.0762 29.2462 -11633.5183 -11463.5979 30.8996 422.9569 481.8526 28299.5756 5.9625 5.8870
TCL: Running 100000 steps at 60 kelvin.
TCL: Setting parameter langevinTemp to 60
TCL: Running for 100000 steps
ETITLE: TS BOND ANGLE DIHED IMPRP ELECT VDW BOUNDARY MISC KINETIC TOTAL TEMP POTENTIAL TOTAL3 TEMPAVG PRESSURE GPRESSURE VOLUME PRESSAVG GPRESSAVG
ENERGY: 100000 0.1640 0.5200 0.1537 0.0000 -14141.9641 2507.6081 0.0000 0.0000 169.3543 -11464.1641 29.2310 -11633.5183 -11463.8263 29.2310 416.8724 481.9302 28299.5756 416.8724 481.9302
ENERGY: 200000 0.3516 0.9507 0.3180 0.0000 -13884.9136 2362.2298 0.0000 0.0000 352.3672 -11168.6963 60.8195 -11521.0635 -11167.9698 60.0302 -297.6002 -238.0952 28535.1714 3.0544 3.0547
TCL: Running 100000 steps at 90 kelvin.
TCL: Setting parameter langevinTemp to 90
TCL: Running for 100000 steps
ETITLE: TS BOND ANGLE DIHED IMPRP ELECT VDW BOUNDARY MISC KINETIC TOTAL TEMP POTENTIAL TOTAL3 TEMPAVG PRESSURE GPRESSURE VOLUME PRESSAVG GPRESSAVG
ENERGY: 200000 0.3516 0.9507 0.3180 0.0000 -13884.9136 2362.2298 0.0000 0.0000 352.1899 -11168.8737 60.7889 -11521.0635 -11167.9650 60.7889 -290.2376 -238.7372 28535.1714 -290.2376 -238.7372
ENERGY: 300000 0.5820 0.6799 0.4572 0.0000 -13799.1333 2368.0798 0.0000 0.0000 547.4159 -10881.9185 94.4854 -11429.3344 -10880.1157 90.0886 328.4677 377.4745 28129.7364 4.9326 4.9675
TCL: Running 100000 steps at 120 kelvin.
TCL: Setting parameter langevinTemp to 120
TCL: Running for 100000 steps
ETITLE: TS BOND ANGLE DIHED IMPRP ELECT VDW BOUNDARY MISC KINETIC TOTAL TEMP POTENTIAL TOTAL3 TEMPAVG PRESSURE GPRESSURE VOLUME PRESSAVG GPRESSAVG
ENERGY: 300000 0.5820 0.6799 0.4572 0.0000 -13799.1333 2368.0798 0.0000 0.0000 547.1672 -10882.1671 94.4425 -11429.3344 -10881.0573 94.4425 330.4889 378.2593 28129.7364 330.4889 378.2593
ENERGY: 400000 0.5099 1.5692 1.6640 0.0000 -13614.0089 2301.0665 0.0000 0.0000 706.2301 -10602.9692 121.8972 -11309.1993 -10601.1408 120.1516 288.2713 341.7077 28019.4093 5.4769 5.4939
TCL: Running 100000 steps at 150 kelvin.
TCL: Setting parameter langevinTemp to 150
TCL: Running for 100000 steps
ETITLE: TS BOND ANGLE DIHED IMPRP ELECT VDW BOUNDARY MISC KINETIC TOTAL TEMP POTENTIAL TOTAL3 TEMPAVG PRESSURE GPRESSURE VOLUME PRESSAVG GPRESSAVG
ENERGY: 400000 0.5099 1.5692 1.6640 0.0000 -13614.0089 2301.0665 0.0000 0.0000 705.8834 -10603.3159 121.8373 -11309.1993 -10602.2329 121.8373 283.7823 341.6778 28019.4093 283.7823 341.6778
ENERGY: 500000 0.7615 0.6268 0.9497 0.0000 -13464.5569 2282.8908 0.0000 0.0000 865.1419 -10314.1862 149.3257 -11179.3281 -10312.8785 150.2972 377.9188 430.2503 28189.1428 4.0904 4.1452
TCL: Running 100000 steps at 180 kelvin.
TCL: Setting parameter langevinTemp to 180
TCL: Running for 100000 steps
ETITLE: TS BOND ANGLE DIHED IMPRP ELECT VDW BOUNDARY MISC KINETIC TOTAL TEMP POTENTIAL TOTAL3 TEMPAVG PRESSURE GPRESSURE VOLUME PRESSAVG GPRESSAVG
ENERGY: 500000 0.7615 0.6268 0.9497 0.0000 -13464.5569 2282.8908 0.0000 0.0000 864.7193 -10314.6088 149.2528 -11179.3281 -10312.7931 149.2528 379.9131 429.1111 28189.1428 379.9131 429.1111
ENERGY: 600000 1.3498 3.9709 1.4505 0.0000 -12887.7445 1994.6003 0.0000 0.0000 1080.8393 -9805.5337 186.5557 -10886.3730 -9802.8941 179.6754 -974.5500 -892.8659 28641.4600 4.2550 4.2452
TCL: Running 100000 steps at 210 kelvin.
TCL: Setting parameter langevinTemp to 210
TCL: Running for 100000 steps
ETITLE: TS BOND ANGLE DIHED IMPRP ELECT VDW BOUNDARY MISC KINETIC TOTAL TEMP POTENTIAL TOTAL3 TEMPAVG PRESSURE GPRESSURE VOLUME PRESSAVG GPRESSAVG
ENERGY: 600000 1.3498 3.9709 1.4505 0.0000 -12887.7445 1994.6003 0.0000 0.0000 1080.3200 -9806.0530 186.4661 -10886.3730 -9804.0020 186.4661 -955.7296 -894.2352 28641.4600 -955.7296 -894.2352
ENERGY: 700000 1.2480 1.8382 1.7352 0.0000 -12202.8594 1833.6188 0.0000 0.0000 1207.1991 -9157.2201 208.3657 -10364.4192 -9153.4191 209.9069 -436.3368 -373.4553 28813.6355 3.3408 3.3435
TCL: Running 100000 steps at 240 kelvin.
TCL: Setting parameter langevinTemp to 240
TCL: Running for 100000 steps
ETITLE: TS BOND ANGLE DIHED IMPRP ELECT VDW BOUNDARY MISC KINETIC TOTAL TEMP POTENTIAL TOTAL3 TEMPAVG PRESSURE GPRESSURE VOLUME PRESSAVG GPRESSAVG
ENERGY: 700000 1.2480 1.8382 1.7352 0.0000 -12202.8594 1833.6188 0.0000 0.0000 1206.5992 -9157.8200 208.2622 -10364.4192 -9155.6514 208.2622 -448.4835 -371.3759 28813.6355 -448.4835 -371.3759
ENERGY: 800000 0.5776 1.0765 1.7148 0.0000 -11796.0330 1803.3549 0.0000 0.0000 1382.7685 -8606.5407 238.6694 -9989.3092 -8603.2484 239.6052 715.2875 801.2719 28784.6723 2.9457 2.7768
TCL: Running 100000 steps at 270 kelvin.
TCL: Setting parameter langevinTemp to 270
TCL: Running for 100000 steps
ETITLE: TS BOND ANGLE DIHED IMPRP ELECT VDW BOUNDARY MISC KINETIC TOTAL TEMP POTENTIAL TOTAL3 TEMPAVG PRESSURE GPRESSURE VOLUME PRESSAVG GPRESSAVG
ENERGY: 800000 0.5776 1.0765 1.7148 0.0000 -11796.0330 1803.3549 0.0000 0.0000 1382.0872 -8607.2220 238.5518 -9989.3092 -8605.5862 238.5518 736.7784 802.3929 28784.6723 736.7784 802.3929
ENERGY: 900000 0.6536 1.1116 2.6209 0.0000 -11125.1344 1546.4455 0.0000 0.0000 1578.0646 -7996.2383 272.3781 -9574.3029 -7993.2268 269.7932 -162.4303 -100.6085 29298.7501 3.1565 3.2973
TCL: Running 1000000 steps at 300 kelvin.
TCL: Setting parameter langevinTemp to 300
TCL: Running for 1000000 steps
ETITLE: TS BOND ANGLE DIHED IMPRP ELECT VDW BOUNDARY MISC KINETIC TOTAL TEMP POTENTIAL TOTAL3 TEMPAVG PRESSURE GPRESSURE VOLUME PRESSAVG GPRESSAVG
ENERGY: 900000 0.6536 1.1116 2.6209 0.0000 -11125.1344 1546.4455 0.0000 0.0000 1577.2671 -7997.0358 272.2404 -9574.3029 -7994.8432 272.2404 -182.6245 -101.0564 29298.7501 -182.6245 -101.0564
ENERGY: 1100000 0.8033 1.2794 1.2135 0.0000 -10623.1422 1434.9824 0.0000 0.0000 1766.5240 -7418.3397 304.9066 -9184.8637 -7416.0467 300.8267 221.6054 344.8400 29786.7831 2.5832 2.7021
ENERGY: 1300000 1.0284 1.7893 1.1334 0.0000 -10620.9765 1448.0843 0.0000 0.0000 1775.9027 -7393.0385 306.5254 -9168.9412 -7387.5257 300.6345 424.9104 480.1227 29530.7967 3.4592 3.5101
ENERGY: 1500000 0.7184 1.5644 1.2928 0.0000 -10518.1651 1372.9043 0.0000 0.0000 1723.0847 -7418.6005 297.4089 -9141.6852 -7415.8801 300.7619 -535.1038 -501.4470 30396.7838 3.6264 3.5860
ENERGY: 1700000 0.6231 1.1360 2.0226 0.0000 -10515.3667 1422.3715 0.0000 0.0000 1737.5507 -7351.6627 299.9058 -9089.2135 -7348.0038 300.1610 -128.1688 -3.1313 30518.3016 3.4390 3.5089
ENERGY: 1900000 2.5535 6.4400 1.3874 0.0000 -10534.7438 1419.7369 0.0000 0.0000 1770.5491 -7334.0770 305.6014 -9104.6260 -7332.4617 300.4040 82.6091 172.6185 30292.8708 3.6727 3.7435
TCL: Exiting due to exit command.
