Info: SIMULATION PARAMETERS:
Info: TIMESTEP               2
Info: NUMBER OF STEPS        0
Info: STEPS PER CYCLE        10
Info: PERIODIC CELL BASIS 1  36.281 0 0
Info: PERIODIC CELL BASIS 2  0 34.1 0
Info: PERIODIC CELL BASIS 3  0 0 36.199
Info: PERIODIC CELL CENTER   0 0 0
Info: WRAPPING WATERS AROUND PERIODIC BOUNDARIES ON OUTPUT.
Info: WRAPPING ALL CLUSTERS AROUND PERIODIC BOUNDARIES ON OUTPUT.
Info: FIRST LDB TIMESTEP     50
Info: LAST LDB TIMESTEP     -1
Info: HOM BACKGROUND SCALING 1
Info: PME BACKGROUND SCALING 1
Info: MIN ATOMS PER PATCH    40
Info: EMPTY PATCH LOAD       40 ATOMS
Info: INITIAL TEMPERATURE    300
Info: CENTER OF MASS MOVING INITIALLY? NO
Info: DIELECTRIC             1
Info: EXCLUDE                SCALED ONE-FOUR
Info: 1-4 ELECTROSTATICS SCALED BY 0.833333
Info: MODIFIED 1-4 VDW PARAMETERS WILL BE USED
Info: DCD FILENAME           mobley_1855337_equil.dcd
Info: DCD FREQUENCY          100000
Info: DCD FIRST STEP         100000
Info: DCD FILE WILL CONTAIN UNIT CELL DATA
Info: XST FILENAME           mobley_1855337_equil.xst
Info: XST FREQUENCY          100000
Info: NO VELOCITY DCD OUTPUT
Info: NO FORCE DCD OUTPUT
Info: OUTPUT FILENAME        mobley_1855337_equil
Info: BINARY OUTPUT FILES WILL BE USED
Info: RESTART FILENAME       mobley_1855337_equil.restart
Info: RESTART FREQUENCY      100000
Info: BINARY RESTART FILES WILL BE USED
Info: CUTOFF                 9
Info: PAIRLIST DISTANCE      11
Info: PAIRLIST SHRINK RATE   0.01
Info: PAIRLIST GROW RATE     0.01
Info: PAIRLIST TRIGGER       0.3
Info: PAIRLISTS PER CYCLE    2
Info: PAIRLISTS ENABLED
Info: MARGIN                 8
Info: HYDROGEN GROUP CUTOFF  2.5
Info: PATCH DIMENSION        21.5
Info: ENERGY OUTPUT STEPS    100000
Info: ENERGY EVALUATION STEPS    100000
Info: OUTPUT ENERGY PRECISION 4
Info: CROSSTERM ENERGY INCLUDED IN DIHEDRAL
Info: TIMING OUTPUT STEPS    1000000
Info: PRESSURE OUTPUT STEPS  100000
Info: LANGEVIN DYNAMICS ACTIVE
Info: LANGEVIN TEMPERATURE   30
Info: LANGEVIN USING BBK INTEGRATOR
Info: LANGEVIN DAMPING COEFFICIENT IS 1 INVERSE PS
Info: LANGEVIN DYNAMICS APPLIED TO HYDROGENS
Info: LANGEVIN PISTON PRESSURE CONTROL ACTIVE
Info:        TARGET PRESSURE IS 1.01325 BAR
Info:     OSCILLATION PERIOD IS 50 FS
Info:             DECAY TIME IS 25 FS
Info:     PISTON TEMPERATURE IS 300 K
Info:       PRESSURE CONTROL IS GROUP-BASED
Info:    INITIAL STRAIN RATE IS 0 0 0
Info:       CELL FLUCTUATION IS ISOTROPIC
Info: PARTICLE MESH EWALD (PME) ACTIVE
Info: PME TOLERANCE               1e-06
Info: PME EWALD COEFFICIENT       0.348832
Info: PME INTERPOLATION ORDER     4
Info: PME GRID DIMENSIONS         40 36 40
Info: PME MAXIMUM GRID SPACING    1
Info: FULL ELECTROSTATIC EVALUATION FREQUENCY      2
Info: USING VERLET I (r-RESPA) MTS SCHEME.
Info: C1 SPLITTING OF LONG RANGE ELECTROSTATICS
Info: PLACING ATOMS IN PATCHES BY HYDROGEN GROUPS
Info: RIGID BONDS TO HYDROGEN : ALL
Info:         ERROR TOLERANCE : 1e-08
Info:          MAX ITERATIONS : 100
Info: RIGID WATER USING SETTLE ALGORITHM
Info: RANDOM NUMBER SEED     1743164012
Info: USE HYDROGEN BONDS?    NO
Info: Using AMBER format force field!
Info: AMBER PARM FILE        mobley_1855337.prmtop
Info: COORDINATE PDB         mobley_1855337.pdb
Info: Exclusions will be read from PARM file!
Info: SCNB (VDW SCALING)     2
Info: USING ARITHMETIC MEAN TO COMBINE L-J SIGMA PARAMETERS
Info: BINARY COORDINATES     mobley_1855337_min.coor
Info: SUMMARY OF PARAMETERS:
Info: 5 BONDS
Info: 3 ANGLES
Info:   3 HARMONIC
Info:   0 COSINE-BASED
Info: 2 DIHEDRAL
Info: 0 IMPROPER
Info: 0 CROSSTERM
Info: 0 VDW
Info: 15 VDW_PAIRS
Info: 0 NBTHOLE_PAIRS
Info: STRUCTURE SUMMARY:
Info: 2982 ATOMS
Info: 2982 BONDS
Info: 18 ANGLES
Info: 30 DIHEDRALS
Info: 0 IMPROPERS
Info: 0 CROSSTERMS
Info: 3021 EXCLUSIONS
Info: 2972 RIGID BONDS
Info: 5974 DEGREES OF FREEDOM
Info: 1000 HYDROGEN GROUPS
Info: 3 ATOMS IN LARGEST HYDROGEN GROUP
Info: 1000 MIGRATION GROUPS
Info: 3 ATOMS IN LARGEST MIGRATION GROUP
Info: TOTAL MASS = 18051.7 amu
Info: TOTAL CHARGE = 0.000199986 e
Info: MASS DENSITY = 0.669341 g/cm^3
Info: ATOM DENSITY = 0.0665852 atoms/A^3
Info: ADDED 0 IMPLICIT EXCLUSIONS
Info: NONBONDED TABLE R-SQUARED SPACING: 0.0625
Info: NONBONDED TABLE SIZE: 705 POINTS
Info: REMOVING COM VELOCITY -0.149125 -0.060418 0.0923863
TCL: Running for 100000 steps
ETITLE: TS BOND ANGLE DIHED IMPRP ELECT VDW BOUNDARY MISC KINETIC TOTAL TEMP POTENTIAL TOTAL3 TEMPAVG PRESSURE GPRESSURE VOLUME PRESSAVG GPRESSAVG
ENERGY: 0 0.1989 0.1511 0.0075 0.0000 -13775.3503 2414.6560 0.0000 0.0000 1786.3697 -9573.9670 300.9515 -11360.3367 -9573.6317 300.9515 474.2549 510.0449 44784.7548 474.2549 510.0449
ENERGY: 100000 0.2969 0.5944 0.1867 0.0000 -14366.9168 2491.7320 0.0000 0.0000 181.8149 -11692.2921 30.6305 -11874.1070 -11691.6665 30.9565 -156.0940 -99.5676 29225.8851 3.8123 3.8465
TCL: Running 100000 steps at 60 kelvin.
TCL: Setting parameter langevinTemp to 60
TCL: Running for 100000 steps
ETITLE: TS BOND ANGLE DIHED IMPRP ELECT VDW BOUNDARY MISC KINETIC TOTAL TEMP POTENTIAL TOTAL3 TEMPAVG PRESSURE GPRESSURE VOLUME PRESSAVG GPRESSAVG
ENERGY: 100000 0.2969 0.5944 0.1867 0.0000 -14366.9168 2491.7320 0.0000 0.0000 181.7292 -11692.3777 30.6161 -11874.1070 -11691.9513 30.6161 -161.5344 -99.4816 29225.8851 -161.5344 -99.4816
ENERGY: 200000 0.9906 0.4475 1.3667 0.0000 -14354.7551 2507.2067 0.0000 0.0000 350.1179 -11494.6256 58.9847 -11844.7436 -11494.3027 59.8688 184.0210 242.8747 28869.8953 3.1281 3.2010
TCL: Running 100000 steps at 90 kelvin.
TCL: Setting parameter langevinTemp to 90
TCL: Running for 100000 steps
ETITLE: TS BOND ANGLE DIHED IMPRP ELECT VDW BOUNDARY MISC KINETIC TOTAL TEMP POTENTIAL TOTAL3 TEMPAVG PRESSURE GPRESSURE VOLUME PRESSAVG GPRESSAVG
ENERGY: 200000 0.9906 0.4475 1.3667 0.0000 -14354.7551 2507.2067 0.0000 0.0000 349.9367 -11494.8069 58.9542 -11844.7436 -11494.1264 58.9542 198.2897 242.5316 28869.8953 198.2897 242.5316
ENERGY: 300000 2.5390 0.4936 1.4027 0.0000 -14102.7047 2350.8938 0.0000 0.0000 524.0909 -11223.2846 88.2941 -11747.3756 -11222.8448 89.9110 -830.2493 -808.3431 29179.5153 2.4726 2.4997
TCL: Running 100000 steps at 120 kelvin.
TCL: Setting parameter langevinTemp to 120
TCL: Running for 100000 steps
ETITLE: TS BOND ANGLE DIHED IMPRP ELECT VDW BOUNDARY MISC KINETIC TOTAL TEMP POTENTIAL TOTAL3 TEMPAVG PRESSURE GPRESSURE VOLUME PRESSAVG GPRESSAVG
ENERGY: 300000 2.5390 0.4936 1.4027 0.0000 -14102.7047 2350.8938 0.0000 0.0000 523.8266 -11223.5490 88.2496 -11747.3756 -11222.2292 88.2496 -855.5301 -808.7414 29179.5153 -855.5301 -808.7414
ENERGY: 400000 1.6983 2.0396 1.6409 0.0000 -14018.9322 2425.1510 0.0000 0.0000 703.2626 -10885.1398 118.4794 -11588.4024 -10883.9184 120.0355 501.7413 540.7623 29154.5489 5.3592 5.4462
TCL: Running 100000 steps at 150 kelvin.
TCL: Setting parameter langevinTemp to 150
TCL: Running for 100000 steps
ETITLE: TS BOND ANGLE DIHED IMPRP ELECT VDW BOUNDARY MISC KINETIC TOTAL TEMP POTENTIAL TOTAL3 TEMPAVG PRESSURE GPRESSURE VOLUME PRESSAVG GPRESSAVG
ENERGY: 400000 1.6983 2.0396 1.6409 0.0000 -14018.9322 2425.1510 0.0000 0.0000 702.8922 -10885.5102 118.4170 -11588.4024 -10884.4835 118.4170 487.2428 540.5786 29154.5489 487.2428 540.5786
ENERGY: 500000 1.8275 1.1176 2.8529 0.0000 -13687.4576 2284.8214 0.0000 0.0000 875.2738 -10521.5644 147.4583 -11396.8382 -10519.1860 149.8496 -54.8489 12.2769 29359.6587 2.7479 2.6945
TCL: Running 100000 steps at 180 kelvin.
TCL: Setting parameter langevinTemp to 180
TCL: Running for 100000 steps
ETITLE: TS BOND ANGLE DIHED IMPRP ELECT VDW BOUNDARY MISC KINETIC TOTAL TEMP POTENTIAL TOTAL3 TEMPAVG PRESSURE GPRESSURE VOLUME PRESSAVG GPRESSAVG
ENERGY: 500000 1.8275 1.1176 2.8529 0.0000 -13687.4576 2284.8214 0.0000 0.0000 874.8135 -10522.0248 147.3807 -11396.8382 -10519.9277 147.3807 -30.4848 12.2390 29359.6587 -30.4848 12.2390
ENERGY: 600000 3.2592 0.8770 1.4167 0.0000 -13189.6104 2090.1580 0.0000 0.0000 1052.1033 -10041.7961 177.2489 -11093.8994 -10037.5675 179.6336 -515.0827 -377.2706 29095.9522 3.4895 3.4778
TCL: Running 100000 steps at 210 kelvin.
TCL: Setting parameter langevinTemp to 210
TCL: Running for 100000 steps
ETITLE: TS BOND ANGLE DIHED IMPRP ELECT VDW BOUNDARY MISC KINETIC TOTAL TEMP POTENTIAL TOTAL3 TEMPAVG PRESSURE GPRESSURE VOLUME PRESSAVG GPRESSAVG
ENERGY: 600000 3.2592 0.8770 1.4167 0.0000 -13189.6104 2090.1580 0.0000 0.0000 1051.5771 -10042.3223 177.1603 -11093.8994 -10040.0551 177.1603 -464.3264 -375.8425 29095.9522 -464.3264 -375.8425
ENERGY: 700000 2.8548 2.4214 2.7033 0.0000 -12513.5203 1900.3972 0.0000 0.0000 1268.0729 -9337.0706 213.6335 -10605.1435 -9336.0561 210.1599 -295.2316 -157.1708 29140.1127 3.0522 2.9099
TCL: Running 100000 steps at 240 kelvin.
TCL: Setting parameter langevinTemp to 240
TCL: Running for 100000 steps
ETITLE: TS BOND ANGLE DIHED IMPRP ELECT VDW BOUNDARY MISC KINETIC TOTAL TEMP POTENTIAL TOTAL3 TEMPAVG PRESSURE GPRESSURE VOLUME PRESSAVG GPRESSAVG
ENERGY: 700000 2.8548 2.4214 2.7033 0.0000 -12513.5203 1900.3972 0.0000 0.0000 1267.4623 -9337.6812 213.5306 -10605.1435 -9336.0568 213.5306 -247.9846 -157.3529 29140.1127 -247.9846 -157.3529
ENERGY: 800000 1.4728 1.6756 1.2700 0.0000 -11935.9744 1746.6487 0.0000 0.0000 1470.2552 -8714.6521 247.6954 -10184.9073 -8711.9624 240.2551 346.5378 453.9123 29091.6186 3.1491 3.1226
TCL: Running 100000 steps at 270 kelvin.
TCL: Setting parameter langevinTemp to 270
TCL: Running for 100000 steps
ETITLE: TS BOND ANGLE DIHED IMPRP ELECT VDW BOUNDARY MISC KINETIC TOTAL TEMP POTENTIAL TOTAL3 TEMPAVG PRESSURE GPRESSURE VOLUME PRESSAVG GPRESSAVG
ENERGY: 800000 1.4728 1.6756 1.2700 0.0000 -11935.9744 1746.6487 0.0000 0.0000 1469.5637 -8715.3436 247.5789 -10184.9073 -8712.8945 247.5789 367.9103 453.4454 29091.6186 367.9103 453.4454
ENERGY: 900000 2.1404 1.9324 0.9249 0.0000 -11406.2702 1614.1452 0.0000 0.0000 1568.2605 -8218.8668 264.2064 -9787.1273 -8215.1452 269.6232 131.7757 239.1229 29764.5198 4.2422 4.1264
TCL: Running 1000000 steps at 300 kelvin.
TCL: Setting parameter langevinTemp to 300
TCL: Running for 1000000 steps
ETITLE: TS BOND ANGLE DIHED IMPRP ELECT VDW BOUNDARY MISC KINETIC TOTAL TEMP POTENTIAL TOTAL3 TEMPAVG PRESSURE GPRESSURE VOLUME PRESSAVG GPRESSAVG
ENERGY: 900000 2.1404 1.9324 0.9249 0.0000 -11406.2702 1614.1452 0.0000 0.0000 1567.4490 -8219.6782 264.0697 -9787.1273 -8216.9758 264.0697 145.9127 240.1722 29764.5198 145.9127 240.1722
ENERGY: 1100000 3.8824 2.7335 5.1448 0.0000 -10923.1477 1497.5649 0.0000 0.0000 1768.3912 -7645.4309 297.9226 -9413.8221 -7642.0816 300.7929 303.2677 413.2786 30581.8064 2.7260 2.7080
ENERGY: 1300000 5.5334 2.3796 3.1741 0.0000 -10715.3016 1370.1520 0.0000 0.0000 1767.8145 -7566.2481 297.8255 -9334.0626 -7562.2089 299.8446 -686.8466 -563.2115 31191.6833 2.3512 2.3433
ENERGY: 1500000 5.3783 1.3595 1.7354 0.0000 -10747.0785 1373.3347 0.0000 0.0000 1851.8074 -7513.4631 311.9759 -9365.2705 -7509.3872 300.1626 -561.2907 -496.9772 30674.4916 3.7757 3.6375
ENERGY: 1700000 3.5982 1.7903 2.8388 0.0000 -10869.0358 1481.1606 0.0000 0.0000 1740.7732 -7638.8747 293.2698 -9379.6479 -7635.5795 299.7403 -194.0836 -113.8463 31335.8324 2.5594 2.4396
ENERGY: 1900000 2.7237 2.8655 1.7940 0.0000 -10739.2776 1441.5338 0.0000 0.0000 1814.1767 -7476.1838 305.6362 -9290.3606 -7471.5553 300.5792 -163.3522 -85.9333 31019.2173 3.2380 3.3673
TCL: Exiting due to exit command.
