Info: SIMULATION PARAMETERS:
Info: TIMESTEP               2
Info: NUMBER OF STEPS        0
Info: STEPS PER CYCLE        10
Info: PERIODIC CELL BASIS 1  34.986 0 0
Info: PERIODIC CELL BASIS 2  0 34.26 0
Info: PERIODIC CELL BASIS 3  0 0 36.199
Info: PERIODIC CELL CENTER   0 0 0
Info: WRAPPING WATERS AROUND PERIODIC BOUNDARIES ON OUTPUT.
Info: WRAPPING ALL CLUSTERS AROUND PERIODIC BOUNDARIES ON OUTPUT.
Info: FIRST LDB TIMESTEP     50
Info: LAST LDB TIMESTEP     -1
Info: HOM BACKGROUND SCALING 1
Info: PME BACKGROUND SCALING 1
Info: MIN ATOMS PER PATCH    40
Info: EMPTY PATCH LOAD       40 ATOMS
Info: INITIAL TEMPERATURE    300
Info: CENTER OF MASS MOVING INITIALLY? NO
Info: DIELECTRIC             1
Info: EXCLUDE                SCALED ONE-FOUR
Info: 1-4 ELECTROSTATICS SCALED BY 0.833333
Info: MODIFIED 1-4 VDW PARAMETERS WILL BE USED
Info: DCD FILENAME           mobley_4291494_equil.dcd
Info: DCD FREQUENCY          100000
Info: DCD FIRST STEP         100000
Info: DCD FILE WILL CONTAIN UNIT CELL DATA
Info: XST FILENAME           mobley_4291494_equil.xst
Info: XST FREQUENCY          100000
Info: NO VELOCITY DCD OUTPUT
Info: NO FORCE DCD OUTPUT
Info: OUTPUT FILENAME        mobley_4291494_equil
Info: BINARY OUTPUT FILES WILL BE USED
Info: RESTART FILENAME       mobley_4291494_equil.restart
Info: RESTART FREQUENCY      100000
Info: BINARY RESTART FILES WILL BE USED
Info: CUTOFF                 9
Info: PAIRLIST DISTANCE      11
Info: PAIRLIST SHRINK RATE   0.01
Info: PAIRLIST GROW RATE     0.01
Info: PAIRLIST TRIGGER       0.3
Info: PAIRLISTS PER CYCLE    2
Info: PAIRLISTS ENABLED
Info: MARGIN                 8
Info: HYDROGEN GROUP CUTOFF  2.5
Info: PATCH DIMENSION        21.5
Info: ENERGY OUTPUT STEPS    100000
Info: ENERGY EVALUATION STEPS    100000
Info: OUTPUT ENERGY PRECISION 4
Info: CROSSTERM ENERGY INCLUDED IN DIHEDRAL
Info: TIMING OUTPUT STEPS    1000000
Info: PRESSURE OUTPUT STEPS  100000
Info: LANGEVIN DYNAMICS ACTIVE
Info: LANGEVIN TEMPERATURE   30
Info: LANGEVIN USING BBK INTEGRATOR
Info: LANGEVIN DAMPING COEFFICIENT IS 1 INVERSE PS
Info: LANGEVIN DYNAMICS APPLIED TO HYDROGENS
Info: LANGEVIN PISTON PRESSURE CONTROL ACTIVE
Info:        TARGET PRESSURE IS 1.01325 BAR
Info:     OSCILLATION PERIOD IS 50 FS
Info:             DECAY TIME IS 25 FS
Info:     PISTON TEMPERATURE IS 300 K
Info:       PRESSURE CONTROL IS GROUP-BASED
Info:    INITIAL STRAIN RATE IS 0 0 0
Info:       CELL FLUCTUATION IS ISOTROPIC
Info: PARTICLE MESH EWALD (PME) ACTIVE
Info: PME TOLERANCE               1e-06
Info: PME EWALD COEFFICIENT       0.348832
Info: PME INTERPOLATION ORDER     4
Info: PME GRID DIMENSIONS         36 36 40
Info: PME MAXIMUM GRID SPACING    1
Info: FULL ELECTROSTATIC EVALUATION FREQUENCY      2
Info: USING VERLET I (r-RESPA) MTS SCHEME.
Info: C1 SPLITTING OF LONG RANGE ELECTROSTATICS
Info: PLACING ATOMS IN PATCHES BY HYDROGEN GROUPS
Info: RIGID BONDS TO HYDROGEN : ALL
Info:         ERROR TOLERANCE : 1e-08
Info:          MAX ITERATIONS : 100
Info: RIGID WATER USING SETTLE ALGORITHM
Info: RANDOM NUMBER SEED     1743161495
Info: USE HYDROGEN BONDS?    NO
Info: Using AMBER format force field!
Info: AMBER PARM FILE        mobley_4291494.prmtop
Info: COORDINATE PDB         mobley_4291494.pdb
Info: Exclusions will be read from PARM file!
Info: SCNB (VDW SCALING)     2
Info: USING ARITHMETIC MEAN TO COMBINE L-J SIGMA PARAMETERS
Info: BINARY COORDINATES     mobley_4291494_min.coor
Info: SUMMARY OF PARAMETERS:
Info: 7 BONDS
Info: 8 ANGLES
Info:   8 HARMONIC
Info:   0 COSINE-BASED
Info: 3 DIHEDRAL
Info: 0 IMPROPER
Info: 0 CROSSTERM
Info: 0 VDW
Info: 28 VDW_PAIRS
Info: 0 NBTHOLE_PAIRS
Info: STRUCTURE SUMMARY:
Info: 2960 ATOMS
Info: 2960 BONDS
Info: 16 ANGLES
Info: 25 DIHEDRALS
Info: 0 IMPROPERS
Info: 0 CROSSTERMS
Info: 2993 EXCLUSIONS
Info: 2953 RIGID BONDS
Info: 5927 DEGREES OF FREEDOM
Info: 990 HYDROGEN GROUPS
Info: 3 ATOMS IN LARGEST HYDROGEN GROUP
Info: 990 MIGRATION GROUPS
Info: 3 ATOMS IN LARGEST MIGRATION GROUP
Info: TOTAL MASS = 17823.3 amu
Info: TOTAL CHARGE = 9.99942e-05 e
Info: MASS DENSITY = 0.682132 g/cm^3
Info: ATOM DENSITY = 0.0682203 atoms/A^3
Info: ADDED 0 IMPLICIT EXCLUSIONS
Info: NONBONDED TABLE R-SQUARED SPACING: 0.0625
Info: NONBONDED TABLE SIZE: 705 POINTS
Info: REMOVING COM VELOCITY 0.200492 0.0485108 -0.130296
TCL: Running for 100000 steps
ETITLE: TS BOND ANGLE DIHED IMPRP ELECT VDW BOUNDARY MISC KINETIC TOTAL TEMP POTENTIAL TOTAL3 TEMPAVG PRESSURE GPRESSURE VOLUME PRESSAVG GPRESSAVG
ENERGY: 0 0.1670 0.2280 0.0750 0.0000 -13738.8790 2403.5357 0.0000 0.0000 1782.4869 -9552.3864 302.6787 -11334.8733 -9552.0561 302.6787 358.8340 391.7411 43388.8584 358.8340 391.7411
ENERGY: 100000 0.2149 0.6975 0.2964 0.0000 -14300.0290 2506.9657 0.0000 0.0000 178.0640 -11613.7904 30.2365 -11791.8544 -11613.5116 30.9155 106.0018 147.6339 29276.4790 4.0115 4.0392
TCL: Running 100000 steps at 60 kelvin.
TCL: Setting parameter langevinTemp to 60
TCL: Running for 100000 steps
ETITLE: TS BOND ANGLE DIHED IMPRP ELECT VDW BOUNDARY MISC KINETIC TOTAL TEMP POTENTIAL TOTAL3 TEMPAVG PRESSURE GPRESSURE VOLUME PRESSAVG GPRESSAVG
ENERGY: 100000 0.2149 0.6975 0.2964 0.0000 -14300.0290 2506.9657 0.0000 0.0000 177.9759 -11613.8786 30.2215 -11791.8544 -11613.5669 30.2215 106.9214 147.5294 29276.4790 106.9214 147.5294
ENERGY: 200000 0.3081 1.3736 0.6219 0.0000 -14262.6369 2559.2619 0.0000 0.0000 345.2295 -11355.8419 58.6224 -11701.0714 -11355.2448 60.0021 1194.1289 1211.4012 28887.3638 3.7833 3.8465
TCL: Running 100000 steps at 90 kelvin.
TCL: Setting parameter langevinTemp to 90
TCL: Running for 100000 steps
ETITLE: TS BOND ANGLE DIHED IMPRP ELECT VDW BOUNDARY MISC KINETIC TOTAL TEMP POTENTIAL TOTAL3 TEMPAVG PRESSURE GPRESSURE VOLUME PRESSAVG GPRESSAVG
ENERGY: 200000 0.3081 1.3736 0.6219 0.0000 -14262.6369 2559.2619 0.0000 0.0000 345.0535 -11356.0179 58.5925 -11701.0714 -11355.5389 58.5925 1170.7010 1211.4875 28887.3638 1170.7010 1211.4875
ENERGY: 300000 0.4976 1.1637 0.5147 0.0000 -13932.5497 2306.3318 0.0000 0.0000 526.9090 -11097.1330 89.4728 -11624.0420 -11095.7033 90.0520 -754.5922 -690.1059 29172.6314 3.0608 3.0437
TCL: Running 100000 steps at 120 kelvin.
TCL: Setting parameter langevinTemp to 120
TCL: Running for 100000 steps
ETITLE: TS BOND ANGLE DIHED IMPRP ELECT VDW BOUNDARY MISC KINETIC TOTAL TEMP POTENTIAL TOTAL3 TEMPAVG PRESSURE GPRESSURE VOLUME PRESSAVG GPRESSAVG
ENERGY: 300000 0.4976 1.1637 0.5147 0.0000 -13932.5497 2306.3318 0.0000 0.0000 526.6473 -11097.3947 89.4284 -11624.0420 -11096.3088 89.4284 -753.8350 -690.7553 29172.6314 -753.8350 -690.7553
ENERGY: 400000 0.4121 1.2592 1.2156 0.0000 -13738.4408 2229.4176 0.0000 0.0000 735.3131 -10770.8231 124.8613 -11506.1363 -10768.7016 120.1240 -949.9371 -903.2122 29191.6941 3.7175 3.6732
TCL: Running 100000 steps at 150 kelvin.
TCL: Setting parameter langevinTemp to 150
TCL: Running for 100000 steps
ETITLE: TS BOND ANGLE DIHED IMPRP ELECT VDW BOUNDARY MISC KINETIC TOTAL TEMP POTENTIAL TOTAL3 TEMPAVG PRESSURE GPRESSURE VOLUME PRESSAVG GPRESSAVG
ENERGY: 400000 0.4121 1.2592 1.2156 0.0000 -13738.4408 2229.4176 0.0000 0.0000 734.9488 -10771.1875 124.7994 -11506.1363 -10769.6564 124.7994 -942.8763 -901.7251 29191.6941 -942.8763 -901.7251
ENERGY: 500000 0.6076 1.0679 1.5113 0.0000 -13677.3218 2281.4197 0.0000 0.0000 884.1561 -10508.5592 150.1358 -11392.7153 -10506.6707 149.9783 -15.5823 46.7778 29032.3898 5.2237 4.9587
TCL: Running 100000 steps at 180 kelvin.
TCL: Setting parameter langevinTemp to 180
TCL: Running for 100000 steps
ETITLE: TS BOND ANGLE DIHED IMPRP ELECT VDW BOUNDARY MISC KINETIC TOTAL TEMP POTENTIAL TOTAL3 TEMPAVG PRESSURE GPRESSURE VOLUME PRESSAVG GPRESSAVG
ENERGY: 500000 0.6076 1.0679 1.5113 0.0000 -13677.3218 2281.4197 0.0000 0.0000 883.7247 -10508.9907 150.0626 -11392.7153 -10507.3043 150.0626 -7.1315 46.8066 29032.3898 -7.1315 46.8066
ENERGY: 600000 0.9550 2.0897 1.9630 0.0000 -13255.9969 2176.1349 0.0000 0.0000 1064.8596 -10009.9947 180.8206 -11074.8543 -10006.7357 180.2644 85.5861 159.1264 29229.4797 3.2315 3.1994
TCL: Running 100000 steps at 210 kelvin.
TCL: Setting parameter langevinTemp to 210
TCL: Running for 100000 steps
ETITLE: TS BOND ANGLE DIHED IMPRP ELECT VDW BOUNDARY MISC KINETIC TOTAL TEMP POTENTIAL TOTAL3 TEMPAVG PRESSURE GPRESSURE VOLUME PRESSAVG GPRESSAVG
ENERGY: 600000 0.9550 2.0897 1.9630 0.0000 -13255.9969 2176.1349 0.0000 0.0000 1064.3423 -10010.5120 180.7327 -11074.8543 -10008.8758 180.7327 101.6219 159.5492 29229.4797 101.6219 159.5492
ENERGY: 700000 0.6092 1.7871 1.1592 0.0000 -12500.7493 1891.0959 0.0000 0.0000 1203.3153 -9402.7827 204.3313 -10606.0979 -9400.6522 209.5989 -88.9229 -13.0205 28747.6637 4.8453 4.6731
TCL: Running 100000 steps at 240 kelvin.
TCL: Setting parameter langevinTemp to 240
TCL: Running for 100000 steps
ETITLE: TS BOND ANGLE DIHED IMPRP ELECT VDW BOUNDARY MISC KINETIC TOTAL TEMP POTENTIAL TOTAL3 TEMPAVG PRESSURE GPRESSURE VOLUME PRESSAVG GPRESSAVG
ENERGY: 700000 0.6092 1.7871 1.1592 0.0000 -12500.7493 1891.0959 0.0000 0.0000 1202.6932 -9403.4047 204.2257 -10606.0979 -9400.8881 204.2257 -99.4265 -14.3641 28747.6637 -99.4265 -14.3641
ENERGY: 800000 1.7548 3.6073 4.0385 0.0000 -11745.5862 1641.3111 0.0000 0.0000 1430.6144 -8664.2602 242.9283 -10094.8746 -8660.1122 239.3818 -680.7610 -614.5740 29476.6427 3.2680 3.2729
TCL: Running 100000 steps at 270 kelvin.
TCL: Setting parameter langevinTemp to 270
TCL: Running for 100000 steps
ETITLE: TS BOND ANGLE DIHED IMPRP ELECT VDW BOUNDARY MISC KINETIC TOTAL TEMP POTENTIAL TOTAL3 TEMPAVG PRESSURE GPRESSURE VOLUME PRESSAVG GPRESSAVG
ENERGY: 800000 1.7548 3.6073 4.0385 0.0000 -11745.5862 1641.3111 0.0000 0.0000 1429.9118 -8664.9628 242.8090 -10094.8746 -8662.2413 242.8090 -706.8313 -613.3396 29476.6427 -706.8313 -613.3396
ENERGY: 900000 2.6168 1.6424 2.3757 0.0000 -11430.3610 1629.9031 0.0000 0.0000 1605.2151 -8188.6078 272.5767 -9793.8230 -8186.3761 270.4691 75.1195 108.4386 29712.4833 3.8039 3.9063
TCL: Running 1000000 steps at 300 kelvin.
TCL: Setting parameter langevinTemp to 300
TCL: Running for 1000000 steps
ETITLE: TS BOND ANGLE DIHED IMPRP ELECT VDW BOUNDARY MISC KINETIC TOTAL TEMP POTENTIAL TOTAL3 TEMPAVG PRESSURE GPRESSURE VOLUME PRESSAVG GPRESSAVG
ENERGY: 900000 2.6168 1.6424 2.3757 0.0000 -11430.3610 1629.9031 0.0000 0.0000 1604.4289 -8189.3941 272.4432 -9793.8230 -8186.8798 272.4432 45.6479 106.6327 29712.4833 45.6479 106.6327
ENERGY: 1100000 2.6844 3.0496 1.4361 0.0000 -10692.2309 1421.5140 0.0000 0.0000 1715.6804 -7547.8664 291.3345 -9263.5468 -7541.3466 300.0866 -61.2487 87.0330 30140.3239 3.5161 3.4115
ENERGY: 1300000 1.4900 6.5973 2.8413 0.0000 -10863.1558 1565.9476 0.0000 0.0000 1749.0167 -7537.2629 296.9952 -9286.2796 -7536.7493 300.4880 984.2380 1067.9178 30307.3481 2.0338 1.9131
ENERGY: 1500000 2.4843 3.4948 3.1118 0.0000 -10729.3057 1472.1964 0.0000 0.0000 1780.8251 -7467.1932 302.3965 -9248.0184 -7464.2595 300.6266 318.0899 378.3413 30632.5989 2.3689 2.4005
ENERGY: 1700000 2.3427 1.9470 5.0758 0.0000 -10613.7881 1384.2248 0.0000 0.0000 1845.5514 -7374.6464 313.3875 -9220.1978 -7371.0311 300.5950 -485.3868 -377.1200 31043.3331 2.2060 2.0229
ENERGY: 1900000 2.7233 2.6224 0.8268 0.0000 -10749.9635 1454.6428 0.0000 0.0000 1811.0027 -7478.1455 307.5208 -9289.1483 -7475.1296 300.5673 -16.5042 116.6020 30582.2230 4.7453 4.5690
TCL: Exiting due to exit command.
