Info: SIMULATION PARAMETERS:
Info: TIMESTEP               2
Info: NUMBER OF STEPS        0
Info: STEPS PER CYCLE        10
Info: PERIODIC CELL BASIS 1  34.986 0 0
Info: PERIODIC CELL BASIS 2  0 33.399 0
Info: PERIODIC CELL BASIS 3  0 0 37.451
Info: PERIODIC CELL CENTER   0 0 0
Info: WRAPPING WATERS AROUND PERIODIC BOUNDARIES ON OUTPUT.
Info: WRAPPING ALL CLUSTERS AROUND PERIODIC BOUNDARIES ON OUTPUT.
Info: FIRST LDB TIMESTEP     50
Info: LAST LDB TIMESTEP     -1
Info: HOM BACKGROUND SCALING 1
Info: PME BACKGROUND SCALING 1
Info: MIN ATOMS PER PATCH    40
Info: EMPTY PATCH LOAD       40 ATOMS
Info: INITIAL TEMPERATURE    300
Info: CENTER OF MASS MOVING INITIALLY? NO
Info: DIELECTRIC             1
Info: EXCLUDE                SCALED ONE-FOUR
Info: 1-4 ELECTROSTATICS SCALED BY 0.833333
Info: MODIFIED 1-4 VDW PARAMETERS WILL BE USED
Info: DCD FILENAME           mobley_3969312_equil.dcd
Info: DCD FREQUENCY          100000
Info: DCD FIRST STEP         100000
Info: DCD FILE WILL CONTAIN UNIT CELL DATA
Info: XST FILENAME           mobley_3969312_equil.xst
Info: XST FREQUENCY          100000
Info: NO VELOCITY DCD OUTPUT
Info: NO FORCE DCD OUTPUT
Info: OUTPUT FILENAME        mobley_3969312_equil
Info: BINARY OUTPUT FILES WILL BE USED
Info: RESTART FILENAME       mobley_3969312_equil.restart
Info: RESTART FREQUENCY      100000
Info: BINARY RESTART FILES WILL BE USED
Info: CUTOFF                 9
Info: PAIRLIST DISTANCE      11
Info: PAIRLIST SHRINK RATE   0.01
Info: PAIRLIST GROW RATE     0.01
Info: PAIRLIST TRIGGER       0.3
Info: PAIRLISTS PER CYCLE    2
Info: PAIRLISTS ENABLED
Info: MARGIN                 8
Info: HYDROGEN GROUP CUTOFF  2.5
Info: PATCH DIMENSION        21.5
Info: ENERGY OUTPUT STEPS    100000
Info: ENERGY EVALUATION STEPS    100000
Info: OUTPUT ENERGY PRECISION 4
Info: CROSSTERM ENERGY INCLUDED IN DIHEDRAL
Info: TIMING OUTPUT STEPS    1000000
Info: PRESSURE OUTPUT STEPS  100000
Info: LANGEVIN DYNAMICS ACTIVE
Info: LANGEVIN TEMPERATURE   30
Info: LANGEVIN USING BBK INTEGRATOR
Info: LANGEVIN DAMPING COEFFICIENT IS 1 INVERSE PS
Info: LANGEVIN DYNAMICS APPLIED TO HYDROGENS
Info: LANGEVIN PISTON PRESSURE CONTROL ACTIVE
Info:        TARGET PRESSURE IS 1.01325 BAR
Info:     OSCILLATION PERIOD IS 50 FS
Info:             DECAY TIME IS 25 FS
Info:     PISTON TEMPERATURE IS 300 K
Info:       PRESSURE CONTROL IS GROUP-BASED
Info:    INITIAL STRAIN RATE IS 0 0 0
Info:       CELL FLUCTUATION IS ISOTROPIC
Info: PARTICLE MESH EWALD (PME) ACTIVE
Info: PME TOLERANCE               1e-06
Info: PME EWALD COEFFICIENT       0.348832
Info: PME INTERPOLATION ORDER     4
Info: PME GRID DIMENSIONS         36 36 40
Info: PME MAXIMUM GRID SPACING    1
Info: FULL ELECTROSTATIC EVALUATION FREQUENCY      2
Info: USING VERLET I (r-RESPA) MTS SCHEME.
Info: C1 SPLITTING OF LONG RANGE ELECTROSTATICS
Info: PLACING ATOMS IN PATCHES BY HYDROGEN GROUPS
Info: RIGID BONDS TO HYDROGEN : ALL
Info:         ERROR TOLERANCE : 1e-08
Info:          MAX ITERATIONS : 100
Info: RIGID WATER USING SETTLE ALGORITHM
Info: RANDOM NUMBER SEED     1743228082
Info: USE HYDROGEN BONDS?    NO
Info: Using AMBER format force field!
Info: AMBER PARM FILE        mobley_3969312.prmtop
Info: COORDINATE PDB         mobley_3969312.pdb
Info: Exclusions will be read from PARM file!
Info: SCNB (VDW SCALING)     2
Info: USING ARITHMETIC MEAN TO COMBINE L-J SIGMA PARAMETERS
Info: BINARY COORDINATES     mobley_3969312_min.coor
Info: SUMMARY OF PARAMETERS:
Info: 7 BONDS
Info: 6 ANGLES
Info:   6 HARMONIC
Info:   0 COSINE-BASED
Info: 4 DIHEDRAL
Info: 0 IMPROPER
Info: 0 CROSSTERM
Info: 0 VDW
Info: 21 VDW_PAIRS
Info: 0 NBTHOLE_PAIRS
Info: STRUCTURE SUMMARY:
Info: 2951 ATOMS
Info: 2951 BONDS
Info: 21 ANGLES
Info: 35 DIHEDRALS
Info: 0 IMPROPERS
Info: 0 CROSSTERMS
Info: 2997 EXCLUSIONS
Info: 2943 RIGID BONDS
Info: 5910 DEGREES OF FREEDOM
Info: 987 HYDROGEN GROUPS
Info: 3 ATOMS IN LARGEST HYDROGEN GROUP
Info: 987 MIGRATION GROUPS
Info: 3 ATOMS IN LARGEST MIGRATION GROUP
Info: TOTAL MASS = 17743.8 amu
Info: TOTAL CHARGE = 4.42378e-09 e
Info: MASS DENSITY = 0.673309 g/cm^3
Info: ATOM DENSITY = 0.0674339 atoms/A^3
Info: ADDED 0 IMPLICIT EXCLUSIONS
Info: NONBONDED TABLE R-SQUARED SPACING: 0.0625
Info: NONBONDED TABLE SIZE: 705 POINTS
Info: REMOVING COM VELOCITY 0.203285 -0.0360719 -0.0396924
TCL: Running for 100000 steps
ETITLE: TS BOND ANGLE DIHED IMPRP ELECT VDW BOUNDARY MISC KINETIC TOTAL TEMP POTENTIAL TOTAL3 TEMPAVG PRESSURE GPRESSURE VOLUME PRESSAVG GPRESSAVG
ENERGY: 0 0.2156 0.0506 0.3290 0.0000 -13672.3414 2428.5937 0.0000 0.0000 1766.0737 -9477.0787 300.7542 -11243.1524 -9476.7440 300.7542 598.2717 629.5914 43761.3967 598.2717 629.5914
ENERGY: 100000 0.1517 0.3325 0.4833 0.0000 -14291.8074 2569.3694 0.0000 0.0000 175.2658 -11546.2047 29.8470 -11721.4705 -11545.8850 30.9354 824.5681 888.3889 28580.0429 4.5085 4.4693
TCL: Running 100000 steps at 60 kelvin.
TCL: Setting parameter langevinTemp to 60
TCL: Running for 100000 steps
ETITLE: TS BOND ANGLE DIHED IMPRP ELECT VDW BOUNDARY MISC KINETIC TOTAL TEMP POTENTIAL TOTAL3 TEMPAVG PRESSURE GPRESSURE VOLUME PRESSAVG GPRESSAVG
ENERGY: 100000 0.1517 0.3325 0.4833 0.0000 -14291.8074 2569.3694 0.0000 0.0000 175.1746 -11546.2959 29.8314 -11721.4705 -11545.9890 29.8314 834.8007 888.3525 28580.0429 834.8007 888.3525
ENERGY: 200000 0.4615 1.1577 0.5987 0.0000 -14056.8459 2374.4648 0.0000 0.0000 346.9476 -11333.2156 59.0836 -11680.1631 -11332.5366 59.9075 -464.7431 -414.5128 28517.2476 5.1117 5.1918
TCL: Running 100000 steps at 90 kelvin.
TCL: Setting parameter langevinTemp to 90
TCL: Running for 100000 steps
ETITLE: TS BOND ANGLE DIHED IMPRP ELECT VDW BOUNDARY MISC KINETIC TOTAL TEMP POTENTIAL TOTAL3 TEMPAVG PRESSURE GPRESSURE VOLUME PRESSAVG GPRESSAVG
ENERGY: 200000 0.4615 1.1577 0.5987 0.0000 -14056.8459 2374.4648 0.0000 0.0000 346.7680 -11333.3952 59.0530 -11680.1631 -11332.6248 59.0530 -469.5317 -414.4667 28517.2476 -469.5317 -414.4667
ENERGY: 300000 0.8447 0.9877 0.3257 0.0000 -14096.0166 2472.3915 0.0000 0.0000 527.3480 -11094.1188 89.8049 -11621.4669 -11092.6659 89.8957 513.6043 537.4719 28429.6721 3.3877 3.4394
TCL: Running 100000 steps at 120 kelvin.
TCL: Setting parameter langevinTemp to 120
TCL: Running for 100000 steps
ETITLE: TS BOND ANGLE DIHED IMPRP ELECT VDW BOUNDARY MISC KINETIC TOTAL TEMP POTENTIAL TOTAL3 TEMPAVG PRESSURE GPRESSURE VOLUME PRESSAVG GPRESSAVG
ENERGY: 300000 0.8447 0.9877 0.3257 0.0000 -14096.0166 2472.3915 0.0000 0.0000 527.0641 -11094.4028 89.7566 -11621.4669 -11093.1958 89.7566 488.8947 536.9846 28429.6721 488.8947 536.9846
ENERGY: 400000 0.9466 1.3259 1.3180 0.0000 -13937.9882 2459.3359 0.0000 0.0000 712.3420 -10762.7198 121.3086 -11475.0618 -10760.6053 120.0293 725.6969 762.9292 28726.8419 3.6073 3.5549
TCL: Running 100000 steps at 150 kelvin.
TCL: Setting parameter langevinTemp to 150
TCL: Running for 100000 steps
ETITLE: TS BOND ANGLE DIHED IMPRP ELECT VDW BOUNDARY MISC KINETIC TOTAL TEMP POTENTIAL TOTAL3 TEMPAVG PRESSURE GPRESSURE VOLUME PRESSAVG GPRESSAVG
ENERGY: 400000 0.9466 1.3259 1.3180 0.0000 -13937.9882 2459.3359 0.0000 0.0000 711.9867 -10763.0751 121.2481 -11475.0618 -10761.4250 121.2481 724.0747 762.3077 28726.8419 724.0747 762.3077
ENERGY: 500000 1.1035 2.4611 0.9719 0.0000 -13618.8471 2299.6579 0.0000 0.0000 904.7745 -10409.8782 154.0789 -11314.6527 -10406.9364 149.9354 100.1176 173.5065 29190.3427 3.8044 3.7273
TCL: Running 100000 steps at 180 kelvin.
TCL: Setting parameter langevinTemp to 180
TCL: Running for 100000 steps
ETITLE: TS BOND ANGLE DIHED IMPRP ELECT VDW BOUNDARY MISC KINETIC TOTAL TEMP POTENTIAL TOTAL3 TEMPAVG PRESSURE GPRESSURE VOLUME PRESSAVG GPRESSAVG
ENERGY: 500000 1.1035 2.4611 0.9719 0.0000 -13618.8471 2299.6579 0.0000 0.0000 904.3233 -10410.3293 154.0021 -11314.6527 -10408.5778 154.0021 119.9436 173.6063 29190.3427 119.9436 173.6063
ENERGY: 600000 0.5533 1.9849 0.8439 0.0000 -13113.9432 2119.5548 0.0000 0.0000 1068.8073 -9922.1991 182.0130 -10991.0064 -9919.9789 180.3122 -83.2162 -64.2221 29012.7030 3.9050 3.9474
TCL: Running 100000 steps at 210 kelvin.
TCL: Setting parameter langevinTemp to 210
TCL: Running for 100000 steps
ETITLE: TS BOND ANGLE DIHED IMPRP ELECT VDW BOUNDARY MISC KINETIC TOTAL TEMP POTENTIAL TOTAL3 TEMPAVG PRESSURE GPRESSURE VOLUME PRESSAVG GPRESSAVG
ENERGY: 600000 0.5533 1.9849 0.8439 0.0000 -13113.9432 2119.5548 0.0000 0.0000 1068.2802 -9922.7262 181.9232 -10991.0064 -9920.8843 181.9232 -123.6437 -64.1401 29012.7030 -123.6437 -64.1401
ENERGY: 700000 1.0721 3.7620 2.3576 0.0000 -12370.0980 1815.9399 0.0000 0.0000 1232.6003 -9314.3661 209.9062 -10546.9664 -9311.0847 209.7808 -849.3121 -703.5413 28698.7070 1.4926 1.6364
TCL: Running 100000 steps at 240 kelvin.
TCL: Setting parameter langevinTemp to 240
TCL: Running for 100000 steps
ETITLE: TS BOND ANGLE DIHED IMPRP ELECT VDW BOUNDARY MISC KINETIC TOTAL TEMP POTENTIAL TOTAL3 TEMPAVG PRESSURE GPRESSURE VOLUME PRESSAVG GPRESSAVG
ENERGY: 700000 1.0721 3.7620 2.3576 0.0000 -12370.0980 1815.9399 0.0000 0.0000 1231.9954 -9314.9710 209.8031 -10546.9664 -9312.3436 209.8031 -781.9399 -702.9569 28698.7070 -781.9399 -702.9569
ENERGY: 800000 1.4843 1.1782 3.1373 0.0000 -11742.3635 1672.5516 0.0000 0.0000 1373.8808 -8690.1312 233.9656 -10064.0120 -8685.5500 239.4681 -55.9821 8.3196 28631.0279 4.6076 4.7823
TCL: Running 100000 steps at 270 kelvin.
TCL: Setting parameter langevinTemp to 270
TCL: Running for 100000 steps
ETITLE: TS BOND ANGLE DIHED IMPRP ELECT VDW BOUNDARY MISC KINETIC TOTAL TEMP POTENTIAL TOTAL3 TEMPAVG PRESSURE GPRESSURE VOLUME PRESSAVG GPRESSAVG
ENERGY: 800000 1.4843 1.1782 3.1373 0.0000 -11742.3635 1672.5516 0.0000 0.0000 1373.1980 -8690.8140 233.8493 -10064.0120 -8688.1677 233.8493 -68.7283 8.7929 28631.0279 -68.7283 8.7929
ENERGY: 900000 4.2126 4.9946 2.0107 0.0000 -11316.6893 1696.5658 0.0000 0.0000 1607.0658 -8001.8398 273.6759 -9608.9056 -7998.6406 270.4476 1336.9264 1409.0456 29231.7174 2.6848 2.7911
TCL: Running 1000000 steps at 300 kelvin.
TCL: Setting parameter langevinTemp to 300
TCL: Running for 1000000 steps
ETITLE: TS BOND ANGLE DIHED IMPRP ELECT VDW BOUNDARY MISC KINETIC TOTAL TEMP POTENTIAL TOTAL3 TEMPAVG PRESSURE GPRESSURE VOLUME PRESSAVG GPRESSAVG
ENERGY: 900000 4.2126 4.9946 2.0107 0.0000 -11316.6893 1696.5658 0.0000 0.0000 1606.2755 -8002.6301 273.5413 -9608.9056 -8000.8019 273.5413 1325.2535 1410.0233 29231.7174 1325.2535 1410.0233
ENERGY: 1100000 0.9431 1.0856 1.5671 0.0000 -10778.2916 1466.6150 0.0000 0.0000 1850.6032 -7457.4776 315.1492 -9308.0808 -7451.4345 300.5588 173.4735 273.4567 30417.5995 2.3943 2.3778
ENERGY: 1300000 2.4061 3.7642 1.0782 0.0000 -10808.2135 1560.1408 0.0000 0.0000 1778.7501 -7462.0741 302.9129 -9240.8242 -7458.0481 300.5471 1274.0762 1334.0442 29873.0830 3.7599 3.5514
ENERGY: 1500000 4.4224 4.1266 2.9418 0.0000 -10675.0376 1405.6616 0.0000 0.0000 1736.0493 -7521.8358 295.6412 -9257.8851 -7519.0198 300.4454 -604.3959 -509.8167 30640.0406 4.8238 4.5964
ENERGY: 1700000 3.7367 2.2442 6.3522 0.0000 -10745.4062 1455.1978 0.0000 0.0000 1737.3841 -7540.4911 295.8685 -9277.8752 -7537.8262 300.7165 109.1265 184.6189 29996.9237 2.7988 2.7714
ENERGY: 1900000 5.8221 2.3843 1.9993 0.0000 -10691.9773 1396.7878 0.0000 0.0000 1773.7241 -7511.2597 302.0570 -9284.9838 -7509.3046 299.7226 -278.0520 -268.5329 30373.8587 4.4372 4.3589
TCL: Exiting due to exit command.
