Info: SIMULATION PARAMETERS:
Info: TIMESTEP               2
Info: NUMBER OF STEPS        0
Info: STEPS PER CYCLE        10
Info: PERIODIC CELL BASIS 1  33.943 0 0
Info: PERIODIC CELL BASIS 2  0 34.26 0
Info: PERIODIC CELL BASIS 3  0 0 37.195
Info: PERIODIC CELL CENTER   0 0 0
Info: WRAPPING WATERS AROUND PERIODIC BOUNDARIES ON OUTPUT.
Info: WRAPPING ALL CLUSTERS AROUND PERIODIC BOUNDARIES ON OUTPUT.
Info: FIRST LDB TIMESTEP     50
Info: LAST LDB TIMESTEP     -1
Info: HOM BACKGROUND SCALING 1
Info: PME BACKGROUND SCALING 1
Info: MIN ATOMS PER PATCH    40
Info: EMPTY PATCH LOAD       40 ATOMS
Info: INITIAL TEMPERATURE    300
Info: CENTER OF MASS MOVING INITIALLY? NO
Info: DIELECTRIC             1
Info: EXCLUDE                SCALED ONE-FOUR
Info: 1-4 ELECTROSTATICS SCALED BY 0.833333
Info: MODIFIED 1-4 VDW PARAMETERS WILL BE USED
Info: DCD FILENAME           mobley_9114381_equil.dcd
Info: DCD FREQUENCY          100000
Info: DCD FIRST STEP         100000
Info: DCD FILE WILL CONTAIN UNIT CELL DATA
Info: XST FILENAME           mobley_9114381_equil.xst
Info: XST FREQUENCY          100000
Info: NO VELOCITY DCD OUTPUT
Info: NO FORCE DCD OUTPUT
Info: OUTPUT FILENAME        mobley_9114381_equil
Info: BINARY OUTPUT FILES WILL BE USED
Info: RESTART FILENAME       mobley_9114381_equil.restart
Info: RESTART FREQUENCY      100000
Info: BINARY RESTART FILES WILL BE USED
Info: CUTOFF                 9
Info: PAIRLIST DISTANCE      11
Info: PAIRLIST SHRINK RATE   0.01
Info: PAIRLIST GROW RATE     0.01
Info: PAIRLIST TRIGGER       0.3
Info: PAIRLISTS PER CYCLE    2
Info: PAIRLISTS ENABLED
Info: MARGIN                 8
Info: HYDROGEN GROUP CUTOFF  2.5
Info: PATCH DIMENSION        21.5
Info: ENERGY OUTPUT STEPS    100000
Info: ENERGY EVALUATION STEPS    100000
Info: OUTPUT ENERGY PRECISION 4
Info: CROSSTERM ENERGY INCLUDED IN DIHEDRAL
Info: TIMING OUTPUT STEPS    1000000
Info: PRESSURE OUTPUT STEPS  100000
Info: LANGEVIN DYNAMICS ACTIVE
Info: LANGEVIN TEMPERATURE   30
Info: LANGEVIN USING BBK INTEGRATOR
Info: LANGEVIN DAMPING COEFFICIENT IS 1 INVERSE PS
Info: LANGEVIN DYNAMICS APPLIED TO HYDROGENS
Info: LANGEVIN PISTON PRESSURE CONTROL ACTIVE
Info:        TARGET PRESSURE IS 1.01325 BAR
Info:     OSCILLATION PERIOD IS 50 FS
Info:             DECAY TIME IS 25 FS
Info:     PISTON TEMPERATURE IS 300 K
Info:       PRESSURE CONTROL IS GROUP-BASED
Info:    INITIAL STRAIN RATE IS 0 0 0
Info:       CELL FLUCTUATION IS ISOTROPIC
Info: PARTICLE MESH EWALD (PME) ACTIVE
Info: PME TOLERANCE               1e-06
Info: PME EWALD COEFFICIENT       0.348832
Info: PME INTERPOLATION ORDER     4
Info: PME GRID DIMENSIONS         36 36 40
Info: PME MAXIMUM GRID SPACING    1
Info: FULL ELECTROSTATIC EVALUATION FREQUENCY      2
Info: USING VERLET I (r-RESPA) MTS SCHEME.
Info: C1 SPLITTING OF LONG RANGE ELECTROSTATICS
Info: PLACING ATOMS IN PATCHES BY HYDROGEN GROUPS
Info: RIGID BONDS TO HYDROGEN : ALL
Info:         ERROR TOLERANCE : 1e-08
Info:          MAX ITERATIONS : 100
Info: RIGID WATER USING SETTLE ALGORITHM
Info: RANDOM NUMBER SEED     1743226513
Info: USE HYDROGEN BONDS?    NO
Info: Using AMBER format force field!
Info: AMBER PARM FILE        mobley_9114381.prmtop
Info: COORDINATE PDB         mobley_9114381.pdb
Info: Exclusions will be read from PARM file!
Info: SCNB (VDW SCALING)     2
Info: USING ARITHMETIC MEAN TO COMBINE L-J SIGMA PARAMETERS
Info: BINARY COORDINATES     mobley_9114381_min.coor
Info: SUMMARY OF PARAMETERS:
Info: 10 BONDS
Info: 11 ANGLES
Info:   11 HARMONIC
Info:   0 COSINE-BASED
Info: 10 DIHEDRAL
Info: 0 IMPROPER
Info: 0 CROSSTERM
Info: 0 VDW
Info: 55 VDW_PAIRS
Info: 0 NBTHOLE_PAIRS
Info: STRUCTURE SUMMARY:
Info: 2937 ATOMS
Info: 2936 BONDS
Info: 17 ANGLES
Info: 22 DIHEDRALS
Info: 0 IMPROPERS
Info: 0 CROSSTERMS
Info: 2967 EXCLUSIONS
Info: 2930 RIGID BONDS
Info: 5881 DEGREES OF FREEDOM
Info: 982 HYDROGEN GROUPS
Info: 4 ATOMS IN LARGEST HYDROGEN GROUP
Info: 982 MIGRATION GROUPS
Info: 4 ATOMS IN LARGEST MIGRATION GROUP
Info: TOTAL MASS = 17664.7 amu
Info: TOTAL CHARGE = -0.000200007 e
Info: MASS DENSITY = 0.678177 g/cm^3
Info: ATOM DENSITY = 0.0679019 atoms/A^3
Info: ADDED 0 IMPLICIT EXCLUSIONS
Info: NONBONDED TABLE R-SQUARED SPACING: 0.0625
Info: NONBONDED TABLE SIZE: 705 POINTS
Info: REMOVING COM VELOCITY 0.0162704 -0.188416 -0.0509518
TCL: Running for 100000 steps
ETITLE: TS BOND ANGLE DIHED IMPRP ELECT VDW BOUNDARY MISC KINETIC TOTAL TEMP POTENTIAL TOTAL3 TEMPAVG PRESSURE GPRESSURE VOLUME PRESSAVG GPRESSAVG
ENERGY: 0 0.0948 0.2514 1.4700 0.0000 -13551.5030 2356.5371 0.0000 0.0000 1799.4258 -9393.7239 307.9450 -11193.1497 -9393.3529 307.9450 407.5818 443.6835 43253.5887 407.5818 443.6835
ENERGY: 100000 0.9943 0.9997 1.8034 0.0000 -14093.6719 2361.9387 0.0000 0.0000 171.0584 -11556.8774 29.2741 -11727.9358 -11556.2973 30.9164 -729.7831 -663.9084 28723.6030 3.5771 3.6414
TCL: Running 100000 steps at 60 kelvin.
TCL: Setting parameter langevinTemp to 60
TCL: Running for 100000 steps
ETITLE: TS BOND ANGLE DIHED IMPRP ELECT VDW BOUNDARY MISC KINETIC TOTAL TEMP POTENTIAL TOTAL3 TEMPAVG PRESSURE GPRESSURE VOLUME PRESSAVG GPRESSAVG
ENERGY: 100000 0.9943 0.9997 1.8034 0.0000 -14093.6719 2361.9387 0.0000 0.0000 170.9725 -11556.9633 29.2594 -11727.9358 -11556.6003 29.2594 -719.0771 -663.5816 28723.6030 -719.0771 -663.5816
ENERGY: 200000 0.9507 0.5640 1.8960 0.0000 -14045.1254 2378.3432 0.0000 0.0000 352.4574 -11310.9141 60.3178 -11663.3715 -11310.1255 60.0904 -128.4790 -94.0531 28229.2934 5.0630 5.0397
TCL: Running 100000 steps at 90 kelvin.
TCL: Setting parameter langevinTemp to 90
TCL: Running for 100000 steps
ETITLE: TS BOND ANGLE DIHED IMPRP ELECT VDW BOUNDARY MISC KINETIC TOTAL TEMP POTENTIAL TOTAL3 TEMPAVG PRESSURE GPRESSURE VOLUME PRESSAVG GPRESSAVG
ENERGY: 200000 0.9507 0.5640 1.8960 0.0000 -14045.1254 2378.3432 0.0000 0.0000 352.2894 -11311.0821 60.2891 -11663.3715 -11310.1727 60.2891 -144.7232 -94.7283 28229.2934 -144.7232 -94.7283
ENERGY: 300000 1.5214 1.4176 2.2146 0.0000 -13817.8934 2242.2580 0.0000 0.0000 533.8798 -11036.6019 91.3656 -11570.4818 -11035.3111 90.0468 -926.0453 -860.6451 28569.7408 3.6259 3.5992
TCL: Running 100000 steps at 120 kelvin.
TCL: Setting parameter langevinTemp to 120
TCL: Running for 100000 steps
ETITLE: TS BOND ANGLE DIHED IMPRP ELECT VDW BOUNDARY MISC KINETIC TOTAL TEMP POTENTIAL TOTAL3 TEMPAVG PRESSURE GPRESSURE VOLUME PRESSAVG GPRESSAVG
ENERGY: 300000 1.5214 1.4176 2.2146 0.0000 -13817.8934 2242.2580 0.0000 0.0000 533.6077 -11036.8740 91.3190 -11570.4818 -11035.5523 91.3190 -905.5812 -860.5968 28569.7408 -905.5812 -860.5968
ENERGY: 400000 0.5183 1.6366 2.1282 0.0000 -13765.2697 2349.5427 0.0000 0.0000 721.3280 -10690.1159 123.4446 -11411.4439 -10688.7348 120.1565 317.5355 392.8877 28465.2174 4.1823 4.0843
TCL: Running 100000 steps at 150 kelvin.
TCL: Setting parameter langevinTemp to 150
TCL: Running for 100000 steps
ETITLE: TS BOND ANGLE DIHED IMPRP ELECT VDW BOUNDARY MISC KINETIC TOTAL TEMP POTENTIAL TOTAL3 TEMPAVG PRESSURE GPRESSURE VOLUME PRESSAVG GPRESSAVG
ENERGY: 400000 0.5183 1.6366 2.1282 0.0000 -13765.2697 2349.5427 0.0000 0.0000 720.9698 -10690.4741 123.3833 -11411.4439 -10689.0942 123.3833 341.3609 392.3182 28465.2174 341.3609 392.3182
ENERGY: 500000 1.0905 2.0815 1.8114 0.0000 -13498.1496 2245.4189 0.0000 0.0000 879.1980 -10368.5492 150.4617 -11247.7471 -10366.6172 150.4315 24.1959 77.6375 28641.1385 3.1593 3.2679
TCL: Running 100000 steps at 180 kelvin.
TCL: Setting parameter langevinTemp to 180
TCL: Running for 100000 steps
ETITLE: TS BOND ANGLE DIHED IMPRP ELECT VDW BOUNDARY MISC KINETIC TOTAL TEMP POTENTIAL TOTAL3 TEMPAVG PRESSURE GPRESSURE VOLUME PRESSAVG GPRESSAVG
ENERGY: 500000 1.0905 2.0815 1.8114 0.0000 -13498.1496 2245.4189 0.0000 0.0000 878.7715 -10368.9756 150.3887 -11247.7471 -10366.9030 150.3887 20.1193 77.1492 28641.1385 20.1193 77.1492
ENERGY: 600000 3.1013 1.7507 3.3196 0.0000 -12962.3823 2029.0201 0.0000 0.0000 1039.6019 -9885.5887 177.9124 -10925.1907 -9881.9473 180.4955 -488.7713 -377.3538 28662.0062 3.8251 3.7966
TCL: Running 100000 steps at 210 kelvin.
TCL: Setting parameter langevinTemp to 210
TCL: Running for 100000 steps
ETITLE: TS BOND ANGLE DIHED IMPRP ELECT VDW BOUNDARY MISC KINETIC TOTAL TEMP POTENTIAL TOTAL3 TEMPAVG PRESSURE GPRESSURE VOLUME PRESSAVG GPRESSAVG
ENERGY: 600000 3.1013 1.7507 3.3196 0.0000 -12962.3823 2029.0201 0.0000 0.0000 1039.0973 -9886.0934 177.8261 -10925.1907 -9884.1677 177.8261 -448.4669 -376.5051 28662.0062 -448.4669 -376.5051
ENERGY: 700000 1.5003 2.0464 1.6766 0.0000 -12410.8867 1871.9308 0.0000 0.0000 1207.3856 -9326.3470 206.6261 -10533.7326 -9323.3565 210.2728 -74.3650 -41.6936 28408.1846 4.8102 5.0615
TCL: Running 100000 steps at 240 kelvin.
TCL: Setting parameter langevinTemp to 240
TCL: Running for 100000 steps
ETITLE: TS BOND ANGLE DIHED IMPRP ELECT VDW BOUNDARY MISC KINETIC TOTAL TEMP POTENTIAL TOTAL3 TEMPAVG PRESSURE GPRESSURE VOLUME PRESSAVG GPRESSAVG
ENERGY: 700000 1.5003 2.0464 1.6766 0.0000 -12410.8867 1871.9308 0.0000 0.0000 1206.7579 -9326.9747 206.5187 -10533.7326 -9324.7639 206.5187 -109.9113 -41.0545 28408.1846 -109.9113 -41.0545
ENERGY: 800000 1.9567 4.0743 2.4087 0.0000 -11824.2571 1729.6789 0.0000 0.0000 1455.7839 -8630.3546 249.1358 -10086.1385 -8627.2431 239.6881 379.0592 462.7102 28627.0139 2.4522 2.4061
TCL: Running 100000 steps at 270 kelvin.
TCL: Setting parameter langevinTemp to 270
TCL: Running for 100000 steps
ETITLE: TS BOND ANGLE DIHED IMPRP ELECT VDW BOUNDARY MISC KINETIC TOTAL TEMP POTENTIAL TOTAL3 TEMPAVG PRESSURE GPRESSURE VOLUME PRESSAVG GPRESSAVG
ENERGY: 800000 1.9567 4.0743 2.4087 0.0000 -11824.2571 1729.6789 0.0000 0.0000 1455.1066 -8631.0319 249.0199 -10086.1385 -8628.9744 249.0199 376.3252 463.5380 28627.0139 376.3252 463.5380
ENERGY: 900000 1.7407 3.8108 1.6973 0.0000 -11274.0904 1569.7087 0.0000 0.0000 1572.6681 -8124.4648 269.1388 -9697.1329 -8121.2676 270.1930 -209.2007 -139.8067 29727.6858 3.9687 3.9833
TCL: Running 1000000 steps at 300 kelvin.
TCL: Setting parameter langevinTemp to 300
TCL: Running for 1000000 steps
ETITLE: TS BOND ANGLE DIHED IMPRP ELECT VDW BOUNDARY MISC KINETIC TOTAL TEMP POTENTIAL TOTAL3 TEMPAVG PRESSURE GPRESSURE VOLUME PRESSAVG GPRESSAVG
ENERGY: 900000 1.7407 3.8108 1.6973 0.0000 -11274.0904 1569.7087 0.0000 0.0000 1571.8871 -8125.2458 269.0051 -9697.1329 -8121.9727 269.0051 -221.7240 -140.8062 29727.6858 -221.7240 -140.8062
ENERGY: 1100000 1.6944 3.6932 2.1479 0.0000 -10571.7185 1373.9242 0.0000 0.0000 1700.1212 -7490.1377 290.9505 -9190.2588 -7486.9240 300.5541 -426.0953 -344.2579 30555.6305 3.3747 3.4949
ENERGY: 1300000 1.9070 5.8836 1.0720 0.0000 -10768.6757 1430.9290 0.0000 0.0000 1787.6352 -7541.2490 305.9272 -9328.8842 -7537.4051 300.0966 -366.3489 -306.0345 30439.4447 3.0772 3.1209
ENERGY: 1500000 1.3476 2.7013 1.8073 0.0000 -10592.5099 1404.6706 0.0000 0.0000 1699.9243 -7482.0589 290.9168 -9181.9832 -7480.0287 299.8018 123.0919 170.6470 30031.9602 3.2092 3.2116
ENERGY: 1700000 1.1298 3.6383 2.3015 0.0000 -10739.6123 1471.1862 0.0000 0.0000 1733.0751 -7528.2814 296.5901 -9261.3565 -7525.3219 300.0471 268.1807 349.9126 30141.7761 3.3010 3.4355
ENERGY: 1900000 1.3958 3.9992 2.5232 0.0000 -10579.8519 1315.1782 0.0000 0.0000 1770.9997 -7485.7558 303.0803 -9256.7555 -7480.2132 300.6558 -787.9047 -736.3027 30035.7297 4.3838 4.5296
TCL: Exiting due to exit command.
