Info: SIMULATION PARAMETERS:
Info: TIMESTEP               2
Info: NUMBER OF STEPS        0
Info: STEPS PER CYCLE        10
Info: PERIODIC CELL BASIS 1  31.707 0 0
Info: PERIODIC CELL BASIS 2  0 35.779 0
Info: PERIODIC CELL BASIS 3  0 0 39.271
Info: PERIODIC CELL CENTER   0 0 0
Info: WRAPPING WATERS AROUND PERIODIC BOUNDARIES ON OUTPUT.
Info: WRAPPING ALL CLUSTERS AROUND PERIODIC BOUNDARIES ON OUTPUT.
Info: FIRST LDB TIMESTEP     50
Info: LAST LDB TIMESTEP     -1
Info: HOM BACKGROUND SCALING 1
Info: PME BACKGROUND SCALING 1
Info: MIN ATOMS PER PATCH    40
Info: EMPTY PATCH LOAD       40 ATOMS
Info: INITIAL TEMPERATURE    300
Info: CENTER OF MASS MOVING INITIALLY? NO
Info: DIELECTRIC             1
Info: EXCLUDE                SCALED ONE-FOUR
Info: 1-4 ELECTROSTATICS SCALED BY 0.833333
Info: MODIFIED 1-4 VDW PARAMETERS WILL BE USED
Info: DCD FILENAME           mobley_3378420_equil.dcd
Info: DCD FREQUENCY          100000
Info: DCD FIRST STEP         100000
Info: DCD FILE WILL CONTAIN UNIT CELL DATA
Info: XST FILENAME           mobley_3378420_equil.xst
Info: XST FREQUENCY          100000
Info: NO VELOCITY DCD OUTPUT
Info: NO FORCE DCD OUTPUT
Info: OUTPUT FILENAME        mobley_3378420_equil
Info: BINARY OUTPUT FILES WILL BE USED
Info: RESTART FILENAME       mobley_3378420_equil.restart
Info: RESTART FREQUENCY      100000
Info: BINARY RESTART FILES WILL BE USED
Info: CUTOFF                 9
Info: PAIRLIST DISTANCE      11
Info: PAIRLIST SHRINK RATE   0.01
Info: PAIRLIST GROW RATE     0.01
Info: PAIRLIST TRIGGER       0.3
Info: PAIRLISTS PER CYCLE    2
Info: PAIRLISTS ENABLED
Info: MARGIN                 8
Info: HYDROGEN GROUP CUTOFF  2.5
Info: PATCH DIMENSION        21.5
Info: ENERGY OUTPUT STEPS    100000
Info: ENERGY EVALUATION STEPS    100000
Info: OUTPUT ENERGY PRECISION 4
Info: CROSSTERM ENERGY INCLUDED IN DIHEDRAL
Info: TIMING OUTPUT STEPS    1000000
Info: PRESSURE OUTPUT STEPS  100000
Info: LANGEVIN DYNAMICS ACTIVE
Info: LANGEVIN TEMPERATURE   30
Info: LANGEVIN USING BBK INTEGRATOR
Info: LANGEVIN DAMPING COEFFICIENT IS 1 INVERSE PS
Info: LANGEVIN DYNAMICS APPLIED TO HYDROGENS
Info: LANGEVIN PISTON PRESSURE CONTROL ACTIVE
Info:        TARGET PRESSURE IS 1.01325 BAR
Info:     OSCILLATION PERIOD IS 50 FS
Info:             DECAY TIME IS 25 FS
Info:     PISTON TEMPERATURE IS 300 K
Info:       PRESSURE CONTROL IS GROUP-BASED
Info:    INITIAL STRAIN RATE IS 0 0 0
Info:       CELL FLUCTUATION IS ISOTROPIC
Info: PARTICLE MESH EWALD (PME) ACTIVE
Info: PME TOLERANCE               1e-06
Info: PME EWALD COEFFICIENT       0.348832
Info: PME INTERPOLATION ORDER     4
Info: PME GRID DIMENSIONS         32 36 40
Info: PME MAXIMUM GRID SPACING    1
Info: FULL ELECTROSTATIC EVALUATION FREQUENCY      2
Info: USING VERLET I (r-RESPA) MTS SCHEME.
Info: C1 SPLITTING OF LONG RANGE ELECTROSTATICS
Info: PLACING ATOMS IN PATCHES BY HYDROGEN GROUPS
Info: RIGID BONDS TO HYDROGEN : ALL
Info:         ERROR TOLERANCE : 1e-08
Info:          MAX ITERATIONS : 100
Info: RIGID WATER USING SETTLE ALGORITHM
Info: RANDOM NUMBER SEED     1743263592
Info: USE HYDROGEN BONDS?    NO
Info: Using AMBER format force field!
Info: AMBER PARM FILE        mobley_3378420.prmtop
Info: COORDINATE PDB         mobley_3378420.pdb
Info: Exclusions will be read from PARM file!
Info: SCNB (VDW SCALING)     2
Info: USING ARITHMETIC MEAN TO COMBINE L-J SIGMA PARAMETERS
Info: BINARY COORDINATES     mobley_3378420_min.coor
Info: SUMMARY OF PARAMETERS:
Info: 7 BONDS
Info: 8 ANGLES
Info:   8 HARMONIC
Info:   0 COSINE-BASED
Info: 9 DIHEDRAL
Info: 0 IMPROPER
Info: 0 CROSSTERM
Info: 0 VDW
Info: 21 VDW_PAIRS
Info: 0 NBTHOLE_PAIRS
Info: STRUCTURE SUMMARY:
Info: 2946 ATOMS
Info: 2945 BONDS
Info: 55 ANGLES
Info: 90 DIHEDRALS
Info: 0 IMPROPERS
Info: 0 CROSSTERMS
Info: 3075 EXCLUSIONS
Info: 2936 RIGID BONDS
Info: 5902 DEGREES OF FREEDOM
Info: 982 HYDROGEN GROUPS
Info: 4 ATOMS IN LARGEST HYDROGEN GROUP
Info: 982 MIGRATION GROUPS
Info: 4 ATOMS IN LARGEST MIGRATION GROUP
Info: TOTAL MASS = 17655.8 amu
Info: TOTAL CHARGE = 9.99644e-05 e
Info: MASS DENSITY = 0.658099 g/cm^3
Info: ATOM DENSITY = 0.0661268 atoms/A^3
Info: ADDED 0 IMPLICIT EXCLUSIONS
Info: NONBONDED TABLE R-SQUARED SPACING: 0.0625
Info: NONBONDED TABLE SIZE: 705 POINTS
Info: REMOVING COM VELOCITY 0.0384088 0.166163 0.00140978
TCL: Running for 100000 steps
ETITLE: TS BOND ANGLE DIHED IMPRP ELECT VDW BOUNDARY MISC KINETIC TOTAL TEMP POTENTIAL TOTAL3 TEMPAVG PRESSURE GPRESSURE VOLUME PRESSAVG GPRESSAVG
ENERGY: 0 0.0521 0.2777 3.2918 0.0000 -13521.2711 2398.9979 0.0000 0.0000 1751.0784 -9367.5732 298.6048 -11118.6516 -9367.2345 298.6048 594.3144 623.3036 44550.7799 594.3144 623.3036
ENERGY: 100000 0.2499 1.8876 3.6467 0.0000 -14088.7950 2438.9007 0.0000 0.0000 177.6853 -11466.4248 30.3000 -11644.1101 -11466.1079 30.8416 -21.2094 68.9465 28776.4191 4.3113 4.2894
TCL: Running 100000 steps at 60 kelvin.
TCL: Setting parameter langevinTemp to 60
TCL: Running for 100000 steps
ETITLE: TS BOND ANGLE DIHED IMPRP ELECT VDW BOUNDARY MISC KINETIC TOTAL TEMP POTENTIAL TOTAL3 TEMPAVG PRESSURE GPRESSURE VOLUME PRESSAVG GPRESSAVG
ENERGY: 100000 0.2499 1.8876 3.6467 0.0000 -14088.7950 2438.9007 0.0000 0.0000 177.5969 -11466.5132 30.2849 -11644.1101 -11466.0496 30.2849 8.6163 68.7517 28776.4191 8.6163 68.7517
ENERGY: 200000 0.6107 3.4542 3.6301 0.0000 -13912.8853 2373.5876 0.0000 0.0000 349.0385 -11182.5643 59.5202 -11531.6028 -11181.5503 59.9687 -329.0351 -273.7088 29029.6683 4.6308 4.6647
TCL: Running 100000 steps at 90 kelvin.
TCL: Setting parameter langevinTemp to 90
TCL: Running for 100000 steps
ETITLE: TS BOND ANGLE DIHED IMPRP ELECT VDW BOUNDARY MISC KINETIC TOTAL TEMP POTENTIAL TOTAL3 TEMPAVG PRESSURE GPRESSURE VOLUME PRESSAVG GPRESSAVG
ENERGY: 200000 0.6107 3.4542 3.6301 0.0000 -13912.8853 2373.5876 0.0000 0.0000 348.8693 -11182.7335 59.4914 -11531.6028 -11181.8300 59.4914 -316.1971 -273.9109 29029.6683 -316.1971 -273.9109
ENERGY: 300000 1.9986 4.4418 4.6355 0.0000 -13780.9858 2299.4721 0.0000 0.0000 547.4907 -10922.9470 93.3615 -11470.4377 -10921.6982 90.0652 -653.5665 -617.9962 29162.0436 4.7024 4.7708
TCL: Running 100000 steps at 120 kelvin.
TCL: Setting parameter langevinTemp to 120
TCL: Running for 100000 steps
ETITLE: TS BOND ANGLE DIHED IMPRP ELECT VDW BOUNDARY MISC KINETIC TOTAL TEMP POTENTIAL TOTAL3 TEMPAVG PRESSURE GPRESSURE VOLUME PRESSAVG GPRESSAVG
ENERGY: 300000 1.9986 4.4418 4.6355 0.0000 -13780.9858 2299.4721 0.0000 0.0000 547.2180 -10923.2197 93.3150 -11470.4377 -10921.9530 93.3150 -654.3318 -618.7324 29162.0436 -654.3318 -618.7324
ENERGY: 400000 1.5409 5.5976 3.6595 0.0000 -13652.3435 2288.1074 0.0000 0.0000 703.7663 -10649.6719 120.0106 -11353.4382 -10648.8156 119.9777 -175.4586 -103.1736 28756.7062 3.6700 3.6098
TCL: Running 100000 steps at 150 kelvin.
TCL: Setting parameter langevinTemp to 150
TCL: Running for 100000 steps
ETITLE: TS BOND ANGLE DIHED IMPRP ELECT VDW BOUNDARY MISC KINETIC TOTAL TEMP POTENTIAL TOTAL3 TEMPAVG PRESSURE GPRESSURE VOLUME PRESSAVG GPRESSAVG
ENERGY: 400000 1.5409 5.5976 3.6595 0.0000 -13652.3435 2288.1074 0.0000 0.0000 703.4058 -10650.0324 119.9491 -11353.4382 -10648.6253 119.9491 -174.9947 -104.6940 28756.7062 -174.9947 -104.6940
ENERGY: 500000 1.3472 5.9612 4.9196 0.0000 -13459.8515 2262.2991 0.0000 0.0000 883.6151 -10301.7093 150.6795 -11185.3244 -10299.8575 149.8123 66.0269 175.3507 28988.4331 4.1296 3.9796
TCL: Running 100000 steps at 180 kelvin.
TCL: Setting parameter langevinTemp to 180
TCL: Running for 100000 steps
ETITLE: TS BOND ANGLE DIHED IMPRP ELECT VDW BOUNDARY MISC KINETIC TOTAL TEMP POTENTIAL TOTAL3 TEMPAVG PRESSURE GPRESSURE VOLUME PRESSAVG GPRESSAVG
ENERGY: 500000 1.3472 5.9612 4.9196 0.0000 -13459.8515 2262.2991 0.0000 0.0000 883.1819 -10302.1425 150.6057 -11185.3244 -10300.4906 150.6057 112.7714 174.0323 28988.4331 112.7714 174.0323
ENERGY: 600000 0.5328 13.4402 5.5232 0.0000 -12884.3138 1992.4631 0.0000 0.0000 1063.4115 -9808.9430 181.3395 -10872.3545 -9805.7209 180.1716 -717.9991 -674.6897 28748.4238 4.3263 4.4992
TCL: Running 100000 steps at 210 kelvin.
TCL: Setting parameter langevinTemp to 210
TCL: Running for 100000 steps
ETITLE: TS BOND ANGLE DIHED IMPRP ELECT VDW BOUNDARY MISC KINETIC TOTAL TEMP POTENTIAL TOTAL3 TEMPAVG PRESSURE GPRESSURE VOLUME PRESSAVG GPRESSAVG
ENERGY: 600000 0.5328 13.4402 5.5232 0.0000 -12884.3138 1992.4631 0.0000 0.0000 1062.8812 -9809.4732 181.2491 -10872.3545 -9807.4929 181.2491 -732.9185 -674.8742 28748.4238 -732.9185 -674.8742
ENERGY: 700000 1.7011 9.3016 4.3793 0.0000 -12276.7206 1779.4531 0.0000 0.0000 1253.7911 -9228.0943 213.8043 -10481.8854 -9224.2388 209.8130 -942.1953 -823.4308 28802.3694 3.8505 3.8507
TCL: Running 100000 steps at 240 kelvin.
TCL: Setting parameter langevinTemp to 240
TCL: Running for 100000 steps
ETITLE: TS BOND ANGLE DIHED IMPRP ELECT VDW BOUNDARY MISC KINETIC TOTAL TEMP POTENTIAL TOTAL3 TEMPAVG PRESSURE GPRESSURE VOLUME PRESSAVG GPRESSAVG
ENERGY: 700000 1.7011 9.3016 4.3793 0.0000 -12276.7206 1779.4531 0.0000 0.0000 1253.1791 -9228.7063 213.6999 -10481.8854 -9226.1749 213.6999 -907.9731 -822.0371 28802.3694 -907.9731 -822.0371
ENERGY: 800000 2.1164 8.4666 4.7294 0.0000 -11557.6116 1569.5744 0.0000 0.0000 1424.4013 -8548.3234 242.8978 -9972.7248 -8545.3252 239.6225 -1140.7387 -1043.8186 29369.5571 4.1023 4.2113
TCL: Running 100000 steps at 270 kelvin.
TCL: Setting parameter langevinTemp to 270
TCL: Running for 100000 steps
ETITLE: TS BOND ANGLE DIHED IMPRP ELECT VDW BOUNDARY MISC KINETIC TOTAL TEMP POTENTIAL TOTAL3 TEMPAVG PRESSURE GPRESSURE VOLUME PRESSAVG GPRESSAVG
ENERGY: 800000 2.1164 8.4666 4.7294 0.0000 -11557.6116 1569.5744 0.0000 0.0000 1423.7002 -8549.0245 242.7782 -9972.7248 -8546.7326 242.7782 -1153.9498 -1043.2688 29369.5571 -1153.9498 -1043.2688
ENERGY: 900000 3.0166 8.6091 5.8116 0.0000 -11104.0342 1483.0041 0.0000 0.0000 1584.4349 -8019.1580 270.1877 -9603.5929 -8015.5196 269.8545 -457.4859 -416.0663 29295.1210 1.9068 1.9789
TCL: Running 1000000 steps at 300 kelvin.
TCL: Setting parameter langevinTemp to 300
TCL: Running for 1000000 steps
ETITLE: TS BOND ANGLE DIHED IMPRP ELECT VDW BOUNDARY MISC KINETIC TOTAL TEMP POTENTIAL TOTAL3 TEMPAVG PRESSURE GPRESSURE VOLUME PRESSAVG GPRESSAVG
ENERGY: 900000 3.0166 8.6091 5.8116 0.0000 -11104.0342 1483.0041 0.0000 0.0000 1583.6561 -8019.9368 270.0549 -9603.5929 -8017.7346 270.0549 -497.4091 -415.3443 29295.1210 -497.4091 -415.3443
ENERGY: 1100000 3.0337 12.2994 7.9755 0.0000 -10681.6846 1494.9913 0.0000 0.0000 1774.7238 -7388.6609 302.6370 -9163.3847 -7384.6398 300.9422 905.4442 1009.3483 29875.3704 2.8288 2.6633
ENERGY: 1300000 0.3877 14.1068 5.7629 0.0000 -10420.6103 1298.0340 0.0000 0.0000 1746.5507 -7355.7682 297.8327 -9102.3188 -7354.1423 300.7297 -975.0199 -902.2121 30860.6314 2.7850 2.8722
ENERGY: 1500000 2.5306 13.0347 8.1443 0.0000 -10536.0302 1344.5423 0.0000 0.0000 1769.3411 -7398.4371 301.7191 -9167.7782 -7395.4983 299.5221 -781.5541 -736.0305 30915.2539 3.0043 2.7545
ENERGY: 1700000 3.7253 13.5529 7.8049 0.0000 -10470.7268 1328.6224 0.0000 0.0000 1743.1680 -7373.8532 297.2559 -9117.0213 -7370.4298 300.6102 -813.9177 -690.1410 30446.5150 3.6191 3.5586
ENERGY: 1900000 1.6892 15.3054 9.8449 0.0000 -10592.5039 1383.5587 0.0000 0.0000 1761.3058 -7420.8000 300.3488 -9182.1057 -7415.5068 299.9503 -274.2547 -199.8440 30272.8734 3.9522 4.0296
TCL: Exiting due to exit command.
