Info: SIMULATION PARAMETERS:
Info: TIMESTEP               2
Info: NUMBER OF STEPS        0
Info: STEPS PER CYCLE        10
Info: PERIODIC CELL BASIS 1  33.998 0 0
Info: PERIODIC CELL BASIS 2  0 33.542 0
Info: PERIODIC CELL BASIS 3  0 0 38.379
Info: PERIODIC CELL CENTER   0 0 0
Info: WRAPPING WATERS AROUND PERIODIC BOUNDARIES ON OUTPUT.
Info: WRAPPING ALL CLUSTERS AROUND PERIODIC BOUNDARIES ON OUTPUT.
Info: FIRST LDB TIMESTEP     50
Info: LAST LDB TIMESTEP     -1
Info: HOM BACKGROUND SCALING 1
Info: PME BACKGROUND SCALING 1
Info: MIN ATOMS PER PATCH    40
Info: EMPTY PATCH LOAD       40 ATOMS
Info: INITIAL TEMPERATURE    300
Info: CENTER OF MASS MOVING INITIALLY? NO
Info: DIELECTRIC             1
Info: EXCLUDE                SCALED ONE-FOUR
Info: 1-4 ELECTROSTATICS SCALED BY 0.833333
Info: MODIFIED 1-4 VDW PARAMETERS WILL BE USED
Info: DCD FILENAME           mobley_5561855_equil.dcd
Info: DCD FREQUENCY          100000
Info: DCD FIRST STEP         100000
Info: DCD FILE WILL CONTAIN UNIT CELL DATA
Info: XST FILENAME           mobley_5561855_equil.xst
Info: XST FREQUENCY          100000
Info: NO VELOCITY DCD OUTPUT
Info: NO FORCE DCD OUTPUT
Info: OUTPUT FILENAME        mobley_5561855_equil
Info: BINARY OUTPUT FILES WILL BE USED
Info: RESTART FILENAME       mobley_5561855_equil.restart
Info: RESTART FREQUENCY      100000
Info: BINARY RESTART FILES WILL BE USED
Info: CUTOFF                 9
Info: PAIRLIST DISTANCE      11
Info: PAIRLIST SHRINK RATE   0.01
Info: PAIRLIST GROW RATE     0.01
Info: PAIRLIST TRIGGER       0.3
Info: PAIRLISTS PER CYCLE    2
Info: PAIRLISTS ENABLED
Info: MARGIN                 8
Info: HYDROGEN GROUP CUTOFF  2.5
Info: PATCH DIMENSION        21.5
Info: ENERGY OUTPUT STEPS    100000
Info: ENERGY EVALUATION STEPS    100000
Info: OUTPUT ENERGY PRECISION 4
Info: CROSSTERM ENERGY INCLUDED IN DIHEDRAL
Info: TIMING OUTPUT STEPS    1000000
Info: PRESSURE OUTPUT STEPS  100000
Info: LANGEVIN DYNAMICS ACTIVE
Info: LANGEVIN TEMPERATURE   30
Info: LANGEVIN USING BBK INTEGRATOR
Info: LANGEVIN DAMPING COEFFICIENT IS 1 INVERSE PS
Info: LANGEVIN DYNAMICS APPLIED TO HYDROGENS
Info: LANGEVIN PISTON PRESSURE CONTROL ACTIVE
Info:        TARGET PRESSURE IS 1.01325 BAR
Info:     OSCILLATION PERIOD IS 50 FS
Info:             DECAY TIME IS 25 FS
Info:     PISTON TEMPERATURE IS 300 K
Info:       PRESSURE CONTROL IS GROUP-BASED
Info:    INITIAL STRAIN RATE IS 0 0 0
Info:       CELL FLUCTUATION IS ISOTROPIC
Info: PARTICLE MESH EWALD (PME) ACTIVE
Info: PME TOLERANCE               1e-06
Info: PME EWALD COEFFICIENT       0.348832
Info: PME INTERPOLATION ORDER     4
Info: PME GRID DIMENSIONS         36 36 40
Info: PME MAXIMUM GRID SPACING    1
Info: FULL ELECTROSTATIC EVALUATION FREQUENCY      2
Info: USING VERLET I (r-RESPA) MTS SCHEME.
Info: C1 SPLITTING OF LONG RANGE ELECTROSTATICS
Info: PLACING ATOMS IN PATCHES BY HYDROGEN GROUPS
Info: RIGID BONDS TO HYDROGEN : ALL
Info:         ERROR TOLERANCE : 1e-08
Info:          MAX ITERATIONS : 100
Info: RIGID WATER USING SETTLE ALGORITHM
Info: RANDOM NUMBER SEED     1743234633
Info: USE HYDROGEN BONDS?    NO
Info: Using AMBER format force field!
Info: AMBER PARM FILE        mobley_5561855.prmtop
Info: COORDINATE PDB         mobley_5561855.pdb
Info: Exclusions will be read from PARM file!
Info: SCNB (VDW SCALING)     2
Info: USING ARITHMETIC MEAN TO COMBINE L-J SIGMA PARAMETERS
Info: BINARY COORDINATES     mobley_5561855_min.coor
Info: SUMMARY OF PARAMETERS:
Info: 7 BONDS
Info: 7 ANGLES
Info:   7 HARMONIC
Info:   0 COSINE-BASED
Info: 3 DIHEDRAL
Info: 0 IMPROPER
Info: 0 CROSSTERM
Info: 0 VDW
Info: 15 VDW_PAIRS
Info: 0 NBTHOLE_PAIRS
Info: STRUCTURE SUMMARY:
Info: 2968 ATOMS
Info: 2969 BONDS
Info: 36 ANGLES
Info: 64 DIHEDRALS
Info: 0 IMPROPERS
Info: 0 CROSSTERMS
Info: 3051 EXCLUSIONS
Info: 2951 RIGID BONDS
Info: 5953 DEGREES OF FREEDOM
Info: 999 HYDROGEN GROUPS
Info: 3 ATOMS IN LARGEST HYDROGEN GROUP
Info: 999 MIGRATION GROUPS
Info: 3 ATOMS IN LARGEST MIGRATION GROUP
Info: TOTAL MASS = 18018.1 amu
Info: TOTAL CHARGE = 1.11759e-08 e
Info: MASS DENSITY = 0.683648 g/cm^3
Info: ATOM DENSITY = 0.0678153 atoms/A^3
Info: ADDED 0 IMPLICIT EXCLUSIONS
Info: NONBONDED TABLE R-SQUARED SPACING: 0.0625
Info: NONBONDED TABLE SIZE: 705 POINTS
Info: REMOVING COM VELOCITY -0.118187 -0.278112 -0.0234365
TCL: Running for 100000 steps
ETITLE: TS BOND ANGLE DIHED IMPRP ELECT VDW BOUNDARY MISC KINETIC TOTAL TEMP POTENTIAL TOTAL3 TEMPAVG PRESSURE GPRESSURE VOLUME PRESSAVG GPRESSAVG
ENERGY: 0 0.3945 0.2112 7.9231 0.0000 -13706.9522 2390.8320 0.0000 0.0000 1787.0911 -9520.5004 302.1351 -11307.5915 -9520.1574 302.1351 358.6772 388.7560 43765.9116 358.6772 388.7560
ENERGY: 100000 1.2685 0.4018 9.0938 0.0000 -14212.6020 2442.1371 0.0000 0.0000 180.7947 -11578.9061 30.5661 -11759.7009 -11578.2703 30.9308 -290.4472 -226.7842 29580.6441 5.1325 5.0699
TCL: Running 100000 steps at 60 kelvin.
TCL: Setting parameter langevinTemp to 60
TCL: Running for 100000 steps
ETITLE: TS BOND ANGLE DIHED IMPRP ELECT VDW BOUNDARY MISC KINETIC TOTAL TEMP POTENTIAL TOTAL3 TEMPAVG PRESSURE GPRESSURE VOLUME PRESSAVG GPRESSAVG
ENERGY: 100000 1.2685 0.4018 9.0938 0.0000 -14212.6020 2442.1371 0.0000 0.0000 180.7064 -11578.9945 30.5512 -11759.7009 -11578.5880 30.5512 -283.9737 -226.7585 29580.6441 -283.9737 -226.7585
ENERGY: 200000 1.6612 1.1924 9.1388 0.0000 -14056.3077 2390.5015 0.0000 0.0000 353.7384 -11300.0753 59.8049 -11653.8137 -11299.0491 59.8884 -254.5454 -192.2406 29479.5588 3.7551 3.7592
TCL: Running 100000 steps at 90 kelvin.
TCL: Setting parameter langevinTemp to 90
TCL: Running for 100000 steps
ETITLE: TS BOND ANGLE DIHED IMPRP ELECT VDW BOUNDARY MISC KINETIC TOTAL TEMP POTENTIAL TOTAL3 TEMPAVG PRESSURE GPRESSURE VOLUME PRESSAVG GPRESSAVG
ENERGY: 200000 1.6612 1.1924 9.1388 0.0000 -14056.3077 2390.5015 0.0000 0.0000 353.5548 -11300.2589 59.7739 -11653.8137 -11299.6529 59.7739 -247.2902 -192.0089 29479.5588 -247.2902 -192.0089
ENERGY: 300000 2.1107 0.6102 9.7404 0.0000 -13916.0145 2314.4484 0.0000 0.0000 532.5498 -11056.5550 90.0357 -11589.1048 -11055.7160 90.1350 -404.7909 -363.3921 29043.7875 2.6414 2.7455
TCL: Running 100000 steps at 120 kelvin.
TCL: Setting parameter langevinTemp to 120
TCL: Running for 100000 steps
ETITLE: TS BOND ANGLE DIHED IMPRP ELECT VDW BOUNDARY MISC KINETIC TOTAL TEMP POTENTIAL TOTAL3 TEMPAVG PRESSURE GPRESSURE VOLUME PRESSAVG GPRESSAVG
ENERGY: 300000 2.1107 0.6102 9.7404 0.0000 -13916.0145 2314.4484 0.0000 0.0000 532.2913 -11056.8135 89.9920 -11589.1048 -11055.5523 89.9920 -439.6785 -364.3910 29043.7875 -439.6785 -364.3910
ENERGY: 400000 2.7142 4.7278 11.2054 0.0000 -13725.7024 2232.0706 0.0000 0.0000 710.8211 -10764.1634 120.1752 -11474.9845 -10761.9411 120.0152 -918.7241 -895.7725 29085.0465 4.4052 4.3196
TCL: Running 100000 steps at 150 kelvin.
TCL: Setting parameter langevinTemp to 150
TCL: Running for 100000 steps
ETITLE: TS BOND ANGLE DIHED IMPRP ELECT VDW BOUNDARY MISC KINETIC TOTAL TEMP POTENTIAL TOTAL3 TEMPAVG PRESSURE GPRESSURE VOLUME PRESSAVG GPRESSAVG
ENERGY: 400000 2.7142 4.7278 11.2054 0.0000 -13725.7024 2232.0706 0.0000 0.0000 710.4651 -10764.5194 120.1150 -11474.9845 -10762.7544 120.1150 -951.0991 -894.5748 29085.0465 -951.0991 -894.5748
ENERGY: 500000 1.6666 4.6666 9.7981 0.0000 -13650.8253 2343.4391 0.0000 0.0000 911.8177 -10379.4373 154.1567 -11291.2550 -10376.0803 149.8935 1159.1855 1205.4024 28865.9206 4.7780 4.8149
TCL: Running 100000 steps at 180 kelvin.
TCL: Setting parameter langevinTemp to 180
TCL: Running for 100000 steps
ETITLE: TS BOND ANGLE DIHED IMPRP ELECT VDW BOUNDARY MISC KINETIC TOTAL TEMP POTENTIAL TOTAL3 TEMPAVG PRESSURE GPRESSURE VOLUME PRESSAVG GPRESSAVG
ENERGY: 500000 1.6666 4.6666 9.7981 0.0000 -13650.8253 2343.4391 0.0000 0.0000 911.3713 -10379.8837 154.0813 -11291.2550 -10378.3147 154.0813 1154.8014 1207.1499 28865.9206 1154.8014 1207.1499
ENERGY: 600000 3.5945 4.6990 12.5300 0.0000 -13255.9246 2167.1747 0.0000 0.0000 1064.8128 -10003.1136 180.0229 -11067.9264 -10000.7191 179.9389 605.4169 678.3597 28524.9998 3.6255 3.5802
TCL: Running 100000 steps at 210 kelvin.
TCL: Setting parameter langevinTemp to 210
TCL: Running for 100000 steps
ETITLE: TS BOND ANGLE DIHED IMPRP ELECT VDW BOUNDARY MISC KINETIC TOTAL TEMP POTENTIAL TOTAL3 TEMPAVG PRESSURE GPRESSURE VOLUME PRESSAVG GPRESSAVG
ENERGY: 600000 3.5945 4.6990 12.5300 0.0000 -13255.9246 2167.1747 0.0000 0.0000 1064.3118 -10003.6146 179.9382 -11067.9264 -10001.4989 179.9382 607.8706 676.8414 28524.9998 607.8706 676.8414
ENERGY: 700000 3.3440 4.0481 11.3083 0.0000 -12335.2551 1770.3261 0.0000 0.0000 1210.1599 -9336.0688 204.5961 -10546.2287 -9332.5017 209.8146 -1076.0795 -1018.0555 29117.1516 3.2382 3.1260
TCL: Running 100000 steps at 240 kelvin.
TCL: Setting parameter langevinTemp to 240
TCL: Running for 100000 steps
ETITLE: TS BOND ANGLE DIHED IMPRP ELECT VDW BOUNDARY MISC KINETIC TOTAL TEMP POTENTIAL TOTAL3 TEMPAVG PRESSURE GPRESSURE VOLUME PRESSAVG GPRESSAVG
ENERGY: 700000 3.3440 4.0481 11.3083 0.0000 -12335.2551 1770.3261 0.0000 0.0000 1209.5475 -9336.6812 204.4925 -10546.2287 -9334.3550 204.4925 -1098.8732 -1017.3234 29117.1516 -1098.8732 -1017.3234
ENERGY: 800000 7.6157 6.8710 12.6545 0.0000 -11822.4317 1651.3532 0.0000 0.0000 1448.8245 -8695.1128 244.9460 -10143.9373 -8692.0396 240.2460 -1075.5258 -1018.8536 29825.7063 3.1435 3.2157
TCL: Running 100000 steps at 270 kelvin.
TCL: Setting parameter langevinTemp to 270
TCL: Running for 100000 steps
ETITLE: TS BOND ANGLE DIHED IMPRP ELECT VDW BOUNDARY MISC KINETIC TOTAL TEMP POTENTIAL TOTAL3 TEMPAVG PRESSURE GPRESSURE VOLUME PRESSAVG GPRESSAVG
ENERGY: 800000 7.6157 6.8710 12.6545 0.0000 -11822.4317 1651.3532 0.0000 0.0000 1448.1227 -8695.8146 244.8273 -10143.9373 -8693.3176 244.8273 -1090.3791 -1018.6323 29825.7063 -1090.3791 -1018.6323
ENERGY: 900000 7.8531 2.9444 11.6086 0.0000 -11288.6114 1574.9420 0.0000 0.0000 1569.2647 -8121.9987 265.3082 -9691.2633 -8117.5739 269.8894 -204.9786 -192.9973 30109.0666 3.8980 3.8752
TCL: Running 1000000 steps at 300 kelvin.
TCL: Setting parameter langevinTemp to 300
TCL: Running for 1000000 steps
ETITLE: TS BOND ANGLE DIHED IMPRP ELECT VDW BOUNDARY MISC KINETIC TOTAL TEMP POTENTIAL TOTAL3 TEMPAVG PRESSURE GPRESSURE VOLUME PRESSAVG GPRESSAVG
ENERGY: 900000 7.8531 2.9444 11.6086 0.0000 -11288.6114 1574.9420 0.0000 0.0000 1568.4363 -8122.8270 265.1682 -9691.2633 -8120.4362 265.1682 -274.4173 -192.0684 30109.0666 -274.4173 -192.0684
ENERGY: 1100000 4.5009 4.2858 14.8879 0.0000 -10623.4453 1442.9657 0.0000 0.0000 1800.1249 -7356.6802 304.3387 -9156.8051 -7353.4005 299.7674 280.6422 307.2259 31181.4145 3.8449 4.0392
ENERGY: 1300000 11.2181 4.6135 14.1587 0.0000 -10652.0825 1432.0649 0.0000 0.0000 1752.8093 -7437.2179 296.3392 -9190.0272 -7432.8929 301.1521 -167.3311 -76.3544 31127.5902 1.6156 1.6680
ENERGY: 1500000 3.6957 5.3457 12.9212 0.0000 -10689.8356 1375.3513 0.0000 0.0000 1758.1344 -7534.3873 297.2395 -9292.5217 -7531.2055 300.6111 -599.1980 -516.7743 31060.7161 2.9593 2.9333
ENERGY: 1700000 10.2973 5.8560 12.1911 0.0000 -10522.8847 1304.4770 0.0000 0.0000 1737.8115 -7452.2518 293.8036 -9190.0633 -7448.6433 300.6644 -1492.2847 -1440.7322 31671.0078 5.0089 4.8251
ENERGY: 1900000 5.4276 3.9745 11.1168 0.0000 -10651.7012 1414.4505 0.0000 0.0000 1789.7823 -7426.9495 302.5901 -9216.7318 -7422.6679 300.2983 134.8143 172.1038 30560.8109 3.7152 3.8353
TCL: Exiting due to exit command.
