Info: SIMULATION PARAMETERS:
Info: TIMESTEP               2
Info: NUMBER OF STEPS        0
Info: STEPS PER CYCLE        10
Info: PERIODIC CELL BASIS 1  36.281 0 0
Info: PERIODIC CELL BASIS 2  0 34.26 0
Info: PERIODIC CELL BASIS 3  0 0 35.856
Info: PERIODIC CELL CENTER   0 0 0
Info: WRAPPING WATERS AROUND PERIODIC BOUNDARIES ON OUTPUT.
Info: WRAPPING ALL CLUSTERS AROUND PERIODIC BOUNDARIES ON OUTPUT.
Info: FIRST LDB TIMESTEP     50
Info: LAST LDB TIMESTEP     -1
Info: HOM BACKGROUND SCALING 1
Info: PME BACKGROUND SCALING 1
Info: MIN ATOMS PER PATCH    40
Info: EMPTY PATCH LOAD       40 ATOMS
Info: INITIAL TEMPERATURE    300
Info: CENTER OF MASS MOVING INITIALLY? NO
Info: DIELECTRIC             1
Info: EXCLUDE                SCALED ONE-FOUR
Info: 1-4 ELECTROSTATICS SCALED BY 0.833333
Info: MODIFIED 1-4 VDW PARAMETERS WILL BE USED
Info: DCD FILENAME           mobley_1733799_equil.dcd
Info: DCD FREQUENCY          100000
Info: DCD FIRST STEP         100000
Info: DCD FILE WILL CONTAIN UNIT CELL DATA
Info: XST FILENAME           mobley_1733799_equil.xst
Info: XST FREQUENCY          100000
Info: NO VELOCITY DCD OUTPUT
Info: NO FORCE DCD OUTPUT
Info: OUTPUT FILENAME        mobley_1733799_equil
Info: BINARY OUTPUT FILES WILL BE USED
Info: RESTART FILENAME       mobley_1733799_equil.restart
Info: RESTART FREQUENCY      100000
Info: BINARY RESTART FILES WILL BE USED
Info: CUTOFF                 9
Info: PAIRLIST DISTANCE      11
Info: PAIRLIST SHRINK RATE   0.01
Info: PAIRLIST GROW RATE     0.01
Info: PAIRLIST TRIGGER       0.3
Info: PAIRLISTS PER CYCLE    2
Info: PAIRLISTS ENABLED
Info: MARGIN                 8
Info: HYDROGEN GROUP CUTOFF  2.5
Info: PATCH DIMENSION        21.5
Info: ENERGY OUTPUT STEPS    100000
Info: ENERGY EVALUATION STEPS    100000
Info: OUTPUT ENERGY PRECISION 4
Info: CROSSTERM ENERGY INCLUDED IN DIHEDRAL
Info: TIMING OUTPUT STEPS    1000000
Info: PRESSURE OUTPUT STEPS  100000
Info: LANGEVIN DYNAMICS ACTIVE
Info: LANGEVIN TEMPERATURE   30
Info: LANGEVIN USING BBK INTEGRATOR
Info: LANGEVIN DAMPING COEFFICIENT IS 1 INVERSE PS
Info: LANGEVIN DYNAMICS APPLIED TO HYDROGENS
Info: LANGEVIN PISTON PRESSURE CONTROL ACTIVE
Info:        TARGET PRESSURE IS 1.01325 BAR
Info:     OSCILLATION PERIOD IS 50 FS
Info:             DECAY TIME IS 25 FS
Info:     PISTON TEMPERATURE IS 300 K
Info:       PRESSURE CONTROL IS GROUP-BASED
Info:    INITIAL STRAIN RATE IS 0 0 0
Info:       CELL FLUCTUATION IS ISOTROPIC
Info: PARTICLE MESH EWALD (PME) ACTIVE
Info: PME TOLERANCE               1e-06
Info: PME EWALD COEFFICIENT       0.348832
Info: PME INTERPOLATION ORDER     4
Info: PME GRID DIMENSIONS         40 36 36
Info: PME MAXIMUM GRID SPACING    1
Info: FULL ELECTROSTATIC EVALUATION FREQUENCY      2
Info: USING VERLET I (r-RESPA) MTS SCHEME.
Info: C1 SPLITTING OF LONG RANGE ELECTROSTATICS
Info: PLACING ATOMS IN PATCHES BY HYDROGEN GROUPS
Info: RIGID BONDS TO HYDROGEN : ALL
Info:         ERROR TOLERANCE : 1e-08
Info:          MAX ITERATIONS : 100
Info: RIGID WATER USING SETTLE ALGORITHM
Info: RANDOM NUMBER SEED     1743208446
Info: USE HYDROGEN BONDS?    NO
Info: Using AMBER format force field!
Info: AMBER PARM FILE        mobley_1733799.prmtop
Info: COORDINATE PDB         mobley_1733799.pdb
Info: Exclusions will be read from PARM file!
Info: SCNB (VDW SCALING)     2
Info: USING ARITHMETIC MEAN TO COMBINE L-J SIGMA PARAMETERS
Info: BINARY COORDINATES     mobley_1733799_min.coor
Info: SUMMARY OF PARAMETERS:
Info: 7 BONDS
Info: 5 ANGLES
Info:   5 HARMONIC
Info:   0 COSINE-BASED
Info: 3 DIHEDRAL
Info: 0 IMPROPER
Info: 0 CROSSTERM
Info: 0 VDW
Info: 21 VDW_PAIRS
Info: 0 NBTHOLE_PAIRS
Info: STRUCTURE SUMMARY:
Info: 2953 ATOMS
Info: 2953 BONDS
Info: 19 ANGLES
Info: 32 DIHEDRALS
Info: 0 IMPROPERS
Info: 0 CROSSTERMS
Info: 2995 EXCLUSIONS
Info: 2945 RIGID BONDS
Info: 5914 DEGREES OF FREEDOM
Info: 988 HYDROGEN GROUPS
Info: 3 ATOMS IN LARGEST HYDROGEN GROUP
Info: 988 MIGRATION GROUPS
Info: 3 ATOMS IN LARGEST MIGRATION GROUP
Info: TOTAL MASS = 17828.7 amu
Info: TOTAL CHARGE = 0.000100002 e
Info: MASS DENSITY = 0.664278 g/cm^3
Info: ATOM DENSITY = 0.0662575 atoms/A^3
Info: ADDED 0 IMPLICIT EXCLUSIONS
Info: NONBONDED TABLE R-SQUARED SPACING: 0.0625
Info: NONBONDED TABLE SIZE: 705 POINTS
Info: REMOVING COM VELOCITY 0.157531 0.0334874 -0.207803
TCL: Running for 100000 steps
ETITLE: TS BOND ANGLE DIHED IMPRP ELECT VDW BOUNDARY MISC KINETIC TOTAL TEMP POTENTIAL TOTAL3 TEMPAVG PRESSURE GPRESSURE VOLUME PRESSAVG GPRESSAVG
ENERGY: 0 0.0906 0.0809 0.1135 0.0000 -13669.8178 2389.7939 0.0000 0.0000 1809.2950 -9470.4439 307.9062 -11279.7389 -9470.0844 307.9062 298.4295 337.8493 44568.5440 298.4295 337.8493
ENERGY: 100000 0.4292 0.4992 0.2469 0.0000 -14266.9159 2531.7935 0.0000 0.0000 178.7927 -11555.1545 30.4270 -11733.9472 -11554.4610 30.9484 507.4217 557.2923 29429.8183 4.9466 4.9769
TCL: Running 100000 steps at 60 kelvin.
TCL: Setting parameter langevinTemp to 60
TCL: Running for 100000 steps
ETITLE: TS BOND ANGLE DIHED IMPRP ELECT VDW BOUNDARY MISC KINETIC TOTAL TEMP POTENTIAL TOTAL3 TEMPAVG PRESSURE GPRESSURE VOLUME PRESSAVG GPRESSAVG
ENERGY: 100000 0.4292 0.4992 0.2469 0.0000 -14266.9159 2531.7935 0.0000 0.0000 178.7045 -11555.2426 30.4120 -11733.9472 -11554.9358 30.4120 507.4986 557.5357 29429.8183 507.4986 557.5357
ENERGY: 200000 0.7088 0.4105 0.6557 0.0000 -14038.7943 2384.1797 0.0000 0.0000 369.4044 -11283.4353 62.8653 -11652.8397 -11281.8040 59.9931 -262.7900 -222.9841 28960.1252 3.7752 3.8106
TCL: Running 100000 steps at 90 kelvin.
TCL: Setting parameter langevinTemp to 90
TCL: Running for 100000 steps
ETITLE: TS BOND ANGLE DIHED IMPRP ELECT VDW BOUNDARY MISC KINETIC TOTAL TEMP POTENTIAL TOTAL3 TEMPAVG PRESSURE GPRESSURE VOLUME PRESSAVG GPRESSAVG
ENERGY: 200000 0.7088 0.4105 0.6557 0.0000 -14038.7943 2384.1797 0.0000 0.0000 369.2328 -11283.6069 62.8361 -11652.8397 -11282.7840 62.8361 -275.9228 -222.3600 28960.1252 -275.9228 -222.3600
ENERGY: 300000 0.9810 1.0978 0.8075 0.0000 -14065.3974 2433.6235 0.0000 0.0000 538.5777 -11090.3098 91.6553 -11628.8876 -11088.6734 89.9633 388.4398 441.1900 28410.3190 3.3808 3.3800
TCL: Running 100000 steps at 120 kelvin.
TCL: Setting parameter langevinTemp to 120
TCL: Running for 100000 steps
ETITLE: TS BOND ANGLE DIHED IMPRP ELECT VDW BOUNDARY MISC KINETIC TOTAL TEMP POTENTIAL TOTAL3 TEMPAVG PRESSURE GPRESSURE VOLUME PRESSAVG GPRESSAVG
ENERGY: 300000 0.9810 1.0978 0.8075 0.0000 -14065.3974 2433.6235 0.0000 0.0000 538.3065 -11090.5811 91.6091 -11628.8876 -11089.5017 91.6091 381.3689 441.0018 28410.3190 381.3689 441.0018
ENERGY: 400000 1.4625 1.7026 1.4637 0.0000 -13774.6015 2282.1975 0.0000 0.0000 705.1279 -10782.6474 119.9988 -11487.7753 -10781.0571 119.9315 -525.2610 -500.8031 28857.7836 3.5349 3.6165
TCL: Running 100000 steps at 150 kelvin.
TCL: Setting parameter langevinTemp to 150
TCL: Running for 100000 steps
ETITLE: TS BOND ANGLE DIHED IMPRP ELECT VDW BOUNDARY MISC KINETIC TOTAL TEMP POTENTIAL TOTAL3 TEMPAVG PRESSURE GPRESSURE VOLUME PRESSAVG GPRESSAVG
ENERGY: 400000 1.4625 1.7026 1.4637 0.0000 -13774.6015 2282.1975 0.0000 0.0000 704.7900 -10782.9853 119.9413 -11487.7753 -10781.4248 119.9413 -553.9314 -501.4048 28857.7836 -553.9314 -501.4048
ENERGY: 500000 1.2371 0.5864 1.9032 0.0000 -13657.9227 2347.2693 0.0000 0.0000 901.7696 -10405.1571 153.4633 -11306.9266 -10403.2039 149.6229 712.2635 781.7860 28793.7142 3.5124 3.5424
TCL: Running 100000 steps at 180 kelvin.
TCL: Setting parameter langevinTemp to 180
TCL: Running for 100000 steps
ETITLE: TS BOND ANGLE DIHED IMPRP ELECT VDW BOUNDARY MISC KINETIC TOTAL TEMP POTENTIAL TOTAL3 TEMPAVG PRESSURE GPRESSURE VOLUME PRESSAVG GPRESSAVG
ENERGY: 500000 1.2371 0.5864 1.9032 0.0000 -13657.9227 2347.2693 0.0000 0.0000 901.3416 -10405.5851 153.3905 -11306.9266 -10403.6763 153.3905 727.0763 780.8036 28793.7142 727.0763 780.8036
ENERGY: 600000 3.4349 2.6000 4.8104 0.0000 -13203.6066 2198.0553 0.0000 0.0000 1057.2068 -9937.4992 179.9157 -10994.7060 -9934.8600 179.5337 881.3493 937.6772 28532.0823 4.5802 4.2704
TCL: Running 100000 steps at 210 kelvin.
TCL: Setting parameter langevinTemp to 210
TCL: Running for 100000 steps
ETITLE: TS BOND ANGLE DIHED IMPRP ELECT VDW BOUNDARY MISC KINETIC TOTAL TEMP POTENTIAL TOTAL3 TEMPAVG PRESSURE GPRESSURE VOLUME PRESSAVG GPRESSAVG
ENERGY: 600000 3.4349 2.6000 4.8104 0.0000 -13203.6066 2198.0553 0.0000 0.0000 1056.6935 -9938.0125 179.8283 -10994.7060 -9936.0582 179.8283 877.0214 938.0341 28532.0823 877.0214 938.0341
ENERGY: 700000 1.9574 2.7744 4.1760 0.0000 -12357.0528 1855.7240 0.0000 0.0000 1261.8971 -9230.5240 214.7499 -10492.4210 -9228.8110 209.8064 -182.1592 -54.1726 28669.5844 5.0982 5.2666
TCL: Running 100000 steps at 240 kelvin.
TCL: Setting parameter langevinTemp to 240
TCL: Running for 100000 steps
ETITLE: TS BOND ANGLE DIHED IMPRP ELECT VDW BOUNDARY MISC KINETIC TOTAL TEMP POTENTIAL TOTAL3 TEMPAVG PRESSURE GPRESSURE VOLUME PRESSAVG GPRESSAVG
ENERGY: 700000 1.9574 2.7744 4.1760 0.0000 -12357.0528 1855.7240 0.0000 0.0000 1261.3023 -9231.1187 214.6487 -10492.4210 -9228.7766 214.6487 -140.4245 -55.5210 28669.5844 -140.4245 -55.5210
ENERGY: 800000 1.6007 3.0472 2.8694 0.0000 -11868.9689 1778.8111 0.0000 0.0000 1427.1552 -8655.4853 242.8736 -10082.6405 -8653.1169 240.5808 886.8438 968.4601 28774.7547 3.2429 3.2364
TCL: Running 100000 steps at 270 kelvin.
TCL: Setting parameter langevinTemp to 270
TCL: Running for 100000 steps
ETITLE: TS BOND ANGLE DIHED IMPRP ELECT VDW BOUNDARY MISC KINETIC TOTAL TEMP POTENTIAL TOTAL3 TEMPAVG PRESSURE GPRESSURE VOLUME PRESSAVG GPRESSAVG
ENERGY: 800000 1.6007 3.0472 2.8694 0.0000 -11868.9689 1778.8111 0.0000 0.0000 1426.4483 -8656.1922 242.7533 -10082.6405 -8654.0553 242.7533 889.5045 967.3311 28774.7547 889.5045 967.3311
ENERGY: 900000 2.4117 1.7235 1.8530 0.0000 -11252.4017 1549.8980 0.0000 0.0000 1588.9024 -8107.6131 270.3997 -9696.5154 -8105.5116 270.3089 -310.0730 -266.7105 29893.7335 3.1539 3.3098
TCL: Running 1000000 steps at 300 kelvin.
TCL: Setting parameter langevinTemp to 300
TCL: Running for 1000000 steps
ETITLE: TS BOND ANGLE DIHED IMPRP ELECT VDW BOUNDARY MISC KINETIC TOTAL TEMP POTENTIAL TOTAL3 TEMPAVG PRESSURE GPRESSURE VOLUME PRESSAVG GPRESSAVG
ENERGY: 900000 2.4117 1.7235 1.8530 0.0000 -11252.4017 1549.8980 0.0000 0.0000 1588.1231 -8108.3923 270.2671 -9696.5154 -8105.1841 270.2671 -349.8246 -268.7192 29893.7335 -349.8246 -268.7192
ENERGY: 1100000 2.8669 5.2490 2.6187 0.0000 -10679.0107 1424.5333 0.0000 0.0000 1824.6218 -7419.1210 310.5145 -9243.7428 -7415.1904 300.6146 126.1495 236.9082 30117.3246 3.1099 3.3075
ENERGY: 1300000 2.2014 6.3101 3.2039 0.0000 -10626.9572 1342.1186 0.0000 0.0000 1823.9385 -7449.1847 310.3982 -9273.1232 -7445.1944 300.6972 -532.7740 -440.1104 30395.7833 2.3696 2.4956
ENERGY: 1500000 4.3945 2.9853 2.7049 0.0000 -10601.4585 1341.4961 0.0000 0.0000 1748.0049 -7501.8727 297.4759 -9249.8776 -7499.9525 300.0295 -758.7915 -658.0142 30432.4470 4.9287 4.7498
ENERGY: 1700000 3.2588 2.2786 5.0111 0.0000 -10631.9760 1346.1221 0.0000 0.0000 1759.7414 -7515.5641 299.4732 -9275.3055 -7513.2751 300.3536 -874.9395 -831.7954 30504.5498 3.6868 3.7040
ENERGY: 1900000 3.4577 3.8541 5.6516 0.0000 -10636.6647 1384.8538 0.0000 0.0000 1742.3154 -7496.5322 296.5076 -9238.8476 -7494.1210 300.6273 -234.9327 -181.7096 30370.3337 3.5049 3.4616
TCL: Exiting due to exit command.
