Info: SIMULATION PARAMETERS:
Info: TIMESTEP               2
Info: NUMBER OF STEPS        0
Info: STEPS PER CYCLE        10
Info: PERIODIC CELL BASIS 1  34.986 0 0
Info: PERIODIC CELL BASIS 2  0 34.26 0
Info: PERIODIC CELL BASIS 3  0 0 36.199
Info: PERIODIC CELL CENTER   0 0 0
Info: WRAPPING WATERS AROUND PERIODIC BOUNDARIES ON OUTPUT.
Info: WRAPPING ALL CLUSTERS AROUND PERIODIC BOUNDARIES ON OUTPUT.
Info: FIRST LDB TIMESTEP     50
Info: LAST LDB TIMESTEP     -1
Info: HOM BACKGROUND SCALING 1
Info: PME BACKGROUND SCALING 1
Info: MIN ATOMS PER PATCH    40
Info: EMPTY PATCH LOAD       40 ATOMS
Info: INITIAL TEMPERATURE    300
Info: CENTER OF MASS MOVING INITIALLY? NO
Info: DIELECTRIC             1
Info: EXCLUDE                SCALED ONE-FOUR
Info: 1-4 ELECTROSTATICS SCALED BY 0.833333
Info: MODIFIED 1-4 VDW PARAMETERS WILL BE USED
Info: DCD FILENAME           mobley_820789_equil.dcd
Info: DCD FREQUENCY          100000
Info: DCD FIRST STEP         100000
Info: DCD FILE WILL CONTAIN UNIT CELL DATA
Info: XST FILENAME           mobley_820789_equil.xst
Info: XST FREQUENCY          100000
Info: NO VELOCITY DCD OUTPUT
Info: NO FORCE DCD OUTPUT
Info: OUTPUT FILENAME        mobley_820789_equil
Info: BINARY OUTPUT FILES WILL BE USED
Info: RESTART FILENAME       mobley_820789_equil.restart
Info: RESTART FREQUENCY      100000
Info: BINARY RESTART FILES WILL BE USED
Info: CUTOFF                 9
Info: PAIRLIST DISTANCE      11
Info: PAIRLIST SHRINK RATE   0.01
Info: PAIRLIST GROW RATE     0.01
Info: PAIRLIST TRIGGER       0.3
Info: PAIRLISTS PER CYCLE    2
Info: PAIRLISTS ENABLED
Info: MARGIN                 8
Info: HYDROGEN GROUP CUTOFF  2.5
Info: PATCH DIMENSION        21.5
Info: ENERGY OUTPUT STEPS    100000
Info: ENERGY EVALUATION STEPS    100000
Info: OUTPUT ENERGY PRECISION 4
Info: CROSSTERM ENERGY INCLUDED IN DIHEDRAL
Info: TIMING OUTPUT STEPS    1000000
Info: PRESSURE OUTPUT STEPS  100000
Info: LANGEVIN DYNAMICS ACTIVE
Info: LANGEVIN TEMPERATURE   30
Info: LANGEVIN USING BBK INTEGRATOR
Info: LANGEVIN DAMPING COEFFICIENT IS 1 INVERSE PS
Info: LANGEVIN DYNAMICS APPLIED TO HYDROGENS
Info: LANGEVIN PISTON PRESSURE CONTROL ACTIVE
Info:        TARGET PRESSURE IS 1.01325 BAR
Info:     OSCILLATION PERIOD IS 50 FS
Info:             DECAY TIME IS 25 FS
Info:     PISTON TEMPERATURE IS 300 K
Info:       PRESSURE CONTROL IS GROUP-BASED
Info:    INITIAL STRAIN RATE IS 0 0 0
Info:       CELL FLUCTUATION IS ISOTROPIC
Info: PARTICLE MESH EWALD (PME) ACTIVE
Info: PME TOLERANCE               1e-06
Info: PME EWALD COEFFICIENT       0.348832
Info: PME INTERPOLATION ORDER     4
Info: PME GRID DIMENSIONS         36 36 40
Info: PME MAXIMUM GRID SPACING    1
Info: FULL ELECTROSTATIC EVALUATION FREQUENCY      2
Info: USING VERLET I (r-RESPA) MTS SCHEME.
Info: C1 SPLITTING OF LONG RANGE ELECTROSTATICS
Info: PLACING ATOMS IN PATCHES BY HYDROGEN GROUPS
Info: RIGID BONDS TO HYDROGEN : ALL
Info:         ERROR TOLERANCE : 1e-08
Info:          MAX ITERATIONS : 100
Info: RIGID WATER USING SETTLE ALGORITHM
Info: RANDOM NUMBER SEED     1743239590
Info: USE HYDROGEN BONDS?    NO
Info: Using AMBER format force field!
Info: AMBER PARM FILE        mobley_820789.prmtop
Info: COORDINATE PDB         mobley_820789.pdb
Info: Exclusions will be read from PARM file!
Info: SCNB (VDW SCALING)     2
Info: USING ARITHMETIC MEAN TO COMBINE L-J SIGMA PARAMETERS
Info: BINARY COORDINATES     mobley_820789_min.coor
Info: SUMMARY OF PARAMETERS:
Info: 8 BONDS
Info: 9 ANGLES
Info:   9 HARMONIC
Info:   0 COSINE-BASED
Info: 10 DIHEDRAL
Info: 0 IMPROPER
Info: 0 CROSSTERM
Info: 0 VDW
Info: 28 VDW_PAIRS
Info: 0 NBTHOLE_PAIRS
Info: STRUCTURE SUMMARY:
Info: 2930 ATOMS
Info: 2929 BONDS
Info: 22 ANGLES
Info: 32 DIHEDRALS
Info: 0 IMPROPERS
Info: 0 CROSSTERMS
Info: 2977 EXCLUSIONS
Info: 2924 RIGID BONDS
Info: 5866 DEGREES OF FREEDOM
Info: 978 HYDROGEN GROUPS
Info: 4 ATOMS IN LARGEST HYDROGEN GROUP
Info: 978 MIGRATION GROUPS
Info: 4 ATOMS IN LARGEST MIGRATION GROUP
Info: TOTAL MASS = 17599.7 amu
Info: TOTAL CHARGE = 0.000199962 e
Info: MASS DENSITY = 0.673574 g/cm^3
Info: ATOM DENSITY = 0.0675289 atoms/A^3
Info: ADDED 0 IMPLICIT EXCLUSIONS
Info: NONBONDED TABLE R-SQUARED SPACING: 0.0625
Info: NONBONDED TABLE SIZE: 705 POINTS
Info: REMOVING COM VELOCITY -0.318571 -0.0269094 -0.195199
TCL: Running for 100000 steps
ETITLE: TS BOND ANGLE DIHED IMPRP ELECT VDW BOUNDARY MISC KINETIC TOTAL TEMP POTENTIAL TOTAL3 TEMPAVG PRESSURE GPRESSURE VOLUME PRESSAVG GPRESSAVG
ENERGY: 0 0.0786 0.4090 0.9048 0.0000 -13617.1189 2371.2656 0.0000 0.0000 1757.2874 -9487.1735 301.5026 -11244.4609 -9486.8498 301.5026 392.9113 425.0525 43388.8584 392.9113 425.0525
ENERGY: 100000 0.0473 1.1579 0.8882 0.0000 -14207.4192 2513.5944 0.0000 0.0000 176.8570 -11514.8744 30.3438 -11691.7313 -11514.4356 30.8975 280.5994 331.8207 29404.0852 4.1909 4.2002
TCL: Running 100000 steps at 60 kelvin.
TCL: Setting parameter langevinTemp to 60
TCL: Running for 100000 steps
ETITLE: TS BOND ANGLE DIHED IMPRP ELECT VDW BOUNDARY MISC KINETIC TOTAL TEMP POTENTIAL TOTAL3 TEMPAVG PRESSURE GPRESSURE VOLUME PRESSAVG GPRESSAVG
ENERGY: 100000 0.0473 1.1579 0.8882 0.0000 -14207.4192 2513.5944 0.0000 0.0000 176.7697 -11514.9616 30.3289 -11691.7313 -11514.6240 30.3289 281.8763 331.8086 29404.0852 281.8763 331.8086
ENERGY: 200000 0.8860 2.0105 0.8745 0.0000 -13988.6243 2388.5170 0.0000 0.0000 351.3283 -11245.0081 60.2784 -11596.3363 -11243.6444 60.0039 -167.1813 -125.6630 29052.3072 4.0139 4.1056
TCL: Running 100000 steps at 90 kelvin.
TCL: Setting parameter langevinTemp to 90
TCL: Running for 100000 steps
ETITLE: TS BOND ANGLE DIHED IMPRP ELECT VDW BOUNDARY MISC KINETIC TOTAL TEMP POTENTIAL TOTAL3 TEMPAVG PRESSURE GPRESSURE VOLUME PRESSAVG GPRESSAVG
ENERGY: 200000 0.8860 2.0105 0.8745 0.0000 -13988.6243 2388.5170 0.0000 0.0000 351.1525 -11245.1838 60.2482 -11596.3363 -11244.6212 60.2482 -175.1625 -125.5937 29052.3072 -175.1625 -125.5937
ENERGY: 300000 1.0160 3.2359 0.9223 0.0000 -13872.3056 2357.4067 0.0000 0.0000 522.5468 -10987.1778 89.6548 -11509.7246 -10985.5108 90.0347 87.3203 120.1376 28612.8857 4.4017 4.4761
TCL: Running 100000 steps at 120 kelvin.
TCL: Setting parameter langevinTemp to 120
TCL: Running for 100000 steps
ETITLE: TS BOND ANGLE DIHED IMPRP ELECT VDW BOUNDARY MISC KINETIC TOTAL TEMP POTENTIAL TOTAL3 TEMPAVG PRESSURE GPRESSURE VOLUME PRESSAVG GPRESSAVG
ENERGY: 300000 1.0160 3.2359 0.9223 0.0000 -13872.3056 2357.4067 0.0000 0.0000 522.2776 -10987.4470 89.6086 -11509.7246 -10986.4604 89.6086 70.4505 120.4062 28612.8857 70.4505 120.4062
ENERGY: 400000 1.7648 2.6529 1.9013 0.0000 -14006.3683 2586.7514 0.0000 0.0000 717.9544 -10695.3435 123.1814 -11413.2979 -10693.9815 120.3025 2356.6179 2391.7270 28134.3990 5.5849 5.6753
TCL: Running 100000 steps at 150 kelvin.
TCL: Setting parameter langevinTemp to 150
TCL: Running for 100000 steps
ETITLE: TS BOND ANGLE DIHED IMPRP ELECT VDW BOUNDARY MISC KINETIC TOTAL TEMP POTENTIAL TOTAL3 TEMPAVG PRESSURE GPRESSURE VOLUME PRESSAVG GPRESSAVG
ENERGY: 400000 1.7648 2.6529 1.9013 0.0000 -14006.3683 2586.7514 0.0000 0.0000 717.6021 -10695.6958 123.1210 -11413.2979 -10694.5170 123.1210 2336.7154 2391.0212 28134.3990 2336.7154 2391.0212
ENERGY: 500000 1.0954 4.7358 1.4076 0.0000 -13516.7171 2255.7944 0.0000 0.0000 882.6184 -10371.0656 151.4333 -11253.6840 -10368.3472 149.9000 133.5953 182.0169 28542.9029 4.5394 4.3619
TCL: Running 100000 steps at 180 kelvin.
TCL: Setting parameter langevinTemp to 180
TCL: Running for 100000 steps
ETITLE: TS BOND ANGLE DIHED IMPRP ELECT VDW BOUNDARY MISC KINETIC TOTAL TEMP POTENTIAL TOTAL3 TEMPAVG PRESSURE GPRESSURE VOLUME PRESSAVG GPRESSAVG
ENERGY: 500000 1.0954 4.7358 1.4076 0.0000 -13516.7171 2255.7944 0.0000 0.0000 882.1747 -10371.5093 151.3571 -11253.6840 -10369.9709 151.3571 119.4665 181.6147 28542.9029 119.4665 181.6147
ENERGY: 600000 0.3429 3.2584 2.1867 0.0000 -13034.2455 2066.9782 0.0000 0.0000 1059.7619 -9901.7173 181.8263 -10961.4793 -9898.6113 180.3179 -464.4287 -378.1652 28752.6389 3.3242 3.2471
TCL: Running 100000 steps at 210 kelvin.
TCL: Setting parameter langevinTemp to 210
TCL: Running for 100000 steps
ETITLE: TS BOND ANGLE DIHED IMPRP ELECT VDW BOUNDARY MISC KINETIC TOTAL TEMP POTENTIAL TOTAL3 TEMPAVG PRESSURE GPRESSURE VOLUME PRESSAVG GPRESSAVG
ENERGY: 600000 0.3429 3.2584 2.1867 0.0000 -13034.2455 2066.9782 0.0000 0.0000 1059.2595 -9902.2197 181.7401 -10961.4793 -9900.2971 181.7401 -431.2040 -377.1465 28752.6389 -431.2040 -377.1465
ENERGY: 700000 0.5839 3.2239 1.1009 0.0000 -12661.2103 2143.3046 0.0000 0.0000 1257.4204 -9255.5765 215.7391 -10512.9968 -9253.2614 209.4756 2043.8545 2095.4019 28369.4277 4.1013 4.1563
TCL: Running 100000 steps at 240 kelvin.
TCL: Setting parameter langevinTemp to 240
TCL: Running for 100000 steps
ETITLE: TS BOND ANGLE DIHED IMPRP ELECT VDW BOUNDARY MISC KINETIC TOTAL TEMP POTENTIAL TOTAL3 TEMPAVG PRESSURE GPRESSURE VOLUME PRESSAVG GPRESSAVG
ENERGY: 700000 0.5839 3.2239 1.1009 0.0000 -12661.2103 2143.3046 0.0000 0.0000 1256.8121 -9256.1847 215.6347 -10512.9968 -9255.1257 215.6347 2026.1684 2095.3640 28369.4277 2026.1684 2095.3640
ENERGY: 800000 0.3626 3.6523 2.4134 0.0000 -11655.1983 1661.0113 0.0000 0.0000 1397.5607 -8590.1980 239.7833 -9987.7587 -8586.9628 239.1445 -253.8190 -184.5698 28954.9553 4.8438 4.6738
TCL: Running 100000 steps at 270 kelvin.
TCL: Setting parameter langevinTemp to 270
TCL: Running for 100000 steps
ETITLE: TS BOND ANGLE DIHED IMPRP ELECT VDW BOUNDARY MISC KINETIC TOTAL TEMP POTENTIAL TOTAL3 TEMPAVG PRESSURE GPRESSURE VOLUME PRESSAVG GPRESSAVG
ENERGY: 800000 0.3626 3.6523 2.4134 0.0000 -11655.1983 1661.0113 0.0000 0.0000 1396.8487 -8590.9100 239.6612 -9987.7587 -8588.6880 239.6612 -270.8584 -184.2829 28954.9553 -270.8584 -184.2829
ENERGY: 900000 1.1118 3.1416 1.1046 0.0000 -11181.5748 1615.8201 0.0000 0.0000 1558.0793 -8002.3173 267.3240 -9560.3967 -8002.4299 270.3503 829.2433 869.8538 29119.4884 3.4705 3.4392
TCL: Running 1000000 steps at 300 kelvin.
TCL: Setting parameter langevinTemp to 300
TCL: Running for 1000000 steps
ETITLE: TS BOND ANGLE DIHED IMPRP ELECT VDW BOUNDARY MISC KINETIC TOTAL TEMP POTENTIAL TOTAL3 TEMPAVG PRESSURE GPRESSURE VOLUME PRESSAVG GPRESSAVG
ENERGY: 900000 1.1118 3.1416 1.1046 0.0000 -11181.5748 1615.8201 0.0000 0.0000 1557.2550 -8003.1416 267.1825 -9560.3966 -8000.9983 267.1825 777.6297 866.8843 29119.4884 777.6297 866.8843
ENERGY: 1100000 1.0921 4.9886 1.8522 0.0000 -10603.4399 1437.5318 0.0000 0.0000 1751.5911 -7406.3841 300.5253 -9157.9752 -7402.7295 299.5304 131.0893 170.6081 30436.7175 3.3798 3.4384
ENERGY: 1300000 2.1027 7.7092 3.6878 0.0000 -10661.2480 1463.9783 0.0000 0.0000 1738.5043 -7445.2657 298.2800 -9183.7701 -7441.8786 299.9507 384.3044 399.2170 30639.3673 2.1397 2.0845
ENERGY: 1500000 0.4352 2.8239 2.5320 0.0000 -10580.9959 1376.1238 0.0000 0.0000 1706.7066 -7492.3745 292.8244 -9199.0811 -7488.2499 299.6723 -346.3414 -311.0295 30026.8721 4.2439 4.0765
ENERGY: 1700000 1.2153 7.3593 4.8569 0.0000 -10780.5899 1456.7915 0.0000 0.0000 1762.6658 -7547.7010 302.4254 -9310.3669 -7543.8622 299.9723 94.2085 141.4259 29935.3176 2.9028 2.7902
ENERGY: 1900000 1.2256 9.1112 3.9459 0.0000 -10680.8404 1512.4416 0.0000 0.0000 1774.4599 -7379.6562 304.4490 -9154.1161 -7375.6063 300.4964 968.7981 994.3864 29923.5667 2.6625 2.6595
TCL: Exiting due to exit command.
