Info: SIMULATION PARAMETERS:
Info: TIMESTEP               2
Info: NUMBER OF STEPS        0
Info: STEPS PER CYCLE        10
Info: PERIODIC CELL BASIS 1  34.986 0 0
Info: PERIODIC CELL BASIS 2  0 31.785 0
Info: PERIODIC CELL BASIS 3  0 0 39.271
Info: PERIODIC CELL CENTER   0 0 0
Info: WRAPPING WATERS AROUND PERIODIC BOUNDARIES ON OUTPUT.
Info: WRAPPING ALL CLUSTERS AROUND PERIODIC BOUNDARIES ON OUTPUT.
Info: FIRST LDB TIMESTEP     50
Info: LAST LDB TIMESTEP     -1
Info: HOM BACKGROUND SCALING 1
Info: PME BACKGROUND SCALING 1
Info: MIN ATOMS PER PATCH    40
Info: EMPTY PATCH LOAD       40 ATOMS
Info: INITIAL TEMPERATURE    300
Info: CENTER OF MASS MOVING INITIALLY? NO
Info: DIELECTRIC             1
Info: EXCLUDE                SCALED ONE-FOUR
Info: 1-4 ELECTROSTATICS SCALED BY 0.833333
Info: MODIFIED 1-4 VDW PARAMETERS WILL BE USED
Info: DCD FILENAME           mobley_4609460_equil.dcd
Info: DCD FREQUENCY          100000
Info: DCD FIRST STEP         100000
Info: DCD FILE WILL CONTAIN UNIT CELL DATA
Info: XST FILENAME           mobley_4609460_equil.xst
Info: XST FREQUENCY          100000
Info: NO VELOCITY DCD OUTPUT
Info: NO FORCE DCD OUTPUT
Info: OUTPUT FILENAME        mobley_4609460_equil
Info: BINARY OUTPUT FILES WILL BE USED
Info: RESTART FILENAME       mobley_4609460_equil.restart
Info: RESTART FREQUENCY      100000
Info: BINARY RESTART FILES WILL BE USED
Info: CUTOFF                 9
Info: PAIRLIST DISTANCE      11
Info: PAIRLIST SHRINK RATE   0.01
Info: PAIRLIST GROW RATE     0.01
Info: PAIRLIST TRIGGER       0.3
Info: PAIRLISTS PER CYCLE    2
Info: PAIRLISTS ENABLED
Info: MARGIN                 8
Info: HYDROGEN GROUP CUTOFF  2.5
Info: PATCH DIMENSION        21.5
Info: ENERGY OUTPUT STEPS    100000
Info: ENERGY EVALUATION STEPS    100000
Info: OUTPUT ENERGY PRECISION 4
Info: CROSSTERM ENERGY INCLUDED IN DIHEDRAL
Info: TIMING OUTPUT STEPS    1000000
Info: PRESSURE OUTPUT STEPS  100000
Info: LANGEVIN DYNAMICS ACTIVE
Info: LANGEVIN TEMPERATURE   30
Info: LANGEVIN USING BBK INTEGRATOR
Info: LANGEVIN DAMPING COEFFICIENT IS 1 INVERSE PS
Info: LANGEVIN DYNAMICS APPLIED TO HYDROGENS
Info: LANGEVIN PISTON PRESSURE CONTROL ACTIVE
Info:        TARGET PRESSURE IS 1.01325 BAR
Info:     OSCILLATION PERIOD IS 50 FS
Info:             DECAY TIME IS 25 FS
Info:     PISTON TEMPERATURE IS 300 K
Info:       PRESSURE CONTROL IS GROUP-BASED
Info:    INITIAL STRAIN RATE IS 0 0 0
Info:       CELL FLUCTUATION IS ISOTROPIC
Info: PARTICLE MESH EWALD (PME) ACTIVE
Info: PME TOLERANCE               1e-06
Info: PME EWALD COEFFICIENT       0.348832
Info: PME INTERPOLATION ORDER     4
Info: PME GRID DIMENSIONS         36 32 40
Info: PME MAXIMUM GRID SPACING    1
Info: FULL ELECTROSTATIC EVALUATION FREQUENCY      2
Info: USING VERLET I (r-RESPA) MTS SCHEME.
Info: C1 SPLITTING OF LONG RANGE ELECTROSTATICS
Info: PLACING ATOMS IN PATCHES BY HYDROGEN GROUPS
Info: RIGID BONDS TO HYDROGEN : ALL
Info:         ERROR TOLERANCE : 1e-08
Info:          MAX ITERATIONS : 100
Info: RIGID WATER USING SETTLE ALGORITHM
Info: RANDOM NUMBER SEED     1743244795
Info: USE HYDROGEN BONDS?    NO
Info: Using AMBER format force field!
Info: AMBER PARM FILE        mobley_4609460.prmtop
Info: COORDINATE PDB         mobley_4609460.pdb
Info: Exclusions will be read from PARM file!
Info: SCNB (VDW SCALING)     2
Info: USING ARITHMETIC MEAN TO COMBINE L-J SIGMA PARAMETERS
Info: BINARY COORDINATES     mobley_4609460_min.coor
Info: SUMMARY OF PARAMETERS:
Info: 13 BONDS
Info: 15 ANGLES
Info:   15 HARMONIC
Info:   0 COSINE-BASED
Info: 12 DIHEDRAL
Info: 0 IMPROPER
Info: 0 CROSSTERM
Info: 0 VDW
Info: 55 VDW_PAIRS
Info: 0 NBTHOLE_PAIRS
Info: STRUCTURE SUMMARY:
Info: 2929 ATOMS
Info: 2929 BONDS
Info: 35 ANGLES
Info: 56 DIHEDRALS
Info: 0 IMPROPERS
Info: 0 CROSSTERMS
Info: 3005 EXCLUSIONS
Info: 2917 RIGID BONDS
Info: 5870 DEGREES OF FREEDOM
Info: 981 HYDROGEN GROUPS
Info: 4 ATOMS IN LARGEST HYDROGEN GROUP
Info: 981 MIGRATION GROUPS
Info: 4 ATOMS IN LARGEST MIGRATION GROUP
Info: TOTAL MASS = 17623.7 amu
Info: TOTAL CHARGE = 5.96046e-08 e
Info: MASS DENSITY = 0.670143 g/cm^3
Info: ATOM DENSITY = 0.0670704 atoms/A^3
Info: ADDED 0 IMPLICIT EXCLUSIONS
Info: NONBONDED TABLE R-SQUARED SPACING: 0.0625
Info: NONBONDED TABLE SIZE: 705 POINTS
Info: REMOVING COM VELOCITY -0.0796812 0.0530866 -0.029265
TCL: Running for 100000 steps
ETITLE: TS BOND ANGLE DIHED IMPRP ELECT VDW BOUNDARY MISC KINETIC TOTAL TEMP POTENTIAL TOTAL3 TEMPAVG PRESSURE GPRESSURE VOLUME PRESSAVG GPRESSAVG
ENERGY: 0 0.3279 0.4826 2.6925 0.0000 -13556.3101 2398.0053 0.0000 0.0000 1747.3180 -9407.4839 299.5879 -11154.8018 -9407.1279 299.5879 563.2034 598.6428 43670.5305 563.2034 598.6428
ENERGY: 100000 0.6469 1.2615 3.8731 0.0000 -14079.3135 2422.7532 0.0000 0.0000 173.7985 -11476.9802 29.7988 -11650.7787 -11476.5365 30.9303 -344.5019 -282.1435 28809.8925 4.1216 4.1514
TCL: Running 100000 steps at 60 kelvin.
TCL: Setting parameter langevinTemp to 60
TCL: Running for 100000 steps
ETITLE: TS BOND ANGLE DIHED IMPRP ELECT VDW BOUNDARY MISC KINETIC TOTAL TEMP POTENTIAL TOTAL3 TEMPAVG PRESSURE GPRESSURE VOLUME PRESSAVG GPRESSAVG
ENERGY: 100000 0.6469 1.2615 3.8731 0.0000 -14079.3135 2422.7532 0.0000 0.0000 173.7119 -11477.0668 29.7839 -11650.7787 -11476.6247 29.7839 -340.1496 -282.1127 28809.8925 -340.1496 -282.1127
ENERGY: 200000 1.1351 1.9225 4.1724 0.0000 -14057.5460 2440.6995 0.0000 0.0000 347.1510 -11262.4655 59.5211 -11609.6165 -11261.1816 59.8614 112.1959 175.3477 28395.9297 4.9484 4.8582
TCL: Running 100000 steps at 90 kelvin.
TCL: Setting parameter langevinTemp to 90
TCL: Running for 100000 steps
ETITLE: TS BOND ANGLE DIHED IMPRP ELECT VDW BOUNDARY MISC KINETIC TOTAL TEMP POTENTIAL TOTAL3 TEMPAVG PRESSURE GPRESSURE VOLUME PRESSAVG GPRESSAVG
ENERGY: 200000 1.1351 1.9225 4.1724 0.0000 -14057.5460 2440.6995 0.0000 0.0000 346.9791 -11262.6373 59.4916 -11609.6165 -11261.9560 59.4916 106.0414 175.6439 28395.9297 106.0414 175.6439
ENERGY: 300000 0.8460 2.4574 4.8763 0.0000 -13752.4702 2251.1345 0.0000 0.0000 528.1272 -10965.0287 90.5505 -11493.1559 -10963.2331 89.8523 -944.6717 -856.0437 28643.3649 3.5029 3.4985
TCL: Running 100000 steps at 120 kelvin.
TCL: Setting parameter langevinTemp to 120
TCL: Running for 100000 steps
ETITLE: TS BOND ANGLE DIHED IMPRP ELECT VDW BOUNDARY MISC KINETIC TOTAL TEMP POTENTIAL TOTAL3 TEMPAVG PRESSURE GPRESSURE VOLUME PRESSAVG GPRESSAVG
ENERGY: 300000 0.8460 2.4574 4.8763 0.0000 -13752.4702 2251.1345 0.0000 0.0000 527.8664 -10965.2895 90.5058 -11493.1559 -10964.3016 90.5058 -918.9983 -855.6139 28643.3649 -918.9983 -855.6139
ENERGY: 400000 2.4448 2.4919 4.4026 0.0000 -13693.7236 2321.4140 0.0000 0.0000 704.1793 -10658.7910 120.7357 -11362.9703 -10656.8732 119.8612 232.7830 287.3668 28186.6903 4.0492 4.0645
TCL: Running 100000 steps at 150 kelvin.
TCL: Setting parameter langevinTemp to 150
TCL: Running for 100000 steps
ETITLE: TS BOND ANGLE DIHED IMPRP ELECT VDW BOUNDARY MISC KINETIC TOTAL TEMP POTENTIAL TOTAL3 TEMPAVG PRESSURE GPRESSURE VOLUME PRESSAVG GPRESSAVG
ENERGY: 400000 2.4448 2.4919 4.4026 0.0000 -13693.7236 2321.4140 0.0000 0.0000 703.8182 -10659.1521 120.6737 -11362.9703 -10657.5671 120.6737 233.8219 287.3207 28186.6903 233.8219 287.3207
ENERGY: 500000 2.1174 4.1576 6.1662 0.0000 -13351.0318 2137.4292 0.0000 0.0000 849.8065 -10351.3550 145.7043 -11201.1615 -10349.3645 149.8761 -883.7466 -825.8667 28722.9020 5.1557 4.9963
TCL: Running 100000 steps at 180 kelvin.
TCL: Setting parameter langevinTemp to 180
TCL: Running for 100000 steps
ETITLE: TS BOND ANGLE DIHED IMPRP ELECT VDW BOUNDARY MISC KINETIC TOTAL TEMP POTENTIAL TOTAL3 TEMPAVG PRESSURE GPRESSURE VOLUME PRESSAVG GPRESSAVG
ENERGY: 500000 2.1174 4.1576 6.1662 0.0000 -13351.0318 2137.4292 0.0000 0.0000 849.3607 -10351.8008 145.6279 -11201.1615 -10349.8357 145.6279 -874.5723 -826.2969 28722.9020 -874.5723 -826.2969
ENERGY: 600000 3.3824 5.1050 4.4070 0.0000 -13004.7403 2140.5420 0.0000 0.0000 1057.3336 -9793.9704 181.2860 -10851.3039 -9791.5888 180.3114 249.1886 395.8935 28745.5683 3.5666 3.6419
TCL: Running 100000 steps at 210 kelvin.
TCL: Setting parameter langevinTemp to 210
TCL: Running for 100000 steps
ETITLE: TS BOND ANGLE DIHED IMPRP ELECT VDW BOUNDARY MISC KINETIC TOTAL TEMP POTENTIAL TOTAL3 TEMPAVG PRESSURE GPRESSURE VOLUME PRESSAVG GPRESSAVG
ENERGY: 600000 3.3824 5.1050 4.4070 0.0000 -13004.7403 2140.5420 0.0000 0.0000 1056.8025 -9794.5014 181.1950 -10851.3039 -9792.9331 181.1950 312.0013 395.9104 28745.5683 312.0013 395.9104
ENERGY: 700000 2.4103 3.9711 3.7253 0.0000 -12327.1686 1862.7806 0.0000 0.0000 1243.6763 -9210.6049 213.2356 -10454.2812 -9207.8278 210.1861 -349.0317 -231.8469 28904.4063 3.8424 3.7761
TCL: Running 100000 steps at 240 kelvin.
TCL: Setting parameter langevinTemp to 240
TCL: Running for 100000 steps
ETITLE: TS BOND ANGLE DIHED IMPRP ELECT VDW BOUNDARY MISC KINETIC TOTAL TEMP POTENTIAL TOTAL3 TEMPAVG PRESSURE GPRESSURE VOLUME PRESSAVG GPRESSAVG
ENERGY: 700000 2.4103 3.9711 3.7253 0.0000 -12327.1686 1862.7806 0.0000 0.0000 1243.0834 -9211.1978 213.1339 -10454.2812 -9209.1254 213.1339 -313.0358 -233.0542 28904.4063 -313.0358 -233.0542
ENERGY: 800000 2.9376 8.2580 9.3135 0.0000 -11755.4610 1706.0255 0.0000 0.0000 1412.6023 -8616.3241 242.1989 -10028.9264 -8616.0413 239.7116 -187.7296 -121.6964 28968.2828 3.5385 3.5346
TCL: Running 100000 steps at 270 kelvin.
TCL: Setting parameter langevinTemp to 270
TCL: Running for 100000 steps
ETITLE: TS BOND ANGLE DIHED IMPRP ELECT VDW BOUNDARY MISC KINETIC TOTAL TEMP POTENTIAL TOTAL3 TEMPAVG PRESSURE GPRESSURE VOLUME PRESSAVG GPRESSAVG
ENERGY: 800000 2.9376 8.2580 9.3135 0.0000 -11755.4610 1706.0255 0.0000 0.0000 1411.9001 -8617.0263 242.0785 -10028.9264 -8614.3903 242.0785 -197.1353 -124.7688 28968.2828 -197.1353 -124.7688
ENERGY: 900000 5.1845 6.8180 6.3493 0.0000 -11058.7529 1502.5552 0.0000 0.0000 1590.3796 -7947.4663 272.6799 -9537.8459 -7946.6767 270.2148 -283.7148 -172.0752 29322.8150 4.6749 4.5318
TCL: Running 1000000 steps at 300 kelvin.
TCL: Setting parameter langevinTemp to 300
TCL: Running for 1000000 steps
ETITLE: TS BOND ANGLE DIHED IMPRP ELECT VDW BOUNDARY MISC KINETIC TOTAL TEMP POTENTIAL TOTAL3 TEMPAVG PRESSURE GPRESSURE VOLUME PRESSAVG GPRESSAVG
ENERGY: 900000 5.1845 6.8180 6.3493 0.0000 -11058.7529 1502.5552 0.0000 0.0000 1589.5882 -7948.2577 272.5442 -9537.8459 -7945.3109 272.5442 -262.7201 -172.2310 29322.8150 -262.7201 -172.2310
ENERGY: 1100000 3.2375 13.9087 7.4369 0.0000 -10681.2850 1429.0194 0.0000 0.0000 1835.7030 -7391.9795 314.7420 -9227.6825 -7388.5408 299.9010 242.6705 315.2631 29869.1792 2.7592 2.8160
ENERGY: 1300000 4.0269 6.7053 8.2960 0.0000 -10629.8776 1382.0179 0.0000 0.0000 1762.9873 -7465.8443 302.2745 -9228.8316 -7461.7530 300.7990 -345.2489 -303.8752 30379.5473 3.6028 3.7115
ENERGY: 1500000 6.6281 8.8550 9.1725 0.0000 -10622.9838 1365.9924 0.0000 0.0000 1747.8294 -7484.5064 299.6756 -9232.3358 -7477.9980 300.4622 -638.8759 -600.7832 30010.3287 3.6231 3.7088
ENERGY: 1700000 2.4327 7.3017 6.3467 0.0000 -10566.0610 1374.0743 0.0000 0.0000 1782.3745 -7393.5312 305.5985 -9175.9057 -7389.6301 300.2276 -440.3682 -330.7238 30350.3944 2.8291 3.0036
ENERGY: 1900000 2.6020 6.6934 8.2031 0.0000 -10648.2835 1419.0788 0.0000 0.0000 1759.9085 -7451.7976 301.7466 -9211.7061 -7447.6485 300.3044 186.1175 227.3086 29859.5051 3.8152 3.9113
TCL: Exiting due to exit command.
