Info: SIMULATION PARAMETERS:
Info: TIMESTEP               2
Info: NUMBER OF STEPS        0
Info: STEPS PER CYCLE        10
Info: PERIODIC CELL BASIS 1  36.592 0 0
Info: PERIODIC CELL BASIS 2  0 34.1 0
Info: PERIODIC CELL BASIS 3  0 0 36.199
Info: PERIODIC CELL CENTER   0 0 0
Info: WRAPPING WATERS AROUND PERIODIC BOUNDARIES ON OUTPUT.
Info: WRAPPING ALL CLUSTERS AROUND PERIODIC BOUNDARIES ON OUTPUT.
Info: FIRST LDB TIMESTEP     50
Info: LAST LDB TIMESTEP     -1
Info: HOM BACKGROUND SCALING 1
Info: PME BACKGROUND SCALING 1
Info: MIN ATOMS PER PATCH    40
Info: EMPTY PATCH LOAD       40 ATOMS
Info: INITIAL TEMPERATURE    300
Info: CENTER OF MASS MOVING INITIALLY? NO
Info: DIELECTRIC             1
Info: EXCLUDE                SCALED ONE-FOUR
Info: 1-4 ELECTROSTATICS SCALED BY 0.833333
Info: MODIFIED 1-4 VDW PARAMETERS WILL BE USED
Info: DCD FILENAME           mobley_7176290_equil.dcd
Info: DCD FREQUENCY          100000
Info: DCD FIRST STEP         100000
Info: DCD FILE WILL CONTAIN UNIT CELL DATA
Info: XST FILENAME           mobley_7176290_equil.xst
Info: XST FREQUENCY          100000
Info: NO VELOCITY DCD OUTPUT
Info: NO FORCE DCD OUTPUT
Info: OUTPUT FILENAME        mobley_7176290_equil
Info: BINARY OUTPUT FILES WILL BE USED
Info: RESTART FILENAME       mobley_7176290_equil.restart
Info: RESTART FREQUENCY      100000
Info: BINARY RESTART FILES WILL BE USED
Info: CUTOFF                 9
Info: PAIRLIST DISTANCE      11
Info: PAIRLIST SHRINK RATE   0.01
Info: PAIRLIST GROW RATE     0.01
Info: PAIRLIST TRIGGER       0.3
Info: PAIRLISTS PER CYCLE    2
Info: PAIRLISTS ENABLED
Info: MARGIN                 8
Info: HYDROGEN GROUP CUTOFF  2.5
Info: PATCH DIMENSION        21.5
Info: ENERGY OUTPUT STEPS    100000
Info: ENERGY EVALUATION STEPS    100000
Info: OUTPUT ENERGY PRECISION 4
Info: CROSSTERM ENERGY INCLUDED IN DIHEDRAL
Info: TIMING OUTPUT STEPS    1000000
Info: PRESSURE OUTPUT STEPS  100000
Info: LANGEVIN DYNAMICS ACTIVE
Info: LANGEVIN TEMPERATURE   30
Info: LANGEVIN USING BBK INTEGRATOR
Info: LANGEVIN DAMPING COEFFICIENT IS 1 INVERSE PS
Info: LANGEVIN DYNAMICS APPLIED TO HYDROGENS
Info: LANGEVIN PISTON PRESSURE CONTROL ACTIVE
Info:        TARGET PRESSURE IS 1.01325 BAR
Info:     OSCILLATION PERIOD IS 50 FS
Info:             DECAY TIME IS 25 FS
Info:     PISTON TEMPERATURE IS 300 K
Info:       PRESSURE CONTROL IS GROUP-BASED
Info:    INITIAL STRAIN RATE IS 0 0 0
Info:       CELL FLUCTUATION IS ISOTROPIC
Info: PARTICLE MESH EWALD (PME) ACTIVE
Info: PME TOLERANCE               1e-06
Info: PME EWALD COEFFICIENT       0.348832
Info: PME INTERPOLATION ORDER     4
Info: PME GRID DIMENSIONS         40 36 40
Info: PME MAXIMUM GRID SPACING    1
Info: FULL ELECTROSTATIC EVALUATION FREQUENCY      2
Info: USING VERLET I (r-RESPA) MTS SCHEME.
Info: C1 SPLITTING OF LONG RANGE ELECTROSTATICS
Info: PLACING ATOMS IN PATCHES BY HYDROGEN GROUPS
Info: RIGID BONDS TO HYDROGEN : ALL
Info:         ERROR TOLERANCE : 1e-08
Info:          MAX ITERATIONS : 100
Info: RIGID WATER USING SETTLE ALGORITHM
Info: RANDOM NUMBER SEED     1743228759
Info: USE HYDROGEN BONDS?    NO
Info: Using AMBER format force field!
Info: AMBER PARM FILE        mobley_7176290.prmtop
Info: COORDINATE PDB         mobley_7176290.pdb
Info: Exclusions will be read from PARM file!
Info: SCNB (VDW SCALING)     2
Info: USING ARITHMETIC MEAN TO COMBINE L-J SIGMA PARAMETERS
Info: BINARY COORDINATES     mobley_7176290_min.coor
Info: SUMMARY OF PARAMETERS:
Info: 8 BONDS
Info: 7 ANGLES
Info:   7 HARMONIC
Info:   0 COSINE-BASED
Info: 4 DIHEDRAL
Info: 0 IMPROPER
Info: 0 CROSSTERM
Info: 0 VDW
Info: 28 VDW_PAIRS
Info: 0 NBTHOLE_PAIRS
Info: STRUCTURE SUMMARY:
Info: 3000 ATOMS
Info: 3000 BONDS
Info: 22 ANGLES
Info: 36 DIHEDRALS
Info: 0 IMPROPERS
Info: 0 CROSSTERMS
Info: 3049 EXCLUSIONS
Info: 2990 RIGID BONDS
Info: 6010 DEGREES OF FREEDOM
Info: 1005 HYDROGEN GROUPS
Info: 3 ATOMS IN LARGEST HYDROGEN GROUP
Info: 1005 MIGRATION GROUPS
Info: 3 ATOMS IN LARGEST MIGRATION GROUP
Info: TOTAL MASS = 18065 amu
Info: TOTAL CHARGE = -0.000200011 e
Info: MASS DENSITY = 0.664142 g/cm^3
Info: ATOM DENSITY = 0.0664177 atoms/A^3
Info: ADDED 0 IMPLICIT EXCLUSIONS
Info: NONBONDED TABLE R-SQUARED SPACING: 0.0625
Info: NONBONDED TABLE SIZE: 705 POINTS
Info: REMOVING COM VELOCITY 0.0586905 -0.0108529 0.0055637
TCL: Running for 100000 steps
ETITLE: TS BOND ANGLE DIHED IMPRP ELECT VDW BOUNDARY MISC KINETIC TOTAL TEMP POTENTIAL TOTAL3 TEMPAVG PRESSURE GPRESSURE VOLUME PRESSAVG GPRESSAVG
ENERGY: 0 0.3830 0.3299 0.8510 0.0000 -13831.2408 2464.0292 0.0000 0.0000 1783.2190 -9582.4288 298.6212 -11365.6478 -9582.1066 298.6212 702.4088 733.0955 45168.6489 702.4088 733.0955
ENERGY: 100000 0.7635 0.7688 0.9240 0.0000 -14467.0167 2481.7605 0.0000 0.0000 182.0423 -11800.7575 30.4851 -11982.7999 -11800.1762 30.9412 -317.3741 -252.8261 28893.5694 3.4799 3.5468
TCL: Running 100000 steps at 60 kelvin.
TCL: Setting parameter langevinTemp to 60
TCL: Running for 100000 steps
ETITLE: TS BOND ANGLE DIHED IMPRP ELECT VDW BOUNDARY MISC KINETIC TOTAL TEMP POTENTIAL TOTAL3 TEMPAVG PRESSURE GPRESSURE VOLUME PRESSAVG GPRESSAVG
ENERGY: 100000 0.7635 0.7688 0.9240 0.0000 -14467.0167 2481.7605 0.0000 0.0000 181.9523 -11800.8475 30.4701 -11982.7999 -11800.4787 30.4701 -306.5161 -252.7847 28893.5694 -306.5161 -252.7847
ENERGY: 200000 1.9275 0.8958 1.7811 0.0000 -14331.0259 2452.3351 0.0000 0.0000 353.5923 -11520.4941 59.2132 -11874.0864 -11519.1987 60.0552 -92.0279 -44.6433 28723.9387 4.1024 4.1117
TCL: Running 100000 steps at 90 kelvin.
TCL: Setting parameter langevinTemp to 90
TCL: Running for 100000 steps
ETITLE: TS BOND ANGLE DIHED IMPRP ELECT VDW BOUNDARY MISC KINETIC TOTAL TEMP POTENTIAL TOTAL3 TEMPAVG PRESSURE GPRESSURE VOLUME PRESSAVG GPRESSAVG
ENERGY: 200000 1.9275 0.8958 1.7811 0.0000 -14331.0259 2452.3351 0.0000 0.0000 353.4148 -11520.6716 59.1835 -11874.0864 -11519.9488 59.1835 -98.2148 -44.2151 28723.9387 -98.2148 -44.2151
ENERGY: 300000 0.5782 1.4427 2.5376 0.0000 -14137.3917 2372.2033 0.0000 0.0000 536.3030 -11224.3268 89.8103 -11760.6299 -11222.4731 90.1304 -192.4366 -173.4223 28947.0292 2.9337 3.0091
TCL: Running 100000 steps at 120 kelvin.
TCL: Setting parameter langevinTemp to 120
TCL: Running for 100000 steps
ETITLE: TS BOND ANGLE DIHED IMPRP ELECT VDW BOUNDARY MISC KINETIC TOTAL TEMP POTENTIAL TOTAL3 TEMPAVG PRESSURE GPRESSURE VOLUME PRESSAVG GPRESSAVG
ENERGY: 300000 0.5782 1.4427 2.5376 0.0000 -14137.3917 2372.2033 0.0000 0.0000 536.0361 -11224.5937 89.7656 -11760.6299 -11223.4565 89.7656 -228.3973 -172.9435 28947.0292 -228.3973 -172.9435
ENERGY: 400000 2.0803 0.9483 2.3983 0.0000 -14131.2323 2458.4812 0.0000 0.0000 718.2341 -10949.0902 120.2768 -11667.3242 -10947.8412 119.7668 876.2302 970.2504 28708.9281 3.5949 3.6815
TCL: Running 100000 steps at 150 kelvin.
TCL: Setting parameter langevinTemp to 150
TCL: Running for 100000 steps
ETITLE: TS BOND ANGLE DIHED IMPRP ELECT VDW BOUNDARY MISC KINETIC TOTAL TEMP POTENTIAL TOTAL3 TEMPAVG PRESSURE GPRESSURE VOLUME PRESSAVG GPRESSAVG
ENERGY: 400000 2.0803 0.9483 2.3983 0.0000 -14131.2323 2458.4812 0.0000 0.0000 717.8815 -10949.4427 120.2178 -11667.3242 -10947.9247 120.2178 916.5037 970.0439 28708.9281 916.5037 970.0439
ENERGY: 500000 3.4348 2.7205 3.0560 0.0000 -13562.2368 2080.2415 0.0000 0.0000 887.9788 -10584.8051 148.7026 -11472.7839 -10582.9282 150.0209 -1770.1713 -1755.1667 29372.5160 3.6792 3.6961
TCL: Running 100000 steps at 180 kelvin.
TCL: Setting parameter langevinTemp to 180
TCL: Running for 100000 steps
ETITLE: TS BOND ANGLE DIHED IMPRP ELECT VDW BOUNDARY MISC KINETIC TOTAL TEMP POTENTIAL TOTAL3 TEMPAVG PRESSURE GPRESSURE VOLUME PRESSAVG GPRESSAVG
ENERGY: 500000 3.4348 2.7205 3.0560 0.0000 -13562.2368 2080.2415 0.0000 0.0000 887.5307 -10585.2533 148.6275 -11472.7839 -10583.4522 148.6275 -1805.7805 -1755.2968 29372.5160 -1805.7805 -1755.2968
ENERGY: 600000 1.2090 2.1693 2.1831 0.0000 -13254.4820 2118.3298 0.0000 0.0000 1107.3696 -10023.2212 185.4422 -11130.5908 -10019.2785 180.0712 -45.4777 23.0328 29109.4275 4.0892 4.0268
TCL: Running 100000 steps at 210 kelvin.
TCL: Setting parameter langevinTemp to 210
TCL: Running for 100000 steps
ETITLE: TS BOND ANGLE DIHED IMPRP ELECT VDW BOUNDARY MISC KINETIC TOTAL TEMP POTENTIAL TOTAL3 TEMPAVG PRESSURE GPRESSURE VOLUME PRESSAVG GPRESSAVG
ENERGY: 600000 1.2090 2.1693 2.1831 0.0000 -13254.4820 2118.3298 0.0000 0.0000 1106.8219 -10023.7689 185.3505 -11130.5908 -10021.3708 185.3505 -33.2338 23.3592 29109.4275 -33.2338 23.3592
ENERGY: 700000 1.3715 5.7575 3.2451 0.0000 -12442.2780 1862.7347 0.0000 0.0000 1240.4303 -9328.7388 207.7248 -10569.1691 -9327.2424 209.7311 -53.6300 8.0210 29029.9337 4.3676 4.4144
TCL: Running 100000 steps at 240 kelvin.
TCL: Setting parameter langevinTemp to 240
TCL: Running for 100000 steps
ETITLE: TS BOND ANGLE DIHED IMPRP ELECT VDW BOUNDARY MISC KINETIC TOTAL TEMP POTENTIAL TOTAL3 TEMPAVG PRESSURE GPRESSURE VOLUME PRESSAVG GPRESSAVG
ENERGY: 700000 1.3715 5.7575 3.2451 0.0000 -12442.2780 1862.7347 0.0000 0.0000 1239.7936 -9329.3756 207.6181 -10569.1691 -9327.6313 207.6181 -83.1291 6.1974 29029.9337 -83.1291 6.1974
ENERGY: 800000 3.5162 2.5702 3.8785 0.0000 -12019.6244 1784.2336 0.0000 0.0000 1439.5116 -8785.9144 241.0633 -10225.4260 -8781.4270 240.2090 29.8328 128.6890 29652.4651 3.2384 3.3710
TCL: Running 100000 steps at 270 kelvin.
TCL: Setting parameter langevinTemp to 270
TCL: Running for 100000 steps
ETITLE: TS BOND ANGLE DIHED IMPRP ELECT VDW BOUNDARY MISC KINETIC TOTAL TEMP POTENTIAL TOTAL3 TEMPAVG PRESSURE GPRESSURE VOLUME PRESSAVG GPRESSAVG
ENERGY: 800000 3.5162 2.5702 3.8785 0.0000 -12019.6244 1784.2336 0.0000 0.0000 1438.7701 -8786.6558 240.9391 -10225.4260 -8784.4734 240.9391 51.7524 130.1752 29652.4651 51.7524 130.1752
ENERGY: 900000 2.0114 2.2433 3.3878 0.0000 -11210.8929 1452.1170 0.0000 0.0000 1626.1026 -8125.0308 272.3102 -9751.1334 -8120.3639 269.5325 -1060.8056 -971.0482 30592.4912 3.1193 3.1556
TCL: Running 1000000 steps at 300 kelvin.
TCL: Setting parameter langevinTemp to 300
TCL: Running for 1000000 steps
ETITLE: TS BOND ANGLE DIHED IMPRP ELECT VDW BOUNDARY MISC KINETIC TOTAL TEMP POTENTIAL TOTAL3 TEMPAVG PRESSURE GPRESSURE VOLUME PRESSAVG GPRESSAVG
ENERGY: 900000 2.0114 2.2433 3.3878 0.0000 -11210.8929 1452.1170 0.0000 0.0000 1625.2868 -8125.8467 272.1735 -9751.1334 -8122.3567 272.1735 -1064.7857 -971.2053 30592.4912 -1064.7857 -971.2053
ENERGY: 1100000 3.6568 4.9398 3.8732 0.0000 -10737.7809 1375.6397 0.0000 0.0000 1787.0893 -7562.5821 299.2693 -9349.6714 -7558.6036 300.3098 -480.4741 -348.9914 31066.1796 3.1859 3.0779
ENERGY: 1300000 1.4870 4.4239 1.8169 0.0000 -10914.8444 1498.8535 0.0000 0.0000 1789.4002 -7618.8628 299.6563 -9408.2630 -7616.5903 300.0806 265.6475 380.1245 30967.7758 2.7848 2.6363
ENERGY: 1500000 2.9117 5.3831 5.0994 0.0000 -10837.0775 1419.2068 0.0000 0.0000 1810.0405 -7594.4361 303.1127 -9404.4765 -7593.0917 300.1032 -521.5611 -403.7529 31048.4619 3.8033 3.6315
ENERGY: 1700000 2.5712 5.3679 5.3979 0.0000 -11006.4224 1508.7789 0.0000 0.0000 1819.9843 -7664.3222 304.7780 -9484.3065 -7660.4205 300.1967 66.7600 182.1880 30937.0826 4.3188 4.3289
ENERGY: 1900000 3.3121 2.7253 5.3813 0.0000 -10856.7237 1445.2098 0.0000 0.0000 1779.7187 -7620.3764 298.0350 -9400.0952 -7617.3461 299.6570 -122.9174 21.3304 30750.5563 3.5286 3.6481
TCL: Exiting due to exit command.
