Info: SIMULATION PARAMETERS:
Info: TIMESTEP               2
Info: NUMBER OF STEPS        0
Info: STEPS PER CYCLE        10
Info: PERIODIC CELL BASIS 1  35.89 0 0
Info: PERIODIC CELL BASIS 2  0 33.399 0
Info: PERIODIC CELL BASIS 3  0 0 37.195
Info: PERIODIC CELL CENTER   0 0 0
Info: WRAPPING WATERS AROUND PERIODIC BOUNDARIES ON OUTPUT.
Info: WRAPPING ALL CLUSTERS AROUND PERIODIC BOUNDARIES ON OUTPUT.
Info: FIRST LDB TIMESTEP     50
Info: LAST LDB TIMESTEP     -1
Info: HOM BACKGROUND SCALING 1
Info: PME BACKGROUND SCALING 1
Info: MIN ATOMS PER PATCH    40
Info: EMPTY PATCH LOAD       40 ATOMS
Info: INITIAL TEMPERATURE    300
Info: CENTER OF MASS MOVING INITIALLY? NO
Info: DIELECTRIC             1
Info: EXCLUDE                SCALED ONE-FOUR
Info: 1-4 ELECTROSTATICS SCALED BY 0.833333
Info: MODIFIED 1-4 VDW PARAMETERS WILL BE USED
Info: DCD FILENAME           mobley_5449201_equil.dcd
Info: DCD FREQUENCY          100000
Info: DCD FIRST STEP         100000
Info: DCD FILE WILL CONTAIN UNIT CELL DATA
Info: XST FILENAME           mobley_5449201_equil.xst
Info: XST FREQUENCY          100000
Info: NO VELOCITY DCD OUTPUT
Info: NO FORCE DCD OUTPUT
Info: OUTPUT FILENAME        mobley_5449201_equil
Info: BINARY OUTPUT FILES WILL BE USED
Info: RESTART FILENAME       mobley_5449201_equil.restart
Info: RESTART FREQUENCY      100000
Info: BINARY RESTART FILES WILL BE USED
Info: CUTOFF                 9
Info: PAIRLIST DISTANCE      11
Info: PAIRLIST SHRINK RATE   0.01
Info: PAIRLIST GROW RATE     0.01
Info: PAIRLIST TRIGGER       0.3
Info: PAIRLISTS PER CYCLE    2
Info: PAIRLISTS ENABLED
Info: MARGIN                 8
Info: HYDROGEN GROUP CUTOFF  2.5
Info: PATCH DIMENSION        21.5
Info: ENERGY OUTPUT STEPS    100000
Info: ENERGY EVALUATION STEPS    100000
Info: OUTPUT ENERGY PRECISION 4
Info: CROSSTERM ENERGY INCLUDED IN DIHEDRAL
Info: TIMING OUTPUT STEPS    1000000
Info: PRESSURE OUTPUT STEPS  100000
Info: LANGEVIN DYNAMICS ACTIVE
Info: LANGEVIN TEMPERATURE   30
Info: LANGEVIN USING BBK INTEGRATOR
Info: LANGEVIN DAMPING COEFFICIENT IS 1 INVERSE PS
Info: LANGEVIN DYNAMICS APPLIED TO HYDROGENS
Info: LANGEVIN PISTON PRESSURE CONTROL ACTIVE
Info:        TARGET PRESSURE IS 1.01325 BAR
Info:     OSCILLATION PERIOD IS 50 FS
Info:             DECAY TIME IS 25 FS
Info:     PISTON TEMPERATURE IS 300 K
Info:       PRESSURE CONTROL IS GROUP-BASED
Info:    INITIAL STRAIN RATE IS 0 0 0
Info:       CELL FLUCTUATION IS ISOTROPIC
Info: PARTICLE MESH EWALD (PME) ACTIVE
Info: PME TOLERANCE               1e-06
Info: PME EWALD COEFFICIENT       0.348832
Info: PME INTERPOLATION ORDER     4
Info: PME GRID DIMENSIONS         36 36 40
Info: PME MAXIMUM GRID SPACING    1
Info: FULL ELECTROSTATIC EVALUATION FREQUENCY      2
Info: USING VERLET I (r-RESPA) MTS SCHEME.
Info: C1 SPLITTING OF LONG RANGE ELECTROSTATICS
Info: PLACING ATOMS IN PATCHES BY HYDROGEN GROUPS
Info: RIGID BONDS TO HYDROGEN : ALL
Info:         ERROR TOLERANCE : 1e-08
Info:          MAX ITERATIONS : 100
Info: RIGID WATER USING SETTLE ALGORITHM
Info: RANDOM NUMBER SEED     1743241202
Info: USE HYDROGEN BONDS?    NO
Info: Using AMBER format force field!
Info: AMBER PARM FILE        mobley_5449201.prmtop
Info: COORDINATE PDB         mobley_5449201.pdb
Info: Exclusions will be read from PARM file!
Info: SCNB (VDW SCALING)     2
Info: USING ARITHMETIC MEAN TO COMBINE L-J SIGMA PARAMETERS
Info: BINARY COORDINATES     mobley_5449201_min.coor
Info: SUMMARY OF PARAMETERS:
Info: 4 BONDS
Info: 3 ANGLES
Info:   3 HARMONIC
Info:   0 COSINE-BASED
Info: 5 DIHEDRAL
Info: 0 IMPROPER
Info: 0 CROSSTERM
Info: 0 VDW
Info: 10 VDW_PAIRS
Info: 0 NBTHOLE_PAIRS
Info: STRUCTURE SUMMARY:
Info: 2987 ATOMS
Info: 2986 BONDS
Info: 30 ANGLES
Info: 40 DIHEDRALS
Info: 0 IMPROPERS
Info: 0 CROSSTERMS
Info: 3052 EXCLUSIONS
Info: 2982 RIGID BONDS
Info: 5979 DEGREES OF FREEDOM
Info: 995 HYDROGEN GROUPS
Info: 4 ATOMS IN LARGEST HYDROGEN GROUP
Info: 995 MIGRATION GROUPS
Info: 4 ATOMS IN LARGEST MIGRATION GROUP
Info: TOTAL MASS = 17908 amu
Info: TOTAL CHARGE = -0.000200011 e
Info: MASS DENSITY = 0.666983 g/cm^3
Info: ATOM DENSITY = 0.0669952 atoms/A^3
Info: ADDED 0 IMPLICIT EXCLUSIONS
Info: NONBONDED TABLE R-SQUARED SPACING: 0.0625
Info: NONBONDED TABLE SIZE: 705 POINTS
Info: REMOVING COM VELOCITY -0.0599121 -0.105209 0.0574137
TCL: Running for 100000 steps
ETITLE: TS BOND ANGLE DIHED IMPRP ELECT VDW BOUNDARY MISC KINETIC TOTAL TEMP POTENTIAL TOTAL3 TEMPAVG PRESSURE GPRESSURE VOLUME PRESSAVG GPRESSAVG
ENERGY: 0 0.0489 0.1796 0.8894 0.0000 -13866.5216 2435.0770 0.0000 0.0000 1843.0801 -9587.2465 310.2459 -11430.3266 -9586.8732 310.2459 453.9006 486.0561 44585.2786 453.9006 486.0561
ENERGY: 100000 0.0934 0.8743 1.1250 0.0000 -14318.2285 2411.3513 0.0000 0.0000 176.9152 -11727.8694 29.7802 -11904.7845 -11727.2527 30.9567 -860.2515 -795.4253 29124.5537 3.5194 3.4751
TCL: Running 100000 steps at 60 kelvin.
TCL: Setting parameter langevinTemp to 60
TCL: Running for 100000 steps
ETITLE: TS BOND ANGLE DIHED IMPRP ELECT VDW BOUNDARY MISC KINETIC TOTAL TEMP POTENTIAL TOTAL3 TEMPAVG PRESSURE GPRESSURE VOLUME PRESSAVG GPRESSAVG
ENERGY: 100000 0.0934 0.8743 1.1250 0.0000 -14318.2285 2411.3513 0.0000 0.0000 176.8274 -11727.9571 29.7654 -11904.7845 -11727.5213 29.7654 -853.3178 -795.3050 29124.5537 -853.3178 -795.3050
ENERGY: 200000 0.5203 1.9417 0.9556 0.0000 -14354.1272 2537.2151 0.0000 0.0000 348.6435 -11464.8510 58.6872 -11813.4945 -11463.8399 59.9180 710.2807 759.5742 28760.8640 3.9190 3.9563
TCL: Running 100000 steps at 90 kelvin.
TCL: Setting parameter langevinTemp to 90
TCL: Running for 100000 steps
ETITLE: TS BOND ANGLE DIHED IMPRP ELECT VDW BOUNDARY MISC KINETIC TOTAL TEMP POTENTIAL TOTAL3 TEMPAVG PRESSURE GPRESSURE VOLUME PRESSAVG GPRESSAVG
ENERGY: 200000 0.5203 1.9417 0.9556 0.0000 -14354.1272 2537.2151 0.0000 0.0000 348.4725 -11465.0220 58.6584 -11813.4945 -11464.3710 58.6584 710.7237 759.9653 28760.8640 710.7237 759.9653
ENERGY: 300000 0.1475 1.7567 1.3249 0.0000 -14093.3218 2395.8248 0.0000 0.0000 520.7378 -11173.5301 87.6559 -11694.2679 -11172.1428 89.9483 -142.4574 -84.2759 29079.9557 5.0612 5.0340
TCL: Running 100000 steps at 120 kelvin.
TCL: Setting parameter langevinTemp to 120
TCL: Running for 100000 steps
ETITLE: TS BOND ANGLE DIHED IMPRP ELECT VDW BOUNDARY MISC KINETIC TOTAL TEMP POTENTIAL TOTAL3 TEMPAVG PRESSURE GPRESSURE VOLUME PRESSAVG GPRESSAVG
ENERGY: 300000 0.1475 1.7567 1.3249 0.0000 -14093.3218 2395.8248 0.0000 0.0000 520.4767 -11173.7912 87.6119 -11694.2679 -11172.9762 87.6119 -148.0914 -84.4977 29079.9557 -148.0914 -84.4977
ENERGY: 400000 0.2673 4.0463 1.3104 0.0000 -13881.0312 2305.7610 0.0000 0.0000 708.0572 -10861.5891 119.1874 -11569.6463 -10859.4788 120.0282 -356.4102 -305.0637 28997.7700 3.6486 3.6058
TCL: Running 100000 steps at 150 kelvin.
TCL: Setting parameter langevinTemp to 150
TCL: Running for 100000 steps
ETITLE: TS BOND ANGLE DIHED IMPRP ELECT VDW BOUNDARY MISC KINETIC TOTAL TEMP POTENTIAL TOTAL3 TEMPAVG PRESSURE GPRESSURE VOLUME PRESSAVG GPRESSAVG
ENERGY: 400000 0.2673 4.0463 1.3104 0.0000 -13881.0312 2305.7610 0.0000 0.0000 707.6977 -10861.9486 119.1268 -11569.6463 -10860.4693 119.1268 -364.4692 -305.0828 28997.7700 -364.4692 -305.0828
ENERGY: 500000 0.3414 1.9642 1.2628 0.0000 -13559.0478 2196.1269 0.0000 0.0000 890.4166 -10468.9359 149.8839 -11359.3526 -10466.1017 149.7831 -639.4617 -537.5231 29384.2275 4.3713 4.3165
TCL: Running 100000 steps at 180 kelvin.
TCL: Setting parameter langevinTemp to 180
TCL: Running for 100000 steps
ETITLE: TS BOND ANGLE DIHED IMPRP ELECT VDW BOUNDARY MISC KINETIC TOTAL TEMP POTENTIAL TOTAL3 TEMPAVG PRESSURE GPRESSURE VOLUME PRESSAVG GPRESSAVG
ENERGY: 500000 0.3414 1.9642 1.2628 0.0000 -13559.0478 2196.1269 0.0000 0.0000 889.9652 -10469.3873 149.8080 -11359.3526 -10467.5984 149.8080 -608.8294 -538.2886 29384.2275 -608.8294 -538.2886
ENERGY: 600000 0.4549 5.3696 1.3796 0.0000 -13394.9299 2214.6627 0.0000 0.0000 1048.0101 -10125.0530 176.4117 -11173.0631 -10122.6848 179.7767 301.3251 420.7353 29304.5854 4.3392 4.3395
TCL: Running 100000 steps at 210 kelvin.
TCL: Setting parameter langevinTemp to 210
TCL: Running for 100000 steps
ETITLE: TS BOND ANGLE DIHED IMPRP ELECT VDW BOUNDARY MISC KINETIC TOTAL TEMP POTENTIAL TOTAL3 TEMPAVG PRESSURE GPRESSURE VOLUME PRESSAVG GPRESSAVG
ENERGY: 600000 0.4549 5.3696 1.3796 0.0000 -13394.9299 2214.6627 0.0000 0.0000 1047.4905 -10125.5727 176.3242 -11173.0631 -10123.7911 176.3242 365.7363 420.8674 29304.5854 365.7363 420.8674
ENERGY: 700000 0.2355 3.5846 1.6150 0.0000 -12563.8714 1871.1032 0.0000 0.0000 1244.6803 -9442.6528 209.5172 -10687.3331 -9440.4323 209.3960 -680.1142 -578.4952 29250.0090 3.6437 3.7319
TCL: Running 100000 steps at 240 kelvin.
TCL: Setting parameter langevinTemp to 240
TCL: Running for 100000 steps
ETITLE: TS BOND ANGLE DIHED IMPRP ELECT VDW BOUNDARY MISC KINETIC TOTAL TEMP POTENTIAL TOTAL3 TEMPAVG PRESSURE GPRESSURE VOLUME PRESSAVG GPRESSAVG
ENERGY: 700000 0.2355 3.5846 1.6150 0.0000 -12563.8714 1871.1032 0.0000 0.0000 1244.0671 -9443.2660 209.4140 -10687.3331 -9440.9242 209.4140 -681.1683 -579.7906 29250.0090 -681.1683 -579.7906
ENERGY: 800000 1.4691 4.6973 1.4092 0.0000 -11774.5761 1640.0164 0.0000 0.0000 1456.7283 -8670.2557 245.2113 -10126.9840 -8668.1599 240.2705 -835.1707 -776.8386 29880.2816 2.3609 2.3656
TCL: Running 100000 steps at 270 kelvin.
TCL: Setting parameter langevinTemp to 270
TCL: Running for 100000 steps
ETITLE: TS BOND ANGLE DIHED IMPRP ELECT VDW BOUNDARY MISC KINETIC TOTAL TEMP POTENTIAL TOTAL3 TEMPAVG PRESSURE GPRESSURE VOLUME PRESSAVG GPRESSAVG
ENERGY: 800000 1.4691 4.6973 1.4092 0.0000 -11774.5761 1640.0164 0.0000 0.0000 1456.0053 -8670.9787 245.0895 -10126.9840 -8668.5468 245.0895 -852.2825 -776.9673 29880.2816 -852.2825 -776.9673
ENERGY: 900000 1.2102 8.1186 2.3648 0.0000 -11415.0437 1656.0846 0.0000 0.0000 1601.3486 -8145.9169 269.5552 -9747.2655 -8142.3329 270.2420 542.8775 673.1922 29921.1513 3.5284 3.6068
TCL: Running 1000000 steps at 300 kelvin.
TCL: Setting parameter langevinTemp to 300
TCL: Running for 1000000 steps
ETITLE: TS BOND ANGLE DIHED IMPRP ELECT VDW BOUNDARY MISC KINETIC TOTAL TEMP POTENTIAL TOTAL3 TEMPAVG PRESSURE GPRESSURE VOLUME PRESSAVG GPRESSAVG
ENERGY: 900000 1.2102 8.1186 2.3648 0.0000 -11415.0437 1656.0846 0.0000 0.0000 1600.5588 -8146.7067 269.4223 -9747.2655 -8144.5277 269.4223 590.1492 674.0319 29921.1513 590.1492 674.0319
ENERGY: 1100000 0.5909 7.6035 1.6417 0.0000 -10704.3672 1389.8237 0.0000 0.0000 1747.0580 -7557.6494 294.0825 -9304.7074 -7552.6671 299.6516 -612.0584 -459.5534 31090.3137 2.4209 2.3206
ENERGY: 1300000 0.5626 8.8151 2.2257 0.0000 -10754.1969 1456.2869 0.0000 0.0000 1811.2772 -7475.0294 304.8925 -9286.3066 -7470.4067 300.6093 237.7073 347.1278 30548.4364 1.8963 1.9441
ENERGY: 1500000 0.5480 9.5722 1.3632 0.0000 -10816.9321 1459.7085 0.0000 0.0000 1797.2717 -7548.4685 302.5350 -9345.7402 -7546.3381 300.0401 159.2633 284.5406 30594.0202 2.6412 2.5880
ENERGY: 1700000 1.4349 8.4802 2.2162 0.0000 -10692.3944 1385.1602 0.0000 0.0000 1772.0852 -7523.0177 298.2953 -9295.1029 -7523.0963 300.4783 -749.1822 -725.2948 31663.0400 2.4103 2.4776
ENERGY: 1900000 0.8531 6.4440 1.4429 0.0000 -10825.3230 1385.1465 0.0000 0.0000 1802.6903 -7628.7461 303.4471 -9431.4364 -7624.9058 300.1790 -850.9036 -685.6795 30652.2707 1.9641 1.8542
TCL: Exiting due to exit command.
