Info: SIMULATION PARAMETERS:
Info: TIMESTEP               2
Info: NUMBER OF STEPS        0
Info: STEPS PER CYCLE        10
Info: PERIODIC CELL BASIS 1  34.207 0 0
Info: PERIODIC CELL BASIS 2  0 35.411 0
Info: PERIODIC CELL BASIS 3  0 0 36.199
Info: PERIODIC CELL CENTER   0 0 0
Info: WRAPPING WATERS AROUND PERIODIC BOUNDARIES ON OUTPUT.
Info: WRAPPING ALL CLUSTERS AROUND PERIODIC BOUNDARIES ON OUTPUT.
Info: FIRST LDB TIMESTEP     50
Info: LAST LDB TIMESTEP     -1
Info: HOM BACKGROUND SCALING 1
Info: PME BACKGROUND SCALING 1
Info: MIN ATOMS PER PATCH    40
Info: EMPTY PATCH LOAD       40 ATOMS
Info: INITIAL TEMPERATURE    300
Info: CENTER OF MASS MOVING INITIALLY? NO
Info: DIELECTRIC             1
Info: EXCLUDE                SCALED ONE-FOUR
Info: 1-4 ELECTROSTATICS SCALED BY 0.833333
Info: MODIFIED 1-4 VDW PARAMETERS WILL BE USED
Info: DCD FILENAME           mobley_2771569_equil.dcd
Info: DCD FREQUENCY          100000
Info: DCD FIRST STEP         100000
Info: DCD FILE WILL CONTAIN UNIT CELL DATA
Info: XST FILENAME           mobley_2771569_equil.xst
Info: XST FREQUENCY          100000
Info: NO VELOCITY DCD OUTPUT
Info: NO FORCE DCD OUTPUT
Info: OUTPUT FILENAME        mobley_2771569_equil
Info: BINARY OUTPUT FILES WILL BE USED
Info: RESTART FILENAME       mobley_2771569_equil.restart
Info: RESTART FREQUENCY      100000
Info: BINARY RESTART FILES WILL BE USED
Info: CUTOFF                 9
Info: PAIRLIST DISTANCE      11
Info: PAIRLIST SHRINK RATE   0.01
Info: PAIRLIST GROW RATE     0.01
Info: PAIRLIST TRIGGER       0.3
Info: PAIRLISTS PER CYCLE    2
Info: PAIRLISTS ENABLED
Info: MARGIN                 8
Info: HYDROGEN GROUP CUTOFF  2.5
Info: PATCH DIMENSION        21.5
Info: ENERGY OUTPUT STEPS    100000
Info: ENERGY EVALUATION STEPS    100000
Info: OUTPUT ENERGY PRECISION 4
Info: CROSSTERM ENERGY INCLUDED IN DIHEDRAL
Info: TIMING OUTPUT STEPS    1000000
Info: PRESSURE OUTPUT STEPS  100000
Info: LANGEVIN DYNAMICS ACTIVE
Info: LANGEVIN TEMPERATURE   30
Info: LANGEVIN USING BBK INTEGRATOR
Info: LANGEVIN DAMPING COEFFICIENT IS 1 INVERSE PS
Info: LANGEVIN DYNAMICS APPLIED TO HYDROGENS
Info: LANGEVIN PISTON PRESSURE CONTROL ACTIVE
Info:        TARGET PRESSURE IS 1.01325 BAR
Info:     OSCILLATION PERIOD IS 50 FS
Info:             DECAY TIME IS 25 FS
Info:     PISTON TEMPERATURE IS 300 K
Info:       PRESSURE CONTROL IS GROUP-BASED
Info:    INITIAL STRAIN RATE IS 0 0 0
Info:       CELL FLUCTUATION IS ISOTROPIC
Info: PARTICLE MESH EWALD (PME) ACTIVE
Info: PME TOLERANCE               1e-06
Info: PME EWALD COEFFICIENT       0.348832
Info: PME INTERPOLATION ORDER     4
Info: PME GRID DIMENSIONS         36 36 40
Info: PME MAXIMUM GRID SPACING    1
Info: FULL ELECTROSTATIC EVALUATION FREQUENCY      2
Info: USING VERLET I (r-RESPA) MTS SCHEME.
Info: C1 SPLITTING OF LONG RANGE ELECTROSTATICS
Info: PLACING ATOMS IN PATCHES BY HYDROGEN GROUPS
Info: RIGID BONDS TO HYDROGEN : ALL
Info:         ERROR TOLERANCE : 1e-08
Info:          MAX ITERATIONS : 100
Info: RIGID WATER USING SETTLE ALGORITHM
Info: RANDOM NUMBER SEED     1743216231
Info: USE HYDROGEN BONDS?    NO
Info: Using AMBER format force field!
Info: AMBER PARM FILE        mobley_2771569.prmtop
Info: COORDINATE PDB         mobley_2771569.pdb
Info: Exclusions will be read from PARM file!
Info: SCNB (VDW SCALING)     2
Info: USING ARITHMETIC MEAN TO COMBINE L-J SIGMA PARAMETERS
Info: BINARY COORDINATES     mobley_2771569_min.coor
Info: SUMMARY OF PARAMETERS:
Info: 6 BONDS
Info: 6 ANGLES
Info:   6 HARMONIC
Info:   0 COSINE-BASED
Info: 3 DIHEDRAL
Info: 0 IMPROPER
Info: 0 CROSSTERM
Info: 0 VDW
Info: 21 VDW_PAIRS
Info: 0 NBTHOLE_PAIRS
Info: STRUCTURE SUMMARY:
Info: 2968 ATOMS
Info: 2968 BONDS
Info: 36 ANGLES
Info: 54 DIHEDRALS
Info: 0 IMPROPERS
Info: 0 CROSSTERMS
Info: 3049 EXCLUSIONS
Info: 2961 RIGID BONDS
Info: 5943 DEGREES OF FREEDOM
Info: 990 HYDROGEN GROUPS
Info: 4 ATOMS IN LARGEST HYDROGEN GROUP
Info: 990 MIGRATION GROUPS
Info: 4 ATOMS IN LARGEST MIGRATION GROUP
Info: TOTAL MASS = 17809.9 amu
Info: TOTAL CHARGE = 9.99197e-05 e
Info: MASS DENSITY = 0.674483 g/cm^3
Info: ATOM DENSITY = 0.0676884 atoms/A^3
Info: ADDED 0 IMPLICIT EXCLUSIONS
Info: NONBONDED TABLE R-SQUARED SPACING: 0.0625
Info: NONBONDED TABLE SIZE: 705 POINTS
Info: REMOVING COM VELOCITY -0.0758834 0.0873115 0.034978
TCL: Running for 100000 steps
ETITLE: TS BOND ANGLE DIHED IMPRP ELECT VDW BOUNDARY MISC KINETIC TOTAL TEMP POTENTIAL TOTAL3 TEMPAVG PRESSURE GPRESSURE VOLUME PRESSAVG GPRESSAVG
ENERGY: 0 0.7287 0.3423 2.9578 0.0000 -13651.0989 2393.9221 0.0000 0.0000 1746.6680 -9506.4800 295.7979 -11253.1481 -9506.1281 295.7979 360.8382 405.3081 43847.9963 360.8382 405.3081
ENERGY: 100000 1.3703 1.7422 3.2360 0.0000 -14369.7175 2551.9061 0.0000 0.0000 175.8699 -11635.5929 29.7835 -11811.4629 -11635.2866 30.9595 384.7330 452.5971 28387.0352 2.5650 2.5374
TCL: Running 100000 steps at 60 kelvin.
TCL: Setting parameter langevinTemp to 60
TCL: Running for 100000 steps
ETITLE: TS BOND ANGLE DIHED IMPRP ELECT VDW BOUNDARY MISC KINETIC TOTAL TEMP POTENTIAL TOTAL3 TEMPAVG PRESSURE GPRESSURE VOLUME PRESSAVG GPRESSAVG
ENERGY: 100000 1.3703 1.7422 3.2360 0.0000 -14369.7175 2551.9061 0.0000 0.0000 175.7814 -11635.6815 29.7685 -11811.4629 -11635.3208 29.7685 399.1313 452.6677 28387.0352 399.1313 452.6677
ENERGY: 200000 1.5308 1.8963 3.2014 0.0000 -14103.6648 2392.9299 0.0000 0.0000 351.5310 -11352.5754 59.5317 -11704.1064 -11351.4402 60.0113 -448.5837 -392.0344 28595.8816 2.6028 2.6477
TCL: Running 100000 steps at 90 kelvin.
TCL: Setting parameter langevinTemp to 90
TCL: Running for 100000 steps
ETITLE: TS BOND ANGLE DIHED IMPRP ELECT VDW BOUNDARY MISC KINETIC TOTAL TEMP POTENTIAL TOTAL3 TEMPAVG PRESSURE GPRESSURE VOLUME PRESSAVG GPRESSAVG
ENERGY: 200000 1.5308 1.8963 3.2014 0.0000 -14103.6648 2392.9299 0.0000 0.0000 351.3614 -11352.7451 59.5030 -11704.1064 -11351.8945 59.5030 -453.9314 -392.0681 28595.8816 -453.9314 -392.0681
ENERGY: 300000 0.4906 2.1950 2.9686 0.0000 -14022.6364 2435.6156 0.0000 0.0000 529.5288 -11051.8377 89.6756 -11581.3665 -11050.3199 89.8819 594.6070 584.9265 28463.9203 2.6656 2.7114
TCL: Running 100000 steps at 120 kelvin.
TCL: Setting parameter langevinTemp to 120
TCL: Running for 100000 steps
ETITLE: TS BOND ANGLE DIHED IMPRP ELECT VDW BOUNDARY MISC KINETIC TOTAL TEMP POTENTIAL TOTAL3 TEMPAVG PRESSURE GPRESSURE VOLUME PRESSAVG GPRESSAVG
ENERGY: 300000 0.4906 2.1950 2.9686 0.0000 -14022.6364 2435.6156 0.0000 0.0000 529.2627 -11052.1038 89.6305 -11581.3665 -11051.3070 89.6305 547.9350 585.2809 28463.9203 547.9350 585.2809
ENERGY: 400000 1.6702 3.0701 3.6499 0.0000 -13810.2108 2352.9105 0.0000 0.0000 707.5953 -10741.3149 119.8311 -11448.9101 -10740.4372 120.0806 580.1564 599.5336 28064.3945 3.8519 3.9043
TCL: Running 100000 steps at 150 kelvin.
TCL: Setting parameter langevinTemp to 150
TCL: Running for 100000 steps
ETITLE: TS BOND ANGLE DIHED IMPRP ELECT VDW BOUNDARY MISC KINETIC TOTAL TEMP POTENTIAL TOTAL3 TEMPAVG PRESSURE GPRESSURE VOLUME PRESSAVG GPRESSAVG
ENERGY: 400000 1.6702 3.0701 3.6499 0.0000 -13810.2108 2352.9105 0.0000 0.0000 707.2369 -10741.6733 119.7704 -11448.9101 -10740.4120 119.7704 541.3709 598.7895 28064.3945 541.3709 598.7895
ENERGY: 500000 0.5607 4.3801 3.2183 0.0000 -13492.0710 2200.8028 0.0000 0.0000 872.7662 -10410.3429 147.8028 -11283.1091 -10407.7530 149.9788 -326.5301 -267.2224 28594.2326 3.6182 3.5313
TCL: Running 100000 steps at 180 kelvin.
TCL: Setting parameter langevinTemp to 180
TCL: Running for 100000 steps
ETITLE: TS BOND ANGLE DIHED IMPRP ELECT VDW BOUNDARY MISC KINETIC TOTAL TEMP POTENTIAL TOTAL3 TEMPAVG PRESSURE GPRESSURE VOLUME PRESSAVG GPRESSAVG
ENERGY: 500000 0.5607 4.3801 3.2183 0.0000 -13492.0710 2200.8028 0.0000 0.0000 872.3137 -10410.7955 147.7261 -11283.1091 -10409.0478 147.7261 -319.4945 -266.6235 28594.2326 -319.4945 -266.6235
ENERGY: 600000 1.8750 5.9593 3.0595 0.0000 -13066.7862 2105.3795 0.0000 0.0000 1008.3694 -9942.1436 170.7671 -10950.5130 -9940.2513 180.2282 -228.0484 -146.5638 29093.9074 4.7059 4.6373
TCL: Running 100000 steps at 210 kelvin.
TCL: Setting parameter langevinTemp to 210
TCL: Running for 100000 steps
ETITLE: TS BOND ANGLE DIHED IMPRP ELECT VDW BOUNDARY MISC KINETIC TOTAL TEMP POTENTIAL TOTAL3 TEMPAVG PRESSURE GPRESSURE VOLUME PRESSAVG GPRESSAVG
ENERGY: 600000 1.8750 5.9593 3.0595 0.0000 -13066.7862 2105.3795 0.0000 0.0000 1007.8372 -9942.6757 170.6770 -10950.5130 -9941.2076 170.6770 -210.6456 -146.6473 29093.9074 -210.6456 -146.6473
ENERGY: 700000 3.7725 3.6190 3.1381 0.0000 -12331.1191 1852.5553 0.0000 0.0000 1240.1063 -9227.9279 210.0117 -10468.0342 -9225.3789 209.6728 -200.6848 -155.9463 28630.9500 2.9001 2.9593
TCL: Running 100000 steps at 240 kelvin.
TCL: Setting parameter langevinTemp to 240
TCL: Running for 100000 steps
ETITLE: TS BOND ANGLE DIHED IMPRP ELECT VDW BOUNDARY MISC KINETIC TOTAL TEMP POTENTIAL TOTAL3 TEMPAVG PRESSURE GPRESSURE VOLUME PRESSAVG GPRESSAVG
ENERGY: 700000 3.7725 3.6190 3.1381 0.0000 -12331.1191 1852.5553 0.0000 0.0000 1239.4832 -9228.5510 209.9062 -10468.0342 -9226.5135 209.9062 -238.8354 -156.0290 28630.9500 -238.8354 -156.0290
ENERGY: 800000 2.4366 10.4104 3.4413 0.0000 -11775.5484 1704.6902 0.0000 0.0000 1427.6813 -8626.8887 241.7775 -10054.5700 -8622.3348 240.0270 -24.5433 -9.4584 29146.5850 3.3345 3.3535
TCL: Running 100000 steps at 270 kelvin.
TCL: Setting parameter langevinTemp to 270
TCL: Running for 100000 steps
ETITLE: TS BOND ANGLE DIHED IMPRP ELECT VDW BOUNDARY MISC KINETIC TOTAL TEMP POTENTIAL TOTAL3 TEMPAVG PRESSURE GPRESSURE VOLUME PRESSAVG GPRESSAVG
ENERGY: 800000 2.4366 10.4104 3.4413 0.0000 -11775.5484 1704.6902 0.0000 0.0000 1426.9967 -8627.5733 241.6616 -10054.5700 -8625.5733 241.6616 -99.6297 -8.0132 29146.5850 -99.6297 -8.0132
ENERGY: 900000 3.1256 4.4317 3.2875 0.0000 -11321.5689 1630.0564 0.0000 0.0000 1553.2882 -8127.3795 263.0490 -9680.6677 -8122.9849 269.4806 212.8685 371.1145 29696.4435 3.9559 3.9470
TCL: Running 1000000 steps at 300 kelvin.
TCL: Setting parameter langevinTemp to 300
TCL: Running for 1000000 steps
ETITLE: TS BOND ANGLE DIHED IMPRP ELECT VDW BOUNDARY MISC KINETIC TOTAL TEMP POTENTIAL TOTAL3 TEMPAVG PRESSURE GPRESSURE VOLUME PRESSAVG GPRESSAVG
ENERGY: 900000 3.1256 4.4317 3.2875 0.0000 -11321.5689 1630.0564 0.0000 0.0000 1552.4440 -8128.2237 262.9061 -9680.6677 -8125.8855 262.9061 294.7035 372.7315 29696.4435 294.7035 372.7315
ENERGY: 1100000 3.0846 6.8653 3.7232 0.0000 -10606.2833 1425.9982 0.0000 0.0000 1750.7681 -7415.8440 296.4922 -9166.6121 -7411.4792 299.8414 -22.8223 65.9840 30876.0074 2.9027 2.6699
ENERGY: 1300000 1.3204 11.7760 3.8386 0.0000 -10777.9259 1494.3671 0.0000 0.0000 1810.7094 -7455.9144 306.6433 -9266.6238 -7451.3600 300.2063 134.8055 202.9447 30695.1578 2.7758 2.7881
ENERGY: 1500000 3.4544 10.6333 4.4771 0.0000 -10642.9628 1366.3716 0.0000 0.0000 1812.7510 -7445.2754 306.9890 -9258.0264 -7441.5985 299.9701 -537.6202 -521.4414 30225.7369 4.1806 4.3856
ENERGY: 1700000 1.7063 4.4145 3.9996 0.0000 -10715.0086 1435.2601 0.0000 0.0000 1776.8149 -7492.8132 300.9032 -9269.6281 -7491.6706 299.7949 -101.1635 -0.0886 30197.7264 3.5867 3.5494
ENERGY: 1900000 5.1837 6.9542 4.1003 0.0000 -10637.2428 1437.7912 0.0000 0.0000 1723.1949 -7460.0186 291.8227 -9183.2134 -7456.7701 300.7389 -438.7550 -355.8311 31001.6377 3.0756 3.1724
TCL: Exiting due to exit command.
