Info: SIMULATION PARAMETERS:
Info: TIMESTEP               2
Info: NUMBER OF STEPS        0
Info: STEPS PER CYCLE        10
Info: PERIODIC CELL BASIS 1  33.251 0 0
Info: PERIODIC CELL BASIS 2  0 36.611 0
Info: PERIODIC CELL BASIS 3  0 0 35.723
Info: PERIODIC CELL CENTER   0 0 0
Info: WRAPPING WATERS AROUND PERIODIC BOUNDARIES ON OUTPUT.
Info: WRAPPING ALL CLUSTERS AROUND PERIODIC BOUNDARIES ON OUTPUT.
Info: FIRST LDB TIMESTEP     50
Info: LAST LDB TIMESTEP     -1
Info: HOM BACKGROUND SCALING 1
Info: PME BACKGROUND SCALING 1
Info: MIN ATOMS PER PATCH    40
Info: EMPTY PATCH LOAD       40 ATOMS
Info: INITIAL TEMPERATURE    300
Info: CENTER OF MASS MOVING INITIALLY? NO
Info: DIELECTRIC             1
Info: EXCLUDE                SCALED ONE-FOUR
Info: 1-4 ELECTROSTATICS SCALED BY 0.833333
Info: MODIFIED 1-4 VDW PARAMETERS WILL BE USED
Info: DCD FILENAME           mobley_8765203_equil.dcd
Info: DCD FREQUENCY          100000
Info: DCD FIRST STEP         100000
Info: DCD FILE WILL CONTAIN UNIT CELL DATA
Info: XST FILENAME           mobley_8765203_equil.xst
Info: XST FREQUENCY          100000
Info: NO VELOCITY DCD OUTPUT
Info: NO FORCE DCD OUTPUT
Info: OUTPUT FILENAME        mobley_8765203_equil
Info: BINARY OUTPUT FILES WILL BE USED
Info: RESTART FILENAME       mobley_8765203_equil.restart
Info: RESTART FREQUENCY      100000
Info: BINARY RESTART FILES WILL BE USED
Info: CUTOFF                 9
Info: PAIRLIST DISTANCE      11
Info: PAIRLIST SHRINK RATE   0.01
Info: PAIRLIST GROW RATE     0.01
Info: PAIRLIST TRIGGER       0.3
Info: PAIRLISTS PER CYCLE    2
Info: PAIRLISTS ENABLED
Info: MARGIN                 8
Info: HYDROGEN GROUP CUTOFF  2.5
Info: PATCH DIMENSION        21.5
Info: ENERGY OUTPUT STEPS    100000
Info: ENERGY EVALUATION STEPS    100000
Info: OUTPUT ENERGY PRECISION 4
Info: CROSSTERM ENERGY INCLUDED IN DIHEDRAL
Info: TIMING OUTPUT STEPS    1000000
Info: PRESSURE OUTPUT STEPS  100000
Info: LANGEVIN DYNAMICS ACTIVE
Info: LANGEVIN TEMPERATURE   30
Info: LANGEVIN USING BBK INTEGRATOR
Info: LANGEVIN DAMPING COEFFICIENT IS 1 INVERSE PS
Info: LANGEVIN DYNAMICS APPLIED TO HYDROGENS
Info: LANGEVIN PISTON PRESSURE CONTROL ACTIVE
Info:        TARGET PRESSURE IS 1.01325 BAR
Info:     OSCILLATION PERIOD IS 50 FS
Info:             DECAY TIME IS 25 FS
Info:     PISTON TEMPERATURE IS 300 K
Info:       PRESSURE CONTROL IS GROUP-BASED
Info:    INITIAL STRAIN RATE IS 0 0 0
Info:       CELL FLUCTUATION IS ISOTROPIC
Info: PARTICLE MESH EWALD (PME) ACTIVE
Info: PME TOLERANCE               1e-06
Info: PME EWALD COEFFICIENT       0.348832
Info: PME INTERPOLATION ORDER     4
Info: PME GRID DIMENSIONS         36 40 36
Info: PME MAXIMUM GRID SPACING    1
Info: FULL ELECTROSTATIC EVALUATION FREQUENCY      2
Info: USING VERLET I (r-RESPA) MTS SCHEME.
Info: C1 SPLITTING OF LONG RANGE ELECTROSTATICS
Info: PLACING ATOMS IN PATCHES BY HYDROGEN GROUPS
Info: RIGID BONDS TO HYDROGEN : ALL
Info:         ERROR TOLERANCE : 1e-08
Info:          MAX ITERATIONS : 100
Info: RIGID WATER USING SETTLE ALGORITHM
Info: RANDOM NUMBER SEED     1743226800
Info: USE HYDROGEN BONDS?    NO
Info: Using AMBER format force field!
Info: AMBER PARM FILE        mobley_8765203.prmtop
Info: COORDINATE PDB         mobley_8765203.pdb
Info: Exclusions will be read from PARM file!
Info: SCNB (VDW SCALING)     2
Info: USING ARITHMETIC MEAN TO COMBINE L-J SIGMA PARAMETERS
Info: BINARY COORDINATES     mobley_8765203_min.coor
Info: SUMMARY OF PARAMETERS:
Info: 8 BONDS
Info: 9 ANGLES
Info:   9 HARMONIC
Info:   0 COSINE-BASED
Info: 5 DIHEDRAL
Info: 0 IMPROPER
Info: 0 CROSSTERM
Info: 0 VDW
Info: 21 VDW_PAIRS
Info: 0 NBTHOLE_PAIRS
Info: STRUCTURE SUMMARY:
Info: 2902 ATOMS
Info: 2901 BONDS
Info: 18 ANGLES
Info: 28 DIHEDRALS
Info: 0 IMPROPERS
Info: 0 CROSSTERMS
Info: 2937 EXCLUSIONS
Info: 2897 RIGID BONDS
Info: 5809 DEGREES OF FREEDOM
Info: 968 HYDROGEN GROUPS
Info: 4 ATOMS IN LARGEST HYDROGEN GROUP
Info: 968 MIGRATION GROUPS
Info: 4 ATOMS IN LARGEST MIGRATION GROUP
Info: TOTAL MASS = 17417.5 amu
Info: TOTAL CHARGE = 0.000200022 e
Info: MASS DENSITY = 0.665091 g/cm^3
Info: ATOM DENSITY = 0.0667319 atoms/A^3
Info: ADDED 0 IMPLICIT EXCLUSIONS
Info: NONBONDED TABLE R-SQUARED SPACING: 0.0625
Info: NONBONDED TABLE SIZE: 705 POINTS
Info: REMOVING COM VELOCITY 0.133881 0.0365242 -0.0138016
TCL: Running for 100000 steps
ETITLE: TS BOND ANGLE DIHED IMPRP ELECT VDW BOUNDARY MISC KINETIC TOTAL TEMP POTENTIAL TOTAL3 TEMPAVG PRESSURE GPRESSURE VOLUME PRESSAVG GPRESSAVG
ENERGY: 0 0.1080 1.1075 9.0579 0.0000 -13483.5020 2348.4441 0.0000 0.0000 1745.5473 -9379.2372 302.4271 -11124.7845 -9378.8778 302.4271 232.9585 260.5415 43487.4784 232.9585 260.5415
ENERGY: 100000 0.0343 0.9475 9.3732 0.0000 -14028.2477 2448.0085 0.0000 0.0000 178.6350 -11391.2491 30.9496 -11569.8841 -11390.7648 30.9241 99.9695 143.8172 28296.7347 3.7907 3.8460
TCL: Running 100000 steps at 60 kelvin.
TCL: Setting parameter langevinTemp to 60
TCL: Running for 100000 steps
ETITLE: TS BOND ANGLE DIHED IMPRP ELECT VDW BOUNDARY MISC KINETIC TOTAL TEMP POTENTIAL TOTAL3 TEMPAVG PRESSURE GPRESSURE VOLUME PRESSAVG GPRESSAVG
ENERGY: 100000 0.0343 0.9475 9.3732 0.0000 -14028.2477 2448.0085 0.0000 0.0000 178.5492 -11391.3349 30.9348 -11569.8841 -11390.9299 30.9348 95.4295 143.8324 28296.7347 95.4295 143.8324
ENERGY: 200000 0.5857 1.2685 9.2972 0.0000 -14053.9932 2501.6444 0.0000 0.0000 348.8926 -11192.3046 60.4478 -11541.1973 -11190.8489 60.0249 728.6450 776.2672 27846.4275 5.8175 5.7960
TCL: Running 100000 steps at 90 kelvin.
TCL: Setting parameter langevinTemp to 90
TCL: Running for 100000 steps
ETITLE: TS BOND ANGLE DIHED IMPRP ELECT VDW BOUNDARY MISC KINETIC TOTAL TEMP POTENTIAL TOTAL3 TEMPAVG PRESSURE GPRESSURE VOLUME PRESSAVG GPRESSAVG
ENERGY: 200000 0.5857 1.2685 9.2972 0.0000 -14053.9932 2501.6444 0.0000 0.0000 348.7191 -11192.4782 60.4178 -11541.1973 -11191.6252 60.4178 735.6728 776.8074 27846.4275 735.6728 776.8074
ENERGY: 300000 0.1419 1.0541 9.2926 0.0000 -13931.2259 2513.9908 0.0000 0.0000 525.7755 -10880.9711 91.0939 -11406.7466 -10879.6312 90.0134 1547.9367 1586.7461 27561.7376 5.3227 5.3007
TCL: Running 100000 steps at 120 kelvin.
TCL: Setting parameter langevinTemp to 120
TCL: Running for 100000 steps
ETITLE: TS BOND ANGLE DIHED IMPRP ELECT VDW BOUNDARY MISC KINETIC TOTAL TEMP POTENTIAL TOTAL3 TEMPAVG PRESSURE GPRESSURE VOLUME PRESSAVG GPRESSAVG
ENERGY: 300000 0.1419 1.0541 9.2926 0.0000 -13931.2259 2513.9908 0.0000 0.0000 525.5137 -10881.2329 91.0486 -11406.7466 -10880.3151 91.0486 1548.6033 1587.0870 27561.7376 1548.6033 1587.0870
ENERGY: 400000 0.1626 2.3658 10.5931 0.0000 -13653.6035 2370.6087 0.0000 0.0000 690.1292 -10579.7440 119.5692 -11269.8732 -10578.4410 120.0976 652.0488 671.0440 28097.5232 3.9915 4.0144
TCL: Running 100000 steps at 150 kelvin.
TCL: Setting parameter langevinTemp to 150
TCL: Running for 100000 steps
ETITLE: TS BOND ANGLE DIHED IMPRP ELECT VDW BOUNDARY MISC KINETIC TOTAL TEMP POTENTIAL TOTAL3 TEMPAVG PRESSURE GPRESSURE VOLUME PRESSAVG GPRESSAVG
ENERGY: 400000 0.1626 2.3658 10.5931 0.0000 -13653.6035 2370.6087 0.0000 0.0000 689.7952 -10580.0780 119.5114 -11269.8732 -10578.5224 119.5114 621.4272 670.8739 28097.5232 621.4272 670.8739
ENERGY: 500000 0.7908 1.0657 10.9970 0.0000 -13468.9171 2338.7630 0.0000 0.0000 878.5699 -10238.7308 152.2178 -11117.3007 -10237.8207 149.7518 993.6033 1085.7564 28122.0439 4.1063 4.1546
TCL: Running 100000 steps at 180 kelvin.
TCL: Setting parameter langevinTemp to 180
TCL: Running for 100000 steps
ETITLE: TS BOND ANGLE DIHED IMPRP ELECT VDW BOUNDARY MISC KINETIC TOTAL TEMP POTENTIAL TOTAL3 TEMPAVG PRESSURE GPRESSURE VOLUME PRESSAVG GPRESSAVG
ENERGY: 500000 0.7908 1.0657 10.9970 0.0000 -13468.9171 2338.7630 0.0000 0.0000 878.1463 -10239.1544 152.1444 -11117.3007 -10237.4117 152.1444 1023.0550 1085.3992 28122.0439 1023.0550 1085.3992
ENERGY: 600000 1.9320 2.9696 10.1472 0.0000 -12782.5409 1950.4677 0.0000 0.0000 1047.0264 -9769.9979 181.4039 -10817.0244 -9764.8081 179.9305 -1225.7568 -1182.9126 28817.1897 3.6537 3.6363
TCL: Running 100000 steps at 210 kelvin.
TCL: Setting parameter langevinTemp to 210
TCL: Running for 100000 steps
ETITLE: TS BOND ANGLE DIHED IMPRP ELECT VDW BOUNDARY MISC KINETIC TOTAL TEMP POTENTIAL TOTAL3 TEMPAVG PRESSURE GPRESSURE VOLUME PRESSAVG GPRESSAVG
ENERGY: 600000 1.9320 2.9696 10.1472 0.0000 -12782.5409 1950.4677 0.0000 0.0000 1046.4984 -9770.5260 181.3124 -10817.0243 -9768.1460 181.3124 -1243.4912 -1181.2845 28817.1897 -1243.4912 -1181.2845
ENERGY: 700000 2.1065 0.9309 10.0365 0.0000 -12115.9562 1751.9422 0.0000 0.0000 1242.9746 -9107.9655 215.3532 -10350.9401 -9105.0437 209.9369 -1213.8233 -1112.9207 28559.4032 4.8130 4.8994
TCL: Running 100000 steps at 240 kelvin.
TCL: Setting parameter langevinTemp to 240
TCL: Running for 100000 steps
ETITLE: TS BOND ANGLE DIHED IMPRP ELECT VDW BOUNDARY MISC KINETIC TOTAL TEMP POTENTIAL TOTAL3 TEMPAVG PRESSURE GPRESSURE VOLUME PRESSAVG GPRESSAVG
ENERGY: 700000 2.1065 0.9309 10.0365 0.0000 -12115.9562 1751.9422 0.0000 0.0000 1242.3692 -9108.5709 215.2483 -10350.9401 -9105.7151 215.2483 -1198.1748 -1115.1989 28559.4032 -1198.1748 -1115.1989
ENERGY: 800000 1.4313 5.9899 11.6256 0.0000 -11553.6648 1704.9708 0.0000 0.0000 1382.3938 -8447.2534 239.5084 -9829.6473 -8442.9180 239.8171 653.5765 657.2236 28426.5242 3.9522 3.9050
TCL: Running 100000 steps at 270 kelvin.
TCL: Setting parameter langevinTemp to 270
TCL: Running for 100000 steps
ETITLE: TS BOND ANGLE DIHED IMPRP ELECT VDW BOUNDARY MISC KINETIC TOTAL TEMP POTENTIAL TOTAL3 TEMPAVG PRESSURE GPRESSURE VOLUME PRESSAVG GPRESSAVG
ENERGY: 800000 1.4313 5.9899 11.6256 0.0000 -11553.6648 1704.9708 0.0000 0.0000 1381.6718 -8447.9755 239.3833 -9829.6473 -8446.0899 239.3833 581.8162 657.7020 28426.5242 581.8162 657.7020
ENERGY: 900000 1.2935 5.9384 10.1396 0.0000 -11083.9749 1557.9887 0.0000 0.0000 1578.9848 -7929.6298 273.5690 -9508.6146 -7926.8889 269.8750 59.7049 103.1332 29165.6488 3.9178 3.8147
TCL: Running 1000000 steps at 300 kelvin.
TCL: Setting parameter langevinTemp to 300
TCL: Running for 1000000 steps
ETITLE: TS BOND ANGLE DIHED IMPRP ELECT VDW BOUNDARY MISC KINETIC TOTAL TEMP POTENTIAL TOTAL3 TEMPAVG PRESSURE GPRESSURE VOLUME PRESSAVG GPRESSAVG
ENERGY: 900000 1.2935 5.9384 10.1396 0.0000 -11083.9749 1557.9887 0.0000 0.0000 1578.2337 -7930.3809 273.4389 -9508.6146 -7928.0408 273.4389 12.2260 102.3348 29165.6488 12.2260 102.3348
ENERGY: 1100000 2.4082 4.5685 11.2988 0.0000 -10508.9428 1364.4418 0.0000 0.0000 1684.1831 -7442.0423 291.7953 -9126.2254 -7440.1969 300.4802 -559.6083 -477.8795 29583.7912 3.0804 3.0420
ENERGY: 1300000 1.7717 4.2052 9.8862 0.0000 -10407.6484 1346.3407 0.0000 0.0000 1722.7465 -7322.6981 298.4767 -9045.4446 -7319.0942 300.8579 -430.0480 -339.9572 30024.5921 2.3893 2.2791
ENERGY: 1500000 2.1316 2.8361 10.1228 0.0000 -10305.2126 1284.7506 0.0000 0.0000 1678.9334 -7326.4380 290.8858 -9005.3714 -7322.9864 300.1159 -936.5405 -814.2671 30229.9491 3.8522 3.9108
ENERGY: 1700000 0.8966 4.1132 10.9401 0.0000 -10490.7493 1393.5155 0.0000 0.0000 1788.7305 -7292.5535 309.9088 -9081.2839 -7288.4621 300.3245 -123.8408 -103.2682 30060.7202 2.5787 2.6504
ENERGY: 1900000 0.8949 2.4012 11.9260 0.0000 -10484.5885 1418.6474 0.0000 0.0000 1702.2717 -7348.4474 294.9293 -9050.7191 -7345.2943 300.7390 -63.3996 64.7045 30098.4895 3.1912 3.2748
TCL: Exiting due to exit command.
