Info: SIMULATION PARAMETERS:
Info: TIMESTEP               2
Info: NUMBER OF STEPS        0
Info: STEPS PER CYCLE        10
Info: PERIODIC CELL BASIS 1  38.156 0 0
Info: PERIODIC CELL BASIS 2  0 34.26 0
Info: PERIODIC CELL BASIS 3  0 0 33.27
Info: PERIODIC CELL CENTER   0 0 0
Info: WRAPPING WATERS AROUND PERIODIC BOUNDARIES ON OUTPUT.
Info: WRAPPING ALL CLUSTERS AROUND PERIODIC BOUNDARIES ON OUTPUT.
Info: FIRST LDB TIMESTEP     50
Info: LAST LDB TIMESTEP     -1
Info: HOM BACKGROUND SCALING 1
Info: PME BACKGROUND SCALING 1
Info: MIN ATOMS PER PATCH    40
Info: EMPTY PATCH LOAD       40 ATOMS
Info: INITIAL TEMPERATURE    300
Info: CENTER OF MASS MOVING INITIALLY? NO
Info: DIELECTRIC             1
Info: EXCLUDE                SCALED ONE-FOUR
Info: 1-4 ELECTROSTATICS SCALED BY 0.833333
Info: MODIFIED 1-4 VDW PARAMETERS WILL BE USED
Info: DCD FILENAME           mobley_6861308_equil.dcd
Info: DCD FREQUENCY          100000
Info: DCD FIRST STEP         100000
Info: DCD FILE WILL CONTAIN UNIT CELL DATA
Info: XST FILENAME           mobley_6861308_equil.xst
Info: XST FREQUENCY          100000
Info: NO VELOCITY DCD OUTPUT
Info: NO FORCE DCD OUTPUT
Info: OUTPUT FILENAME        mobley_6861308_equil
Info: BINARY OUTPUT FILES WILL BE USED
Info: RESTART FILENAME       mobley_6861308_equil.restart
Info: RESTART FREQUENCY      100000
Info: BINARY RESTART FILES WILL BE USED
Info: CUTOFF                 9
Info: PAIRLIST DISTANCE      11
Info: PAIRLIST SHRINK RATE   0.01
Info: PAIRLIST GROW RATE     0.01
Info: PAIRLIST TRIGGER       0.3
Info: PAIRLISTS PER CYCLE    2
Info: PAIRLISTS ENABLED
Info: MARGIN                 8
Info: HYDROGEN GROUP CUTOFF  2.5
Info: PATCH DIMENSION        21.5
Info: ENERGY OUTPUT STEPS    100000
Info: ENERGY EVALUATION STEPS    100000
Info: OUTPUT ENERGY PRECISION 4
Info: CROSSTERM ENERGY INCLUDED IN DIHEDRAL
Info: TIMING OUTPUT STEPS    1000000
Info: PRESSURE OUTPUT STEPS  100000
Info: LANGEVIN DYNAMICS ACTIVE
Info: LANGEVIN TEMPERATURE   30
Info: LANGEVIN USING BBK INTEGRATOR
Info: LANGEVIN DAMPING COEFFICIENT IS 1 INVERSE PS
Info: LANGEVIN DYNAMICS APPLIED TO HYDROGENS
Info: LANGEVIN PISTON PRESSURE CONTROL ACTIVE
Info:        TARGET PRESSURE IS 1.01325 BAR
Info:     OSCILLATION PERIOD IS 50 FS
Info:             DECAY TIME IS 25 FS
Info:     PISTON TEMPERATURE IS 300 K
Info:       PRESSURE CONTROL IS GROUP-BASED
Info:    INITIAL STRAIN RATE IS 0 0 0
Info:       CELL FLUCTUATION IS ISOTROPIC
Info: PARTICLE MESH EWALD (PME) ACTIVE
Info: PME TOLERANCE               1e-06
Info: PME EWALD COEFFICIENT       0.348832
Info: PME INTERPOLATION ORDER     4
Info: PME GRID DIMENSIONS         40 36 36
Info: PME MAXIMUM GRID SPACING    1
Info: FULL ELECTROSTATIC EVALUATION FREQUENCY      2
Info: USING VERLET I (r-RESPA) MTS SCHEME.
Info: C1 SPLITTING OF LONG RANGE ELECTROSTATICS
Info: PLACING ATOMS IN PATCHES BY HYDROGEN GROUPS
Info: RIGID BONDS TO HYDROGEN : ALL
Info:         ERROR TOLERANCE : 1e-08
Info:          MAX ITERATIONS : 100
Info: RIGID WATER USING SETTLE ALGORITHM
Info: RANDOM NUMBER SEED     1743236499
Info: USE HYDROGEN BONDS?    NO
Info: Using AMBER format force field!
Info: AMBER PARM FILE        mobley_6861308.prmtop
Info: COORDINATE PDB         mobley_6861308.pdb
Info: Exclusions will be read from PARM file!
Info: SCNB (VDW SCALING)     2
Info: USING ARITHMETIC MEAN TO COMBINE L-J SIGMA PARAMETERS
Info: BINARY COORDINATES     mobley_6861308_min.coor
Info: SUMMARY OF PARAMETERS:
Info: 10 BONDS
Info: 12 ANGLES
Info:   12 HARMONIC
Info:   0 COSINE-BASED
Info: 7 DIHEDRAL
Info: 0 IMPROPER
Info: 0 CROSSTERM
Info: 0 VDW
Info: 45 VDW_PAIRS
Info: 0 NBTHOLE_PAIRS
Info: STRUCTURE SUMMARY:
Info: 2919 ATOMS
Info: 2919 BONDS
Info: 39 ANGLES
Info: 58 DIHEDRALS
Info: 0 IMPROPERS
Info: 0 CROSSTERMS
Info: 3003 EXCLUSIONS
Info: 2907 RIGID BONDS
Info: 5850 DEGREES OF FREEDOM
Info: 977 HYDROGEN GROUPS
Info: 4 ATOMS IN LARGEST HYDROGEN GROUP
Info: 977 MIGRATION GROUPS
Info: 4 ATOMS IN LARGEST MIGRATION GROUP
Info: TOTAL MASS = 17549.6 amu
Info: TOTAL CHARGE = 0.000199981 e
Info: MASS DENSITY = 0.670077 g/cm^3
Info: ATOM DENSITY = 0.0671168 atoms/A^3
Info: ADDED 0 IMPLICIT EXCLUSIONS
Info: NONBONDED TABLE R-SQUARED SPACING: 0.0625
Info: NONBONDED TABLE SIZE: 705 POINTS
Info: REMOVING COM VELOCITY 0.0896089 -0.00250062 -0.0654111
TCL: Running for 100000 steps
ETITLE: TS BOND ANGLE DIHED IMPRP ELECT VDW BOUNDARY MISC KINETIC TOTAL TEMP POTENTIAL TOTAL3 TEMPAVG PRESSURE GPRESSURE VOLUME PRESSAVG GPRESSAVG
ENERGY: 0 0.4010 1.3234 1.9112 0.0000 -13485.0318 2378.9785 0.0000 0.0000 1746.6525 -9355.7653 300.4976 -11102.4178 -9355.4357 300.4976 482.0714 517.5640 43491.3611 482.0714 517.5640
ENERGY: 100000 0.6230 1.7488 2.1055 0.0000 -14050.0404 2384.2270 0.0000 0.0000 172.7759 -11488.5602 29.7247 -11661.3360 -11488.1301 30.9482 -613.8714 -545.8074 28890.0421 3.6543 3.7276
TCL: Running 100000 steps at 60 kelvin.
TCL: Setting parameter langevinTemp to 60
TCL: Running for 100000 steps
ETITLE: TS BOND ANGLE DIHED IMPRP ELECT VDW BOUNDARY MISC KINETIC TOTAL TEMP POTENTIAL TOTAL3 TEMPAVG PRESSURE GPRESSURE VOLUME PRESSAVG GPRESSAVG
ENERGY: 100000 0.6230 1.7488 2.1055 0.0000 -14050.0404 2384.2270 0.0000 0.0000 172.6885 -11488.6475 29.7097 -11661.3360 -11488.2103 29.7097 -604.6868 -545.8483 28890.0421 -604.6868 -545.8483
ENERGY: 200000 0.5408 2.8516 2.7426 0.0000 -14029.1913 2448.6542 0.0000 0.0000 346.9602 -11227.4419 59.6917 -11574.4021 -11226.3080 59.9219 401.6324 472.1582 28653.9529 4.9932 4.9584
TCL: Running 100000 steps at 90 kelvin.
TCL: Setting parameter langevinTemp to 90
TCL: Running for 100000 steps
ETITLE: TS BOND ANGLE DIHED IMPRP ELECT VDW BOUNDARY MISC KINETIC TOTAL TEMP POTENTIAL TOTAL3 TEMPAVG PRESSURE GPRESSURE VOLUME PRESSAVG GPRESSAVG
ENERGY: 200000 0.5408 2.8516 2.7426 0.0000 -14029.1913 2448.6542 0.0000 0.0000 346.7891 -11227.6130 59.6623 -11574.4021 -11226.7570 59.6623 404.7885 472.3255 28653.9529 404.7885 472.3255
ENERGY: 300000 0.4790 3.0485 4.0887 0.0000 -13864.0795 2391.7640 0.0000 0.0000 540.1357 -10924.5635 92.9260 -11464.6993 -10923.0103 89.6549 323.4846 387.9936 28826.4851 5.1549 5.0486
TCL: Running 100000 steps at 120 kelvin.
TCL: Setting parameter langevinTemp to 120
TCL: Running for 100000 steps
ETITLE: TS BOND ANGLE DIHED IMPRP ELECT VDW BOUNDARY MISC KINETIC TOTAL TEMP POTENTIAL TOTAL3 TEMPAVG PRESSURE GPRESSURE VOLUME PRESSAVG GPRESSAVG
ENERGY: 300000 0.4790 3.0485 4.0887 0.0000 -13864.0795 2391.7640 0.0000 0.0000 539.8653 -10924.8340 92.8795 -11464.6993 -10924.0342 92.8795 338.3508 388.7465 28826.4851 338.3508 388.7465
ENERGY: 400000 2.9803 6.0686 3.4457 0.0000 -13642.7992 2314.8718 0.0000 0.0000 692.8780 -10622.5548 119.2041 -11315.4328 -10620.6923 119.7871 145.5280 191.6828 28732.7758 3.9100 3.8644
TCL: Running 100000 steps at 150 kelvin.
TCL: Setting parameter langevinTemp to 150
TCL: Running for 100000 steps
ETITLE: TS BOND ANGLE DIHED IMPRP ELECT VDW BOUNDARY MISC KINETIC TOTAL TEMP POTENTIAL TOTAL3 TEMPAVG PRESSURE GPRESSURE VOLUME PRESSAVG GPRESSAVG
ENERGY: 400000 2.9803 6.0686 3.4457 0.0000 -13642.7992 2314.8718 0.0000 0.0000 692.5437 -10622.8891 119.1466 -11315.4328 -10621.4539 119.1466 142.6340 191.4027 28732.7758 142.6340 191.4027
ENERGY: 500000 0.7200 5.0744 4.8585 0.0000 -13622.3580 2370.4117 0.0000 0.0000 863.6422 -10377.6511 148.5828 -11241.2933 -10376.5573 149.7871 1158.9334 1213.4064 28506.9562 5.1807 5.2254
TCL: Running 100000 steps at 180 kelvin.
TCL: Setting parameter langevinTemp to 180
TCL: Running for 100000 steps
ETITLE: TS BOND ANGLE DIHED IMPRP ELECT VDW BOUNDARY MISC KINETIC TOTAL TEMP POTENTIAL TOTAL3 TEMPAVG PRESSURE GPRESSURE VOLUME PRESSAVG GPRESSAVG
ENERGY: 500000 0.7200 5.0744 4.8585 0.0000 -13622.3580 2370.4117 0.0000 0.0000 863.2123 -10378.0810 148.5088 -11241.2933 -10376.3859 148.5088 1158.9327 1211.7641 28506.9562 1158.9327 1211.7641
ENERGY: 600000 3.2441 3.9028 3.8665 0.0000 -12998.1898 2077.0275 0.0000 0.0000 1050.5857 -9859.5632 180.7449 -10910.1489 -9857.0834 179.8864 -533.8713 -446.3013 28873.4856 4.9759 4.8804
TCL: Running 100000 steps at 210 kelvin.
TCL: Setting parameter langevinTemp to 210
TCL: Running for 100000 steps
ETITLE: TS BOND ANGLE DIHED IMPRP ELECT VDW BOUNDARY MISC KINETIC TOTAL TEMP POTENTIAL TOTAL3 TEMPAVG PRESSURE GPRESSURE VOLUME PRESSAVG GPRESSAVG
ENERGY: 600000 3.2441 3.9028 3.8665 0.0000 -12998.1898 2077.0275 0.0000 0.0000 1050.0722 -9860.0767 180.6565 -10910.1489 -9858.0939 180.6565 -503.7077 -445.3467 28873.4856 -503.7077 -445.3467
ENERGY: 700000 1.5401 7.9077 6.8620 0.0000 -12196.6883 1802.9069 0.0000 0.0000 1227.1804 -9150.2911 211.1266 -10377.4715 -9146.5620 209.5655 -316.5466 -239.1077 28372.0789 3.3556 3.2148
TCL: Running 100000 steps at 240 kelvin.
TCL: Setting parameter langevinTemp to 240
TCL: Running for 100000 steps
ETITLE: TS BOND ANGLE DIHED IMPRP ELECT VDW BOUNDARY MISC KINETIC TOTAL TEMP POTENTIAL TOTAL3 TEMPAVG PRESSURE GPRESSURE VOLUME PRESSAVG GPRESSAVG
ENERGY: 700000 1.5401 7.9077 6.8620 0.0000 -12196.6883 1802.9069 0.0000 0.0000 1226.5942 -9150.8773 211.0257 -10377.4715 -9148.7802 211.0257 -310.7667 -237.6139 28372.0789 -310.7667 -237.6139
ENERGY: 800000 1.5767 3.9263 4.8518 0.0000 -11709.0907 1694.6921 0.0000 0.0000 1362.3388 -8641.7050 234.3795 -10004.0437 -8639.0950 240.1145 198.9715 313.9140 28491.1319 4.0405 3.7909
TCL: Running 100000 steps at 270 kelvin.
TCL: Setting parameter langevinTemp to 270
TCL: Running for 100000 steps
ETITLE: TS BOND ANGLE DIHED IMPRP ELECT VDW BOUNDARY MISC KINETIC TOTAL TEMP POTENTIAL TOTAL3 TEMPAVG PRESSURE GPRESSURE VOLUME PRESSAVG GPRESSAVG
ENERGY: 800000 1.5767 3.9263 4.8518 0.0000 -11709.0907 1694.6921 0.0000 0.0000 1361.6297 -8642.4141 234.2575 -10004.0437 -8639.4932 234.2575 230.9431 313.4544 28491.1319 230.9431 313.4544
ENERGY: 900000 1.0956 11.6991 5.9109 0.0000 -11221.1543 1598.6109 0.0000 0.0000 1597.0952 -8006.7426 274.7675 -9603.8378 -8002.1963 269.5372 356.6813 434.3298 29314.2484 2.2272 2.1906
TCL: Running 1000000 steps at 300 kelvin.
TCL: Setting parameter langevinTemp to 300
TCL: Running for 1000000 steps
ETITLE: TS BOND ANGLE DIHED IMPRP ELECT VDW BOUNDARY MISC KINETIC TOTAL TEMP POTENTIAL TOTAL3 TEMPAVG PRESSURE GPRESSURE VOLUME PRESSAVG GPRESSAVG
ENERGY: 900000 1.0956 11.6991 5.9109 0.0000 -11221.1543 1598.6109 0.0000 0.0000 1596.3462 -8007.4916 274.6386 -9603.8378 -8005.2857 274.6386 355.6376 435.7256 29314.2484 355.6376 435.7256
ENERGY: 1100000 4.8704 6.4414 12.0699 0.0000 -10717.7613 1487.9491 0.0000 0.0000 1814.7901 -7391.6404 312.2202 -9206.4306 -7389.0028 300.0075 889.6741 1001.1332 29260.5257 3.4638 3.3765
ENERGY: 1300000 6.6071 9.5464 8.3784 0.0000 -10449.3009 1272.1544 0.0000 0.0000 1710.1825 -7442.4321 294.2232 -9152.6146 -7440.5574 299.9709 -1036.3613 -940.3882 29970.5915 3.0742 3.0767
ENERGY: 1500000 3.0444 9.8272 8.1919 0.0000 -10483.8104 1407.9689 0.0000 0.0000 1717.4675 -7337.3105 295.4766 -9054.7780 -7332.3324 299.9372 478.3427 497.7322 29948.9621 2.6577 2.7490
ENERGY: 1700000 2.2680 11.6052 5.3094 0.0000 -10800.1148 1570.8174 0.0000 0.0000 1744.6456 -7465.4691 300.1524 -9210.1147 -7462.2706 300.1150 927.2220 1091.7676 30270.5257 1.7693 1.8355
ENERGY: 1900000 2.9163 9.2460 6.2648 0.0000 -10776.2879 1445.8146 0.0000 0.0000 1736.4410 -7575.6051 298.7408 -9312.0462 -7571.8789 299.5251 43.6553 119.8101 29971.2532 2.8674 2.8626
TCL: Exiting due to exit command.
