Info: SIMULATION PARAMETERS:
Info: TIMESTEP               2
Info: NUMBER OF STEPS        0
Info: STEPS PER CYCLE        10
Info: PERIODIC CELL BASIS 1  32.955 0 0
Info: PERIODIC CELL BASIS 2  0 34.696 0
Info: PERIODIC CELL BASIS 3  0 0 38.379
Info: PERIODIC CELL CENTER   0 0 0
Info: WRAPPING WATERS AROUND PERIODIC BOUNDARIES ON OUTPUT.
Info: WRAPPING ALL CLUSTERS AROUND PERIODIC BOUNDARIES ON OUTPUT.
Info: FIRST LDB TIMESTEP     50
Info: LAST LDB TIMESTEP     -1
Info: HOM BACKGROUND SCALING 1
Info: PME BACKGROUND SCALING 1
Info: MIN ATOMS PER PATCH    40
Info: EMPTY PATCH LOAD       40 ATOMS
Info: INITIAL TEMPERATURE    300
Info: CENTER OF MASS MOVING INITIALLY? NO
Info: DIELECTRIC             1
Info: EXCLUDE                SCALED ONE-FOUR
Info: 1-4 ELECTROSTATICS SCALED BY 0.833333
Info: MODIFIED 1-4 VDW PARAMETERS WILL BE USED
Info: DCD FILENAME           mobley_6359156_equil.dcd
Info: DCD FREQUENCY          100000
Info: DCD FIRST STEP         100000
Info: DCD FILE WILL CONTAIN UNIT CELL DATA
Info: XST FILENAME           mobley_6359156_equil.xst
Info: XST FREQUENCY          100000
Info: NO VELOCITY DCD OUTPUT
Info: NO FORCE DCD OUTPUT
Info: OUTPUT FILENAME        mobley_6359156_equil
Info: BINARY OUTPUT FILES WILL BE USED
Info: RESTART FILENAME       mobley_6359156_equil.restart
Info: RESTART FREQUENCY      100000
Info: BINARY RESTART FILES WILL BE USED
Info: CUTOFF                 9
Info: PAIRLIST DISTANCE      11
Info: PAIRLIST SHRINK RATE   0.01
Info: PAIRLIST GROW RATE     0.01
Info: PAIRLIST TRIGGER       0.3
Info: PAIRLISTS PER CYCLE    2
Info: PAIRLISTS ENABLED
Info: MARGIN                 8
Info: HYDROGEN GROUP CUTOFF  2.5
Info: PATCH DIMENSION        21.5
Info: ENERGY OUTPUT STEPS    100000
Info: ENERGY EVALUATION STEPS    100000
Info: OUTPUT ENERGY PRECISION 4
Info: CROSSTERM ENERGY INCLUDED IN DIHEDRAL
Info: TIMING OUTPUT STEPS    1000000
Info: PRESSURE OUTPUT STEPS  100000
Info: LANGEVIN DYNAMICS ACTIVE
Info: LANGEVIN TEMPERATURE   30
Info: LANGEVIN USING BBK INTEGRATOR
Info: LANGEVIN DAMPING COEFFICIENT IS 1 INVERSE PS
Info: LANGEVIN DYNAMICS APPLIED TO HYDROGENS
Info: LANGEVIN PISTON PRESSURE CONTROL ACTIVE
Info:        TARGET PRESSURE IS 1.01325 BAR
Info:     OSCILLATION PERIOD IS 50 FS
Info:             DECAY TIME IS 25 FS
Info:     PISTON TEMPERATURE IS 300 K
Info:       PRESSURE CONTROL IS GROUP-BASED
Info:    INITIAL STRAIN RATE IS 0 0 0
Info:       CELL FLUCTUATION IS ISOTROPIC
Info: PARTICLE MESH EWALD (PME) ACTIVE
Info: PME TOLERANCE               1e-06
Info: PME EWALD COEFFICIENT       0.348832
Info: PME INTERPOLATION ORDER     4
Info: PME GRID DIMENSIONS         36 36 40
Info: PME MAXIMUM GRID SPACING    1
Info: FULL ELECTROSTATIC EVALUATION FREQUENCY      2
Info: USING VERLET I (r-RESPA) MTS SCHEME.
Info: C1 SPLITTING OF LONG RANGE ELECTROSTATICS
Info: PLACING ATOMS IN PATCHES BY HYDROGEN GROUPS
Info: RIGID BONDS TO HYDROGEN : ALL
Info:         ERROR TOLERANCE : 1e-08
Info:          MAX ITERATIONS : 100
Info: RIGID WATER USING SETTLE ALGORITHM
Info: RANDOM NUMBER SEED     1743235049
Info: USE HYDROGEN BONDS?    NO
Info: Using AMBER format force field!
Info: AMBER PARM FILE        mobley_6359156.prmtop
Info: COORDINATE PDB         mobley_6359156.pdb
Info: Exclusions will be read from PARM file!
Info: SCNB (VDW SCALING)     2
Info: USING ARITHMETIC MEAN TO COMBINE L-J SIGMA PARAMETERS
Info: BINARY COORDINATES     mobley_6359156_min.coor
Info: SUMMARY OF PARAMETERS:
Info: 7 BONDS
Info: 8 ANGLES
Info:   8 HARMONIC
Info:   0 COSINE-BASED
Info: 3 DIHEDRAL
Info: 0 IMPROPER
Info: 0 CROSSTERM
Info: 0 VDW
Info: 15 VDW_PAIRS
Info: 0 NBTHOLE_PAIRS
Info: STRUCTURE SUMMARY:
Info: 2989 ATOMS
Info: 2990 BONDS
Info: 36 ANGLES
Info: 64 DIHEDRALS
Info: 0 IMPROPERS
Info: 0 CROSSTERMS
Info: 3072 EXCLUSIONS
Info: 2975 RIGID BONDS
Info: 5992 DEGREES OF FREEDOM
Info: 1003 HYDROGEN GROUPS
Info: 3 ATOMS IN LARGEST HYDROGEN GROUP
Info: 1003 MIGRATION GROUPS
Info: 3 ATOMS IN LARGEST MIGRATION GROUP
Info: TOTAL MASS = 18040.9 amu
Info: TOTAL CHARGE = -0.000100006 e
Info: MASS DENSITY = 0.68269 g/cm^3
Info: ATOM DENSITY = 0.0681132 atoms/A^3
Info: ADDED 0 IMPLICIT EXCLUSIONS
Info: NONBONDED TABLE R-SQUARED SPACING: 0.0625
Info: NONBONDED TABLE SIZE: 705 POINTS
Info: REMOVING COM VELOCITY 0.039154 -0.0236463 0.0848874
TCL: Running for 100000 steps
ETITLE: TS BOND ANGLE DIHED IMPRP ELECT VDW BOUNDARY MISC KINETIC TOTAL TEMP POTENTIAL TOTAL3 TEMPAVG PRESSURE GPRESSURE VOLUME PRESSAVG GPRESSAVG
ENERGY: 0 0.4174 0.3202 5.2331 0.0000 -13780.5940 2398.0408 0.0000 0.0000 1798.4821 -9578.1005 302.0819 -11376.5825 -9577.7381 302.0819 291.2909 322.5893 43882.8050 291.2909 322.5893
ENERGY: 100000 1.1647 1.6695 5.1119 0.0000 -14392.2264 2529.4907 0.0000 0.0000 183.0665 -11671.7231 30.7488 -11854.7896 -11671.3430 30.9425 107.9319 163.5271 29761.2953 4.2298 4.2094
TCL: Running 100000 steps at 60 kelvin.
TCL: Setting parameter langevinTemp to 60
TCL: Running for 100000 steps
ETITLE: TS BOND ANGLE DIHED IMPRP ELECT VDW BOUNDARY MISC KINETIC TOTAL TEMP POTENTIAL TOTAL3 TEMPAVG PRESSURE GPRESSURE VOLUME PRESSAVG GPRESSAVG
ENERGY: 100000 1.1647 1.6695 5.1119 0.0000 -14392.2264 2529.4907 0.0000 0.0000 182.9774 -11671.8122 30.7338 -11854.7896 -11671.4020 30.7338 101.2506 163.3555 29761.2953 101.2506 163.3555
ENERGY: 200000 1.3522 1.1362 6.5007 0.0000 -14321.3732 2559.9901 0.0000 0.0000 361.3623 -11391.0317 60.6962 -11752.3940 -11389.8996 59.9580 985.2469 1031.3129 29408.1108 4.8469 4.8448
TCL: Running 100000 steps at 90 kelvin.
TCL: Setting parameter langevinTemp to 90
TCL: Running for 100000 steps
ETITLE: TS BOND ANGLE DIHED IMPRP ELECT VDW BOUNDARY MISC KINETIC TOTAL TEMP POTENTIAL TOTAL3 TEMPAVG PRESSURE GPRESSURE VOLUME PRESSAVG GPRESSAVG
ENERGY: 200000 1.3522 1.1362 6.5007 0.0000 -14321.3732 2559.9901 0.0000 0.0000 361.1870 -11391.2070 60.6667 -11752.3940 -11390.5630 60.6667 989.6820 1031.7274 29408.1108 989.6820 1031.7274
ENERGY: 300000 0.7921 0.7558 6.9605 0.0000 -14281.7872 2600.6252 0.0000 0.0000 519.7486 -11152.9051 87.2995 -11672.6536 -11151.6104 90.2039 1520.0574 1600.4732 29146.4611 4.2727 4.2544
TCL: Running 100000 steps at 120 kelvin.
TCL: Setting parameter langevinTemp to 120
TCL: Running for 100000 steps
ETITLE: TS BOND ANGLE DIHED IMPRP ELECT VDW BOUNDARY MISC KINETIC TOTAL TEMP POTENTIAL TOTAL3 TEMPAVG PRESSURE GPRESSURE VOLUME PRESSAVG GPRESSAVG
ENERGY: 300000 0.7921 0.7558 6.9605 0.0000 -14281.7872 2600.6252 0.0000 0.0000 519.4874 -11153.1663 87.2557 -11672.6536 -11152.2446 87.2557 1553.4852 1601.0436 29146.4611 1553.4852 1601.0436
ENERGY: 400000 2.3538 2.0183 7.7415 0.0000 -14083.7774 2523.2250 0.0000 0.0000 721.6372 -10826.8015 121.2097 -11548.4388 -10824.9671 119.7958 1469.8977 1527.8374 28981.3983 3.8753 3.7790
TCL: Running 100000 steps at 150 kelvin.
TCL: Setting parameter langevinTemp to 150
TCL: Running for 100000 steps
ETITLE: TS BOND ANGLE DIHED IMPRP ELECT VDW BOUNDARY MISC KINETIC TOTAL TEMP POTENTIAL TOTAL3 TEMPAVG PRESSURE GPRESSURE VOLUME PRESSAVG GPRESSAVG
ENERGY: 400000 2.3538 2.0183 7.7415 0.0000 -14083.7774 2523.2250 0.0000 0.0000 721.2679 -10827.1709 121.1477 -11548.4388 -10825.8597 121.1477 1473.3053 1527.8026 28981.3983 1473.3053 1527.8026
ENERGY: 500000 1.4770 3.9179 8.4009 0.0000 -13470.8499 2100.7932 0.0000 0.0000 895.4078 -10460.8529 150.3971 -11356.2608 -10458.4566 149.7307 -1115.8700 -1073.9641 29459.4621 4.5098 4.6442
TCL: Running 100000 steps at 180 kelvin.
TCL: Setting parameter langevinTemp to 180
TCL: Running for 100000 steps
ETITLE: TS BOND ANGLE DIHED IMPRP ELECT VDW BOUNDARY MISC KINETIC TOTAL TEMP POTENTIAL TOTAL3 TEMPAVG PRESSURE GPRESSURE VOLUME PRESSAVG GPRESSAVG
ENERGY: 500000 1.4770 3.9179 8.4009 0.0000 -13470.8499 2100.7932 0.0000 0.0000 894.9455 -10461.3153 150.3194 -11356.2608 -10459.1084 150.3194 -1136.4219 -1073.6871 29459.4621 -1136.4219 -1073.6871
ENERGY: 600000 4.8879 3.0579 7.7313 0.0000 -13074.7753 2004.7622 0.0000 0.0000 1101.9920 -9952.3440 185.0960 -11054.3360 -9949.4261 179.8587 -1146.1302 -1099.2734 29718.4144 4.1542 4.0723
TCL: Running 100000 steps at 210 kelvin.
TCL: Setting parameter langevinTemp to 210
TCL: Running for 100000 steps
ETITLE: TS BOND ANGLE DIHED IMPRP ELECT VDW BOUNDARY MISC KINETIC TOTAL TEMP POTENTIAL TOTAL3 TEMPAVG PRESSURE GPRESSURE VOLUME PRESSAVG GPRESSAVG
ENERGY: 600000 4.8879 3.0579 7.7313 0.0000 -13074.7753 2004.7622 0.0000 0.0000 1101.4623 -9952.8737 185.0070 -11054.3360 -9950.5323 185.0070 -1163.3496 -1099.7162 29718.4144 -1163.3496 -1099.7162
ENERGY: 700000 3.0564 7.6964 9.7107 0.0000 -12634.7461 1981.8559 0.0000 0.0000 1241.0428 -9391.3838 208.4516 -10632.4266 -9390.1717 210.0128 856.6750 926.5477 28653.6893 3.7939 3.7679
TCL: Running 100000 steps at 240 kelvin.
TCL: Setting parameter langevinTemp to 240
TCL: Running for 100000 steps
ETITLE: TS BOND ANGLE DIHED IMPRP ELECT VDW BOUNDARY MISC KINETIC TOTAL TEMP POTENTIAL TOTAL3 TEMPAVG PRESSURE GPRESSURE VOLUME PRESSAVG GPRESSAVG
ENERGY: 700000 3.0564 7.6964 9.7107 0.0000 -12634.7461 1981.8559 0.0000 0.0000 1240.4171 -9392.0095 208.3466 -10632.4266 -9389.9150 208.3466 842.8667 924.7427 28653.6893 842.8667 924.7427
ENERGY: 800000 2.5476 4.4845 9.4312 0.0000 -12074.5813 1809.9960 0.0000 0.0000 1441.2003 -8806.9216 242.0711 -10248.1219 -8803.8309 240.0031 366.6186 488.2629 29512.2479 3.0726 3.1161
TCL: Running 100000 steps at 270 kelvin.
TCL: Setting parameter langevinTemp to 270
TCL: Running for 100000 steps
ETITLE: TS BOND ANGLE DIHED IMPRP ELECT VDW BOUNDARY MISC KINETIC TOTAL TEMP POTENTIAL TOTAL3 TEMPAVG PRESSURE GPRESSURE VOLUME PRESSAVG GPRESSAVG
ENERGY: 800000 2.5476 4.4845 9.4312 0.0000 -12074.5813 1809.9960 0.0000 0.0000 1440.5099 -8807.6120 241.9551 -10248.1219 -8805.4029 241.9551 392.6260 490.3001 29512.2479 392.6260 490.3001
ENERGY: 900000 9.5201 3.8307 7.8898 0.0000 -11395.5326 1632.2952 0.0000 0.0000 1537.1684 -8204.8283 258.1904 -9741.9968 -8203.4847 269.6197 351.2178 463.6831 30047.1582 2.8739 2.7383
TCL: Running 1000000 steps at 300 kelvin.
TCL: Setting parameter langevinTemp to 300
TCL: Running for 1000000 steps
ETITLE: TS BOND ANGLE DIHED IMPRP ELECT VDW BOUNDARY MISC KINETIC TOTAL TEMP POTENTIAL TOTAL3 TEMPAVG PRESSURE GPRESSURE VOLUME PRESSAVG GPRESSAVG
ENERGY: 900000 9.5201 3.8307 7.8898 0.0000 -11395.5326 1632.2952 0.0000 0.0000 1536.3732 -8205.6236 258.0568 -9741.9968 -8203.1034 258.0568 393.9227 462.9540 30047.1582 393.9227 462.9540
ENERGY: 1100000 8.5529 8.1506 10.7501 0.0000 -10805.6258 1443.8280 0.0000 0.0000 1772.7118 -7561.6323 297.7534 -9334.3441 -7559.0015 300.0321 -243.1418 -202.3201 31033.7304 2.6662 2.7016
ENERGY: 1300000 7.0920 4.1393 14.4522 0.0000 -10687.0650 1401.4983 0.0000 0.0000 1761.1192 -7498.7639 295.8062 -9259.8831 -7497.4986 299.5530 -123.5898 -108.3927 30770.7569 2.6378 2.8041
ENERGY: 1500000 2.8074 5.2887 12.5681 0.0000 -10689.0205 1371.4486 0.0000 0.0000 1826.5004 -7470.4073 306.7880 -9296.9077 -7464.5899 300.1974 -312.4776 -228.8235 30712.5892 3.0311 3.0670
ENERGY: 1700000 3.1667 4.7581 11.5677 0.0000 -10721.5150 1400.2930 0.0000 0.0000 1792.2749 -7509.4546 301.0393 -9301.7295 -7504.3420 300.5148 -589.1104 -401.8991 31271.0729 3.2197 2.9858
ENERGY: 1900000 4.3472 4.7826 7.3336 0.0000 -10787.8707 1421.6697 0.0000 0.0000 1781.2352 -7568.5022 299.1850 -9349.7375 -7564.9498 300.8516 -456.5328 -336.8418 31019.7589 3.0082 3.0162
TCL: Exiting due to exit command.
