Info: SIMULATION PARAMETERS:
Info: TIMESTEP               2
Info: NUMBER OF STEPS        0
Info: STEPS PER CYCLE        10
Info: PERIODIC CELL BASIS 1  36.592 0 0
Info: PERIODIC CELL BASIS 2  0 33.399 0
Info: PERIODIC CELL BASIS 3  0 0 36.199
Info: PERIODIC CELL CENTER   0 0 0
Info: WRAPPING WATERS AROUND PERIODIC BOUNDARIES ON OUTPUT.
Info: WRAPPING ALL CLUSTERS AROUND PERIODIC BOUNDARIES ON OUTPUT.
Info: FIRST LDB TIMESTEP     50
Info: LAST LDB TIMESTEP     -1
Info: HOM BACKGROUND SCALING 1
Info: PME BACKGROUND SCALING 1
Info: MIN ATOMS PER PATCH    40
Info: EMPTY PATCH LOAD       40 ATOMS
Info: INITIAL TEMPERATURE    300
Info: CENTER OF MASS MOVING INITIALLY? NO
Info: DIELECTRIC             1
Info: EXCLUDE                SCALED ONE-FOUR
Info: 1-4 ELECTROSTATICS SCALED BY 0.833333
Info: MODIFIED 1-4 VDW PARAMETERS WILL BE USED
Info: DCD FILENAME           mobley_9281946_equil.dcd
Info: DCD FREQUENCY          100000
Info: DCD FIRST STEP         100000
Info: DCD FILE WILL CONTAIN UNIT CELL DATA
Info: XST FILENAME           mobley_9281946_equil.xst
Info: XST FREQUENCY          100000
Info: NO VELOCITY DCD OUTPUT
Info: NO FORCE DCD OUTPUT
Info: OUTPUT FILENAME        mobley_9281946_equil
Info: BINARY OUTPUT FILES WILL BE USED
Info: RESTART FILENAME       mobley_9281946_equil.restart
Info: RESTART FREQUENCY      100000
Info: BINARY RESTART FILES WILL BE USED
Info: CUTOFF                 9
Info: PAIRLIST DISTANCE      11
Info: PAIRLIST SHRINK RATE   0.01
Info: PAIRLIST GROW RATE     0.01
Info: PAIRLIST TRIGGER       0.3
Info: PAIRLISTS PER CYCLE    2
Info: PAIRLISTS ENABLED
Info: MARGIN                 8
Info: HYDROGEN GROUP CUTOFF  2.5
Info: PATCH DIMENSION        21.5
Info: ENERGY OUTPUT STEPS    100000
Info: ENERGY EVALUATION STEPS    100000
Info: OUTPUT ENERGY PRECISION 4
Info: CROSSTERM ENERGY INCLUDED IN DIHEDRAL
Info: TIMING OUTPUT STEPS    1000000
Info: PRESSURE OUTPUT STEPS  100000
Info: LANGEVIN DYNAMICS ACTIVE
Info: LANGEVIN TEMPERATURE   30
Info: LANGEVIN USING BBK INTEGRATOR
Info: LANGEVIN DAMPING COEFFICIENT IS 1 INVERSE PS
Info: LANGEVIN DYNAMICS APPLIED TO HYDROGENS
Info: LANGEVIN PISTON PRESSURE CONTROL ACTIVE
Info:        TARGET PRESSURE IS 1.01325 BAR
Info:     OSCILLATION PERIOD IS 50 FS
Info:             DECAY TIME IS 25 FS
Info:     PISTON TEMPERATURE IS 300 K
Info:       PRESSURE CONTROL IS GROUP-BASED
Info:    INITIAL STRAIN RATE IS 0 0 0
Info:       CELL FLUCTUATION IS ISOTROPIC
Info: PARTICLE MESH EWALD (PME) ACTIVE
Info: PME TOLERANCE               1e-06
Info: PME EWALD COEFFICIENT       0.348832
Info: PME INTERPOLATION ORDER     4
Info: PME GRID DIMENSIONS         40 36 40
Info: PME MAXIMUM GRID SPACING    1
Info: FULL ELECTROSTATIC EVALUATION FREQUENCY      2
Info: USING VERLET I (r-RESPA) MTS SCHEME.
Info: C1 SPLITTING OF LONG RANGE ELECTROSTATICS
Info: PLACING ATOMS IN PATCHES BY HYDROGEN GROUPS
Info: RIGID BONDS TO HYDROGEN : ALL
Info:         ERROR TOLERANCE : 1e-08
Info:          MAX ITERATIONS : 100
Info: RIGID WATER USING SETTLE ALGORITHM
Info: RANDOM NUMBER SEED     1743263851
Info: USE HYDROGEN BONDS?    NO
Info: Using AMBER format force field!
Info: AMBER PARM FILE        mobley_9281946.prmtop
Info: COORDINATE PDB         mobley_9281946.pdb
Info: Exclusions will be read from PARM file!
Info: SCNB (VDW SCALING)     2
Info: USING ARITHMETIC MEAN TO COMBINE L-J SIGMA PARAMETERS
Info: BINARY COORDINATES     mobley_9281946_min.coor
Info: SUMMARY OF PARAMETERS:
Info: 13 BONDS
Info: 16 ANGLES
Info:   16 HARMONIC
Info:   0 COSINE-BASED
Info: 12 DIHEDRAL
Info: 0 IMPROPER
Info: 0 CROSSTERM
Info: 0 VDW
Info: 78 VDW_PAIRS
Info: 0 NBTHOLE_PAIRS
Info: STRUCTURE SUMMARY:
Info: 2918 ATOMS
Info: 2918 BONDS
Info: 54 ANGLES
Info: 81 DIHEDRALS
Info: 0 IMPROPERS
Info: 0 CROSSTERMS
Info: 3032 EXCLUSIONS
Info: 2900 RIGID BONDS
Info: 5854 DEGREES OF FREEDOM
Info: 980 HYDROGEN GROUPS
Info: 4 ATOMS IN LARGEST HYDROGEN GROUP
Info: 980 MIGRATION GROUPS
Info: 4 ATOMS IN LARGEST MIGRATION GROUP
Info: TOTAL MASS = 17622.6 amu
Info: TOTAL CHARGE = -0.000100061 e
Info: MASS DENSITY = 0.661476 g/cm^3
Info: ATOM DENSITY = 0.0659582 atoms/A^3
Info: ADDED 0 IMPLICIT EXCLUSIONS
Info: NONBONDED TABLE R-SQUARED SPACING: 0.0625
Info: NONBONDED TABLE SIZE: 705 POINTS
Info: REMOVING COM VELOCITY 0.0357439 -0.137389 0.0332853
TCL: Running for 100000 steps
ETITLE: TS BOND ANGLE DIHED IMPRP ELECT VDW BOUNDARY MISC KINETIC TOTAL TEMP POTENTIAL TOTAL3 TEMPAVG PRESSURE GPRESSURE VOLUME PRESSAVG GPRESSAVG
ENERGY: 0 0.4157 1.5390 27.7462 0.0000 -13436.2658 2370.4563 0.0000 0.0000 1708.3724 -9327.7362 293.7110 -11036.1086 -9327.4175 293.7110 691.6384 721.9962 44240.1086 691.6384 721.9962
ENERGY: 100000 2.3693 4.1694 27.3839 0.0000 -13863.0396 2230.1051 0.0000 0.0000 175.5419 -11423.4701 30.1799 -11599.0120 -11423.1379 30.8872 -1697.3449 -1640.1879 28413.3096 4.9056 4.8739
TCL: Running 100000 steps at 60 kelvin.
TCL: Setting parameter langevinTemp to 60
TCL: Running for 100000 steps
ETITLE: TS BOND ANGLE DIHED IMPRP ELECT VDW BOUNDARY MISC KINETIC TOTAL TEMP POTENTIAL TOTAL3 TEMPAVG PRESSURE GPRESSURE VOLUME PRESSAVG GPRESSAVG
ENERGY: 100000 2.3693 4.1694 27.3839 0.0000 -13863.0396 2230.1051 0.0000 0.0000 175.4544 -11423.5575 30.1649 -11599.0120 -11423.0975 30.1649 -1695.6050 -1640.4022 28413.3096 -1695.6050 -1640.4022
ENERGY: 200000 2.0139 6.2969 27.1884 0.0000 -14028.9955 2431.3354 0.0000 0.0000 357.0969 -11205.0640 61.3937 -11562.1608 -11204.1661 59.8929 448.7021 501.3951 27953.5775 5.5361 5.5101
TCL: Running 100000 steps at 90 kelvin.
TCL: Setting parameter langevinTemp to 90
TCL: Running for 100000 steps
ETITLE: TS BOND ANGLE DIHED IMPRP ELECT VDW BOUNDARY MISC KINETIC TOTAL TEMP POTENTIAL TOTAL3 TEMPAVG PRESSURE GPRESSURE VOLUME PRESSAVG GPRESSAVG
ENERGY: 200000 2.0139 6.2969 27.1884 0.0000 -14028.9955 2431.3354 0.0000 0.0000 356.9207 -11205.2402 61.3634 -11562.1608 -11204.3228 61.3634 435.2476 501.1996 27953.5775 435.2476 501.1996
ENERGY: 300000 3.6123 5.9023 30.0271 0.0000 -13739.0905 2266.2736 0.0000 0.0000 519.9945 -10913.2807 89.3998 -11433.2752 -10912.5939 89.9415 -546.3893 -503.3708 28271.4996 3.8791 3.8509
TCL: Running 100000 steps at 120 kelvin.
TCL: Setting parameter langevinTemp to 120
TCL: Running for 100000 steps
ETITLE: TS BOND ANGLE DIHED IMPRP ELECT VDW BOUNDARY MISC KINETIC TOTAL TEMP POTENTIAL TOTAL3 TEMPAVG PRESSURE GPRESSURE VOLUME PRESSAVG GPRESSAVG
ENERGY: 300000 3.6123 5.9023 30.0271 0.0000 -13739.0905 2266.2736 0.0000 0.0000 519.7332 -10913.5421 89.3548 -11433.2752 -10912.4002 89.3548 -550.6312 -503.3417 28271.4996 -550.6312 -503.3417
ENERGY: 400000 2.4927 9.2535 23.8840 0.0000 -13637.1332 2315.9007 0.0000 0.0000 693.5823 -10592.0202 119.2438 -11285.6024 -10589.7515 119.8595 619.4073 688.7949 28052.0864 3.2898 3.3674
TCL: Running 100000 steps at 150 kelvin.
TCL: Setting parameter langevinTemp to 150
TCL: Running for 100000 steps
ETITLE: TS BOND ANGLE DIHED IMPRP ELECT VDW BOUNDARY MISC KINETIC TOTAL TEMP POTENTIAL TOTAL3 TEMPAVG PRESSURE GPRESSURE VOLUME PRESSAVG GPRESSAVG
ENERGY: 400000 2.4927 9.2535 23.8840 0.0000 -13637.1332 2315.9007 0.0000 0.0000 693.2329 -10592.3695 119.1837 -11285.6024 -10591.1253 119.1837 651.7312 688.8458 28052.0864 651.7312 688.8458
ENERGY: 500000 3.8120 9.0227 17.3983 0.0000 -13411.1820 2207.0748 0.0000 0.0000 854.0878 -10319.7864 146.8386 -11173.8742 -10316.8301 149.7520 -338.2127 -244.6410 28793.5174 4.7463 4.8089
TCL: Running 100000 steps at 180 kelvin.
TCL: Setting parameter langevinTemp to 180
TCL: Running for 100000 steps
ETITLE: TS BOND ANGLE DIHED IMPRP ELECT VDW BOUNDARY MISC KINETIC TOTAL TEMP POTENTIAL TOTAL3 TEMPAVG PRESSURE GPRESSURE VOLUME PRESSAVG GPRESSAVG
ENERGY: 500000 3.8120 9.0227 17.3983 0.0000 -13411.1820 2207.0748 0.0000 0.0000 853.6690 -10320.2052 146.7666 -11173.8742 -10318.4707 146.7666 -294.5516 -243.1068 28793.5174 -294.5516 -243.1068
ENERGY: 600000 1.1804 6.4012 17.5720 0.0000 -12985.2433 2102.3770 0.0000 0.0000 1077.1244 -9780.5883 185.1840 -10857.7127 -9779.1902 180.2396 141.4151 171.9381 28792.0547 5.2630 5.2235
TCL: Running 100000 steps at 210 kelvin.
TCL: Setting parameter langevinTemp to 210
TCL: Running for 100000 steps
ETITLE: TS BOND ANGLE DIHED IMPRP ELECT VDW BOUNDARY MISC KINETIC TOTAL TEMP POTENTIAL TOTAL3 TEMPAVG PRESSURE GPRESSURE VOLUME PRESSAVG GPRESSAVG
ENERGY: 600000 1.1804 6.4012 17.5720 0.0000 -12985.2433 2102.3770 0.0000 0.0000 1076.6100 -9781.1027 185.0956 -10857.7127 -9778.6359 185.0956 108.2172 168.7058 28792.0547 108.2172 168.7058
ENERGY: 700000 5.0910 9.0080 18.0428 0.0000 -12289.0074 1851.3557 0.0000 0.0000 1219.8972 -9185.6127 209.7302 -10405.5099 -9181.5568 210.3378 265.9471 370.9365 28145.6652 4.4280 4.4786
TCL: Running 100000 steps at 240 kelvin.
TCL: Setting parameter langevinTemp to 240
TCL: Running for 100000 steps
ETITLE: TS BOND ANGLE DIHED IMPRP ELECT VDW BOUNDARY MISC KINETIC TOTAL TEMP POTENTIAL TOTAL3 TEMPAVG PRESSURE GPRESSURE VOLUME PRESSAVG GPRESSAVG
ENERGY: 700000 5.0910 9.0080 18.0428 0.0000 -12289.0074 1851.3557 0.0000 0.0000 1219.2780 -9186.2319 209.6237 -10405.5099 -9183.6274 209.6237 285.1978 371.5902 28145.6652 285.1978 371.5902
ENERGY: 800000 8.2625 11.8677 18.5643 0.0000 -11635.0434 1687.8928 0.0000 0.0000 1378.8377 -8529.6184 237.0559 -9908.4561 -8525.8513 239.7923 111.9748 189.4997 28855.9551 2.2706 2.3201
TCL: Running 100000 steps at 270 kelvin.
TCL: Setting parameter langevinTemp to 270
TCL: Running for 100000 steps
ETITLE: TS BOND ANGLE DIHED IMPRP ELECT VDW BOUNDARY MISC KINETIC TOTAL TEMP POTENTIAL TOTAL3 TEMPAVG PRESSURE GPRESSURE VOLUME PRESSAVG GPRESSAVG
ENERGY: 800000 8.2625 11.8677 18.5643 0.0000 -11635.0434 1687.8928 0.0000 0.0000 1378.1452 -8530.3108 236.9369 -9908.4561 -8528.3303 236.9369 93.1618 191.2408 28855.9551 93.1618 191.2408
ENERGY: 900000 5.0282 16.4247 23.5020 0.0000 -11120.3054 1548.3848 0.0000 0.0000 1557.2018 -7969.7639 267.7211 -9526.9658 -7966.1482 269.8961 329.3493 407.4775 28946.9944 2.8520 2.9065
TCL: Running 1000000 steps at 300 kelvin.
TCL: Setting parameter langevinTemp to 300
TCL: Running for 1000000 steps
ETITLE: TS BOND ANGLE DIHED IMPRP ELECT VDW BOUNDARY MISC KINETIC TOTAL TEMP POTENTIAL TOTAL3 TEMPAVG PRESSURE GPRESSURE VOLUME PRESSAVG GPRESSAVG
ENERGY: 900000 5.0282 16.4247 23.5020 0.0000 -11120.3054 1548.3848 0.0000 0.0000 1556.4163 -7970.5495 267.5860 -9526.9658 -7967.8051 267.5860 310.6063 407.4846 28946.9944 310.6063 407.4846
ENERGY: 1100000 5.3967 22.0596 18.3533 0.0000 -10487.2120 1359.0127 0.0000 0.0000 1736.7781 -7345.6116 298.5946 -9082.3897 -7343.9899 300.4619 -518.0089 -450.6564 30564.4343 4.6979 4.7618
ENERGY: 1300000 10.1885 12.0737 20.6443 0.0000 -10576.9849 1421.5027 0.0000 0.0000 1757.3712 -7355.2045 302.1351 -9112.5757 -7353.2352 300.0746 158.4631 216.5620 30265.6389 1.1884 1.1477
ENERGY: 1500000 3.8292 14.9462 22.2055 0.0000 -10626.1013 1415.6307 0.0000 0.0000 1743.7426 -7425.7471 299.7920 -9169.4897 -7423.0892 299.9918 38.5278 119.2392 29748.8256 2.1585 1.9738
ENERGY: 1700000 4.0956 18.1896 20.0987 0.0000 -10666.0062 1450.8185 0.0000 0.0000 1726.7647 -7446.0392 296.8731 -9172.8039 -7444.6514 299.5223 455.6152 544.7396 29721.2626 4.3718 4.3935
ENERGY: 1900000 5.1687 13.9707 17.7277 0.0000 -10618.2439 1397.4369 0.0000 0.0000 1816.4428 -7367.4970 312.2910 -9183.9399 -7364.8574 300.4688 -128.4020 -44.8727 30103.2877 2.6925 2.7182
TCL: Exiting due to exit command.
