Info: SIMULATION PARAMETERS:
Info: TIMESTEP               2
Info: NUMBER OF STEPS        0
Info: STEPS PER CYCLE        10
Info: PERIODIC CELL BASIS 1  36.281 0 0
Info: PERIODIC CELL BASIS 2  0 34.26 0
Info: PERIODIC CELL BASIS 3  0 0 35.723
Info: PERIODIC CELL CENTER   0 0 0
Info: WRAPPING WATERS AROUND PERIODIC BOUNDARIES ON OUTPUT.
Info: WRAPPING ALL CLUSTERS AROUND PERIODIC BOUNDARIES ON OUTPUT.
Info: FIRST LDB TIMESTEP     50
Info: LAST LDB TIMESTEP     -1
Info: HOM BACKGROUND SCALING 1
Info: PME BACKGROUND SCALING 1
Info: MIN ATOMS PER PATCH    40
Info: EMPTY PATCH LOAD       40 ATOMS
Info: INITIAL TEMPERATURE    300
Info: CENTER OF MASS MOVING INITIALLY? NO
Info: DIELECTRIC             1
Info: EXCLUDE                SCALED ONE-FOUR
Info: 1-4 ELECTROSTATICS SCALED BY 0.833333
Info: MODIFIED 1-4 VDW PARAMETERS WILL BE USED
Info: DCD FILENAME           mobley_590519_equil.dcd
Info: DCD FREQUENCY          100000
Info: DCD FIRST STEP         100000
Info: DCD FILE WILL CONTAIN UNIT CELL DATA
Info: XST FILENAME           mobley_590519_equil.xst
Info: XST FREQUENCY          100000
Info: NO VELOCITY DCD OUTPUT
Info: NO FORCE DCD OUTPUT
Info: OUTPUT FILENAME        mobley_590519_equil
Info: BINARY OUTPUT FILES WILL BE USED
Info: RESTART FILENAME       mobley_590519_equil.restart
Info: RESTART FREQUENCY      100000
Info: BINARY RESTART FILES WILL BE USED
Info: CUTOFF                 9
Info: PAIRLIST DISTANCE      11
Info: PAIRLIST SHRINK RATE   0.01
Info: PAIRLIST GROW RATE     0.01
Info: PAIRLIST TRIGGER       0.3
Info: PAIRLISTS PER CYCLE    2
Info: PAIRLISTS ENABLED
Info: MARGIN                 8
Info: HYDROGEN GROUP CUTOFF  2.5
Info: PATCH DIMENSION        21.5
Info: ENERGY OUTPUT STEPS    100000
Info: ENERGY EVALUATION STEPS    100000
Info: OUTPUT ENERGY PRECISION 4
Info: CROSSTERM ENERGY INCLUDED IN DIHEDRAL
Info: TIMING OUTPUT STEPS    1000000
Info: PRESSURE OUTPUT STEPS  100000
Info: LANGEVIN DYNAMICS ACTIVE
Info: LANGEVIN TEMPERATURE   30
Info: LANGEVIN USING BBK INTEGRATOR
Info: LANGEVIN DAMPING COEFFICIENT IS 1 INVERSE PS
Info: LANGEVIN DYNAMICS APPLIED TO HYDROGENS
Info: LANGEVIN PISTON PRESSURE CONTROL ACTIVE
Info:        TARGET PRESSURE IS 1.01325 BAR
Info:     OSCILLATION PERIOD IS 50 FS
Info:             DECAY TIME IS 25 FS
Info:     PISTON TEMPERATURE IS 300 K
Info:       PRESSURE CONTROL IS GROUP-BASED
Info:    INITIAL STRAIN RATE IS 0 0 0
Info:       CELL FLUCTUATION IS ISOTROPIC
Info: PARTICLE MESH EWALD (PME) ACTIVE
Info: PME TOLERANCE               1e-06
Info: PME EWALD COEFFICIENT       0.348832
Info: PME INTERPOLATION ORDER     4
Info: PME GRID DIMENSIONS         40 36 36
Info: PME MAXIMUM GRID SPACING    1
Info: FULL ELECTROSTATIC EVALUATION FREQUENCY      2
Info: USING VERLET I (r-RESPA) MTS SCHEME.
Info: C1 SPLITTING OF LONG RANGE ELECTROSTATICS
Info: PLACING ATOMS IN PATCHES BY HYDROGEN GROUPS
Info: RIGID BONDS TO HYDROGEN : ALL
Info:         ERROR TOLERANCE : 1e-08
Info:          MAX ITERATIONS : 100
Info: RIGID WATER USING SETTLE ALGORITHM
Info: RANDOM NUMBER SEED     1743247804
Info: USE HYDROGEN BONDS?    NO
Info: Using AMBER format force field!
Info: AMBER PARM FILE        mobley_590519.prmtop
Info: COORDINATE PDB         mobley_590519.pdb
Info: Exclusions will be read from PARM file!
Info: SCNB (VDW SCALING)     2
Info: USING ARITHMETIC MEAN TO COMBINE L-J SIGMA PARAMETERS
Info: BINARY COORDINATES     mobley_590519_min.coor
Info: SUMMARY OF PARAMETERS:
Info: 7 BONDS
Info: 7 ANGLES
Info:   7 HARMONIC
Info:   0 COSINE-BASED
Info: 4 DIHEDRAL
Info: 0 IMPROPER
Info: 0 CROSSTERM
Info: 0 VDW
Info: 21 VDW_PAIRS
Info: 0 NBTHOLE_PAIRS
Info: STRUCTURE SUMMARY:
Info: 2914 ATOMS
Info: 2913 BONDS
Info: 26 ANGLES
Info: 26 DIHEDRALS
Info: 0 IMPROPERS
Info: 0 CROSSTERMS
Info: 2964 EXCLUSIONS
Info: 2908 RIGID BONDS
Info: 5834 DEGREES OF FREEDOM
Info: 972 HYDROGEN GROUPS
Info: 4 ATOMS IN LARGEST HYDROGEN GROUP
Info: 972 MIGRATION GROUPS
Info: 4 ATOMS IN LARGEST MIGRATION GROUP
Info: TOTAL MASS = 17525.7 amu
Info: TOTAL CHARGE = -0.000100017 e
Info: MASS DENSITY = 0.65542 g/cm^3
Info: ATOM DENSITY = 0.0656259 atoms/A^3
Info: ADDED 0 IMPLICIT EXCLUSIONS
Info: NONBONDED TABLE R-SQUARED SPACING: 0.0625
Info: NONBONDED TABLE SIZE: 705 POINTS
Info: REMOVING COM VELOCITY -0.131197 0.283509 -0.0266229
TCL: Running for 100000 steps
ETITLE: TS BOND ANGLE DIHED IMPRP ELECT VDW BOUNDARY MISC KINETIC TOTAL TEMP POTENTIAL TOTAL3 TEMPAVG PRESSURE GPRESSURE VOLUME PRESSAVG GPRESSAVG
ENERGY: 0 0.0050 0.1305 0.8211 0.0000 -13443.4140 2357.5705 0.0000 0.0000 1798.1374 -9286.7496 310.2036 -11084.8870 -9286.3685 310.2036 420.0032 453.2282 44403.2267 420.0032 453.2282
ENERGY: 100000 0.0917 0.9379 1.1954 0.0000 -13912.1704 2358.9509 0.0000 0.0000 181.3045 -11369.6900 31.2775 -11550.9945 -11369.2666 31.0612 -461.2232 -413.3736 28650.6771 4.6592 4.6631
TCL: Running 100000 steps at 60 kelvin.
TCL: Setting parameter langevinTemp to 60
TCL: Running for 100000 steps
ETITLE: TS BOND ANGLE DIHED IMPRP ELECT VDW BOUNDARY MISC KINETIC TOTAL TEMP POTENTIAL TOTAL3 TEMPAVG PRESSURE GPRESSURE VOLUME PRESSAVG GPRESSAVG
ENERGY: 100000 0.0917 0.9379 1.1954 0.0000 -13912.1704 2358.9509 0.0000 0.0000 181.2205 -11369.7740 31.2630 -11550.9945 -11369.3110 31.2630 -466.7369 -413.3839 28650.6771 -466.7369 -413.3839
ENERGY: 200000 0.2232 1.4665 1.0237 0.0000 -13981.8331 2466.2434 0.0000 0.0000 360.3355 -11152.5407 62.1629 -11512.8762 -11151.4749 59.9454 825.8811 909.5392 28043.4720 3.9741 4.0506
TCL: Running 100000 steps at 90 kelvin.
TCL: Setting parameter langevinTemp to 90
TCL: Running for 100000 steps
ETITLE: TS BOND ANGLE DIHED IMPRP ELECT VDW BOUNDARY MISC KINETIC TOTAL TEMP POTENTIAL TOTAL3 TEMPAVG PRESSURE GPRESSURE VOLUME PRESSAVG GPRESSAVG
ENERGY: 200000 0.2232 1.4665 1.0237 0.0000 -13981.8331 2466.2434 0.0000 0.0000 360.1651 -11152.7111 62.1335 -11512.8762 -11151.9236 62.1335 852.0964 909.9237 28043.4720 852.0964 909.9237
ENERGY: 300000 0.8545 1.6874 1.8158 0.0000 -13690.8471 2273.9924 0.0000 0.0000 534.1537 -10878.3433 92.1489 -11412.4970 -10876.3039 89.9191 -584.4828 -546.7675 28481.0612 3.9902 4.0235
TCL: Running 100000 steps at 120 kelvin.
TCL: Setting parameter langevinTemp to 120
TCL: Running for 100000 steps
ETITLE: TS BOND ANGLE DIHED IMPRP ELECT VDW BOUNDARY MISC KINETIC TOTAL TEMP POTENTIAL TOTAL3 TEMPAVG PRESSURE GPRESSURE VOLUME PRESSAVG GPRESSAVG
ENERGY: 300000 0.8545 1.6874 1.8158 0.0000 -13690.8471 2273.9924 0.0000 0.0000 533.8998 -10878.5972 92.1051 -11412.4970 -10877.4566 92.1051 -599.7036 -546.3849 28481.0612 -599.7036 -546.3849
ENERGY: 400000 1.1956 2.4404 1.6709 0.0000 -13685.8570 2337.2484 0.0000 0.0000 693.3141 -10649.9876 119.6063 -11343.3017 -10647.8337 120.1724 276.0723 307.0749 28280.2917 6.0170 5.9946
TCL: Running 100000 steps at 150 kelvin.
TCL: Setting parameter langevinTemp to 150
TCL: Running for 100000 steps
ETITLE: TS BOND ANGLE DIHED IMPRP ELECT VDW BOUNDARY MISC KINETIC TOTAL TEMP POTENTIAL TOTAL3 TEMPAVG PRESSURE GPRESSURE VOLUME PRESSAVG GPRESSAVG
ENERGY: 400000 1.1956 2.4404 1.6709 0.0000 -13685.8570 2337.2484 0.0000 0.0000 692.9592 -10650.3424 119.5451 -11343.3017 -10649.2229 119.5451 264.4911 307.3485 28280.2917 264.4911 307.3485
ENERGY: 500000 1.2352 2.8366 1.3641 0.0000 -13352.4337 2252.9723 0.0000 0.0000 883.3964 -10210.6290 152.3981 -11094.0254 -10209.5752 149.8401 512.6424 560.5696 28080.1392 4.4931 4.4756
TCL: Running 100000 steps at 180 kelvin.
TCL: Setting parameter langevinTemp to 180
TCL: Running for 100000 steps
ETITLE: TS BOND ANGLE DIHED IMPRP ELECT VDW BOUNDARY MISC KINETIC TOTAL TEMP POTENTIAL TOTAL3 TEMPAVG PRESSURE GPRESSURE VOLUME PRESSAVG GPRESSAVG
ENERGY: 500000 1.2352 2.8366 1.3641 0.0000 -13352.4337 2252.9723 0.0000 0.0000 882.9687 -10211.0567 152.3243 -11094.0254 -10209.6592 152.3243 515.0375 559.5797 28080.1392 515.0375 559.5797
ENERGY: 600000 0.7871 2.1585 1.1115 0.0000 -12903.9284 2049.8093 0.0000 0.0000 1067.1929 -9782.8691 184.1056 -10850.0620 -9781.0617 180.2389 -347.7280 -290.0152 28547.9107 4.1809 4.1227
TCL: Running 100000 steps at 210 kelvin.
TCL: Setting parameter langevinTemp to 210
TCL: Running for 100000 steps
ETITLE: TS BOND ANGLE DIHED IMPRP ELECT VDW BOUNDARY MISC KINETIC TOTAL TEMP POTENTIAL TOTAL3 TEMPAVG PRESSURE GPRESSURE VOLUME PRESSAVG GPRESSAVG
ENERGY: 600000 0.7871 2.1585 1.1115 0.0000 -12903.9284 2049.8093 0.0000 0.0000 1066.6982 -9783.3638 184.0202 -10850.0620 -9781.6620 184.0202 -359.2505 -291.0387 28547.9107 -359.2505 -291.0387
ENERGY: 700000 1.3486 5.0691 1.9914 0.0000 -12269.6834 1909.0979 0.0000 0.0000 1228.2934 -9123.8831 211.8976 -10352.1764 -9122.5798 210.1011 539.8169 591.0747 28204.2154 3.6992 3.8000
TCL: Running 100000 steps at 240 kelvin.
TCL: Setting parameter langevinTemp to 240
TCL: Running for 100000 steps
ETITLE: TS BOND ANGLE DIHED IMPRP ELECT VDW BOUNDARY MISC KINETIC TOTAL TEMP POTENTIAL TOTAL3 TEMPAVG PRESSURE GPRESSURE VOLUME PRESSAVG GPRESSAVG
ENERGY: 700000 1.3486 5.0691 1.9914 0.0000 -12269.6834 1909.0979 0.0000 0.0000 1227.7019 -9124.4746 211.7956 -10352.1764 -9122.4284 211.7956 522.5389 589.8183 28204.2154 522.5389 589.8183
ENERGY: 800000 1.3767 5.6713 0.7837 0.0000 -11432.9475 1588.5316 0.0000 0.0000 1381.0995 -8455.4848 238.2588 -9836.5843 -8454.0463 239.4611 -385.2708 -338.7436 28777.8599 3.8306 3.8152
TCL: Running 100000 steps at 270 kelvin.
TCL: Setting parameter langevinTemp to 270
TCL: Running for 100000 steps
ETITLE: TS BOND ANGLE DIHED IMPRP ELECT VDW BOUNDARY MISC KINETIC TOTAL TEMP POTENTIAL TOTAL3 TEMPAVG PRESSURE GPRESSURE VOLUME PRESSAVG GPRESSAVG
ENERGY: 800000 1.3767 5.6713 0.7837 0.0000 -11432.9475 1588.5316 0.0000 0.0000 1380.4015 -8456.1827 238.1384 -9836.5843 -8453.7108 238.1384 -415.9691 -340.6474 28777.8599 -415.9691 -340.6474
ENERGY: 900000 0.6239 9.3404 1.4502 0.0000 -11050.1313 1511.8637 0.0000 0.0000 1568.4539 -7958.3992 270.5800 -9526.8531 -7953.7027 270.0089 -299.0298 -194.1496 29301.6266 4.0535 4.1452
TCL: Running 1000000 steps at 300 kelvin.
TCL: Setting parameter langevinTemp to 300
TCL: Running for 1000000 steps
ETITLE: TS BOND ANGLE DIHED IMPRP ELECT VDW BOUNDARY MISC KINETIC TOTAL TEMP POTENTIAL TOTAL3 TEMPAVG PRESSURE GPRESSURE VOLUME PRESSAVG GPRESSAVG
ENERGY: 900000 0.6239 9.3404 1.4502 0.0000 -11050.1313 1511.8637 0.0000 0.0000 1567.6912 -7959.1619 270.4484 -9526.8531 -7956.5662 270.4484 -277.2295 -195.5899 29301.6266 -277.2295 -195.5899
ENERGY: 1100000 1.1816 8.0506 2.6252 0.0000 -10622.3073 1442.5037 0.0000 0.0000 1752.5966 -7415.3496 302.3472 -9167.9462 -7412.3967 299.5843 214.0131 294.8628 30188.8647 3.7086 3.8503
ENERGY: 1300000 0.9105 5.7845 3.2491 0.0000 -10535.2040 1399.2264 0.0000 0.0000 1756.6513 -7369.3822 303.0467 -9126.0335 -7365.2798 300.3712 -387.4550 -304.9007 30372.8589 2.7338 2.8004
ENERGY: 1500000 0.8576 5.8054 1.4627 0.0000 -10486.9158 1349.3174 0.0000 0.0000 1713.9424 -7415.5304 295.6788 -9129.4727 -7411.0265 300.1234 -589.3775 -550.6703 30390.7184 2.9402 2.8878
ENERGY: 1700000 1.5283 5.7142 1.6858 0.0000 -10618.1173 1457.8559 0.0000 0.0000 1793.7292 -7357.6040 309.4431 -9151.3331 -7353.4708 300.8397 33.2178 85.6152 30544.3549 2.9147 2.9626
ENERGY: 1900000 3.0366 9.7829 4.6694 0.0000 -10600.1059 1452.0184 0.0000 0.0000 1764.2771 -7366.3215 304.3622 -9130.5986 -7362.1799 300.2576 0.6617 86.8362 30508.5209 4.4257 4.3153
TCL: Exiting due to exit command.
