Info: SIMULATION PARAMETERS:
Info: TIMESTEP               2
Info: NUMBER OF STEPS        0
Info: STEPS PER CYCLE        10
Info: PERIODIC CELL BASIS 1  34.207 0 0
Info: PERIODIC CELL BASIS 2  0 34.26 0
Info: PERIODIC CELL BASIS 3  0 0 37.451
Info: PERIODIC CELL CENTER   0 0 0
Info: WRAPPING WATERS AROUND PERIODIC BOUNDARIES ON OUTPUT.
Info: WRAPPING ALL CLUSTERS AROUND PERIODIC BOUNDARIES ON OUTPUT.
Info: FIRST LDB TIMESTEP     50
Info: LAST LDB TIMESTEP     -1
Info: HOM BACKGROUND SCALING 1
Info: PME BACKGROUND SCALING 1
Info: MIN ATOMS PER PATCH    40
Info: EMPTY PATCH LOAD       40 ATOMS
Info: INITIAL TEMPERATURE    300
Info: CENTER OF MASS MOVING INITIALLY? NO
Info: DIELECTRIC             1
Info: EXCLUDE                SCALED ONE-FOUR
Info: 1-4 ELECTROSTATICS SCALED BY 0.833333
Info: MODIFIED 1-4 VDW PARAMETERS WILL BE USED
Info: DCD FILENAME           mobley_1858644_equil.dcd
Info: DCD FREQUENCY          100000
Info: DCD FIRST STEP         100000
Info: DCD FILE WILL CONTAIN UNIT CELL DATA
Info: XST FILENAME           mobley_1858644_equil.xst
Info: XST FREQUENCY          100000
Info: NO VELOCITY DCD OUTPUT
Info: NO FORCE DCD OUTPUT
Info: OUTPUT FILENAME        mobley_1858644_equil
Info: BINARY OUTPUT FILES WILL BE USED
Info: RESTART FILENAME       mobley_1858644_equil.restart
Info: RESTART FREQUENCY      100000
Info: BINARY RESTART FILES WILL BE USED
Info: CUTOFF                 9
Info: PAIRLIST DISTANCE      11
Info: PAIRLIST SHRINK RATE   0.01
Info: PAIRLIST GROW RATE     0.01
Info: PAIRLIST TRIGGER       0.3
Info: PAIRLISTS PER CYCLE    2
Info: PAIRLISTS ENABLED
Info: MARGIN                 8
Info: HYDROGEN GROUP CUTOFF  2.5
Info: PATCH DIMENSION        21.5
Info: ENERGY OUTPUT STEPS    100000
Info: ENERGY EVALUATION STEPS    100000
Info: OUTPUT ENERGY PRECISION 4
Info: CROSSTERM ENERGY INCLUDED IN DIHEDRAL
Info: TIMING OUTPUT STEPS    1000000
Info: PRESSURE OUTPUT STEPS  100000
Info: LANGEVIN DYNAMICS ACTIVE
Info: LANGEVIN TEMPERATURE   30
Info: LANGEVIN USING BBK INTEGRATOR
Info: LANGEVIN DAMPING COEFFICIENT IS 1 INVERSE PS
Info: LANGEVIN DYNAMICS APPLIED TO HYDROGENS
Info: LANGEVIN PISTON PRESSURE CONTROL ACTIVE
Info:        TARGET PRESSURE IS 1.01325 BAR
Info:     OSCILLATION PERIOD IS 50 FS
Info:             DECAY TIME IS 25 FS
Info:     PISTON TEMPERATURE IS 300 K
Info:       PRESSURE CONTROL IS GROUP-BASED
Info:    INITIAL STRAIN RATE IS 0 0 0
Info:       CELL FLUCTUATION IS ISOTROPIC
Info: PARTICLE MESH EWALD (PME) ACTIVE
Info: PME TOLERANCE               1e-06
Info: PME EWALD COEFFICIENT       0.348832
Info: PME INTERPOLATION ORDER     4
Info: PME GRID DIMENSIONS         36 36 40
Info: PME MAXIMUM GRID SPACING    1
Info: FULL ELECTROSTATIC EVALUATION FREQUENCY      2
Info: USING VERLET I (r-RESPA) MTS SCHEME.
Info: C1 SPLITTING OF LONG RANGE ELECTROSTATICS
Info: PLACING ATOMS IN PATCHES BY HYDROGEN GROUPS
Info: RIGID BONDS TO HYDROGEN : ALL
Info:         ERROR TOLERANCE : 1e-08
Info:          MAX ITERATIONS : 100
Info: RIGID WATER USING SETTLE ALGORITHM
Info: RANDOM NUMBER SEED     1743242749
Info: USE HYDROGEN BONDS?    NO
Info: Using AMBER format force field!
Info: AMBER PARM FILE        mobley_1858644.prmtop
Info: COORDINATE PDB         mobley_1858644.pdb
Info: Exclusions will be read from PARM file!
Info: SCNB (VDW SCALING)     2
Info: USING ARITHMETIC MEAN TO COMBINE L-J SIGMA PARAMETERS
Info: BINARY COORDINATES     mobley_1858644_min.coor
Info: SUMMARY OF PARAMETERS:
Info: 10 BONDS
Info: 12 ANGLES
Info:   12 HARMONIC
Info:   0 COSINE-BASED
Info: 8 DIHEDRAL
Info: 0 IMPROPER
Info: 0 CROSSTERM
Info: 0 VDW
Info: 36 VDW_PAIRS
Info: 0 NBTHOLE_PAIRS
Info: STRUCTURE SUMMARY:
Info: 2989 ATOMS
Info: 2989 BONDS
Info: 31 ANGLES
Info: 51 DIHEDRALS
Info: 0 IMPROPERS
Info: 0 CROSSTERMS
Info: 3059 EXCLUSIONS
Info: 2980 RIGID BONDS
Info: 5987 DEGREES OF FREEDOM
Info: 999 HYDROGEN GROUPS
Info: 3 ATOMS IN LARGEST HYDROGEN GROUP
Info: 999 MIGRATION GROUPS
Info: 3 ATOMS IN LARGEST MIGRATION GROUP
Info: TOTAL MASS = 17958 amu
Info: TOTAL CHARGE = -0.000100002 e
Info: MASS DENSITY = 0.679441 g/cm^3
Info: ATOM DENSITY = 0.068102 atoms/A^3
Info: ADDED 0 IMPLICIT EXCLUSIONS
Info: NONBONDED TABLE R-SQUARED SPACING: 0.0625
Info: NONBONDED TABLE SIZE: 705 POINTS
Info: REMOVING COM VELOCITY -0.000310693 0.0503232 -0.0529722
TCL: Running for 100000 steps
ETITLE: TS BOND ANGLE DIHED IMPRP ELECT VDW BOUNDARY MISC KINETIC TOTAL TEMP POTENTIAL TOTAL3 TEMPAVG PRESSURE GPRESSURE VOLUME PRESSAVG GPRESSAVG
ENERGY: 0 0.2043 0.3600 1.6432 0.0000 -13731.4055 2388.4971 0.0000 0.0000 1818.2900 -9522.4108 305.6640 -11340.7008 -9522.0435 305.6640 394.9707 430.3360 43890.0186 394.9707 430.3360
ENERGY: 100000 0.5905 1.1915 2.1327 0.0000 -14474.2337 2548.0422 0.0000 0.0000 177.0928 -11745.1841 29.7702 -11922.2769 -11744.6847 31.0022 342.1366 404.0211 28748.9220 3.7127 3.7282
TCL: Running 100000 steps at 60 kelvin.
TCL: Setting parameter langevinTemp to 60
TCL: Running for 100000 steps
ETITLE: TS BOND ANGLE DIHED IMPRP ELECT VDW BOUNDARY MISC KINETIC TOTAL TEMP POTENTIAL TOTAL3 TEMPAVG PRESSURE GPRESSURE VOLUME PRESSAVG GPRESSAVG
ENERGY: 100000 0.5905 1.1915 2.1327 0.0000 -14474.2337 2548.0422 0.0000 0.0000 177.0053 -11745.2716 29.7555 -11922.2769 -11745.0141 29.7555 345.3928 403.8496 28748.9220 345.3928 403.8496
ENERGY: 200000 0.1816 1.0283 2.0967 0.0000 -14268.6303 2442.8883 0.0000 0.0000 373.1523 -11449.2831 62.7288 -11822.4354 -11448.1335 60.0251 94.2566 163.6545 28652.2172 3.8711 3.8621
TCL: Running 100000 steps at 90 kelvin.
TCL: Setting parameter langevinTemp to 90
TCL: Running for 100000 steps
ETITLE: TS BOND ANGLE DIHED IMPRP ELECT VDW BOUNDARY MISC KINETIC TOTAL TEMP POTENTIAL TOTAL3 TEMPAVG PRESSURE GPRESSURE VOLUME PRESSAVG GPRESSAVG
ENERGY: 200000 0.1816 1.0283 2.0967 0.0000 -14268.6303 2442.8883 0.0000 0.0000 372.9733 -11449.4621 62.6987 -11822.4354 -11448.6816 62.6987 92.7810 163.7161 28652.2172 92.7810 163.7161
ENERGY: 300000 0.7167 1.3006 3.7177 0.0000 -13984.4541 2281.1991 0.0000 0.0000 529.3563 -11168.1636 88.9875 -11697.5198 -11166.7176 89.9048 -928.3872 -892.5686 28867.4197 3.8987 3.9575
TCL: Running 100000 steps at 120 kelvin.
TCL: Setting parameter langevinTemp to 120
TCL: Running for 100000 steps
ETITLE: TS BOND ANGLE DIHED IMPRP ELECT VDW BOUNDARY MISC KINETIC TOTAL TEMP POTENTIAL TOTAL3 TEMPAVG PRESSURE GPRESSURE VOLUME PRESSAVG GPRESSAVG
ENERGY: 300000 0.7167 1.3006 3.7177 0.0000 -13984.4541 2281.1991 0.0000 0.0000 529.0915 -11168.4284 88.9430 -11697.5198 -11167.1434 88.9430 -963.6830 -893.4212 28867.4197 -963.6830 -893.4212
ENERGY: 400000 0.8678 2.2250 2.6760 0.0000 -13881.1857 2316.5112 0.0000 0.0000 705.4010 -10853.5047 118.5816 -11558.9057 -10851.4682 119.9292 -444.4973 -393.6453 29501.0026 4.5719 4.5230
TCL: Running 100000 steps at 150 kelvin.
TCL: Setting parameter langevinTemp to 150
TCL: Running for 100000 steps
ETITLE: TS BOND ANGLE DIHED IMPRP ELECT VDW BOUNDARY MISC KINETIC TOTAL TEMP POTENTIAL TOTAL3 TEMPAVG PRESSURE GPRESSURE VOLUME PRESSAVG GPRESSAVG
ENERGY: 400000 0.8678 2.2250 2.6760 0.0000 -13881.1857 2316.5112 0.0000 0.0000 705.0541 -10853.8516 118.5233 -11558.9057 -10852.2980 118.5233 -450.2688 -392.4912 29501.0026 -450.2688 -392.4912
ENERGY: 500000 2.3706 2.7197 3.4779 0.0000 -13730.3643 2281.8506 0.0000 0.0000 873.8899 -10566.0557 146.9054 -11439.9455 -10562.7929 150.1586 -361.7554 -305.4000 29493.3194 3.6869 3.7116
TCL: Running 100000 steps at 180 kelvin.
TCL: Setting parameter langevinTemp to 180
TCL: Running for 100000 steps
ETITLE: TS BOND ANGLE DIHED IMPRP ELECT VDW BOUNDARY MISC KINETIC TOTAL TEMP POTENTIAL TOTAL3 TEMPAVG PRESSURE GPRESSURE VOLUME PRESSAVG GPRESSAVG
ENERGY: 500000 2.3706 2.7197 3.4779 0.0000 -13730.3643 2281.8506 0.0000 0.0000 873.4352 -10566.5104 146.8290 -11439.9455 -10564.7424 146.8290 -358.6855 -304.0540 29493.3194 -358.6855 -304.0540
ENERGY: 600000 1.4327 5.1889 1.9885 0.0000 -13434.5600 2300.7187 0.0000 0.0000 1082.6058 -10042.6254 181.9917 -11125.2312 -10039.2020 179.9706 1144.1134 1211.7372 29151.4070 3.9985 3.9723
TCL: Running 100000 steps at 210 kelvin.
TCL: Setting parameter langevinTemp to 210
TCL: Running for 100000 steps
ETITLE: TS BOND ANGLE DIHED IMPRP ELECT VDW BOUNDARY MISC KINETIC TOTAL TEMP POTENTIAL TOTAL3 TEMPAVG PRESSURE GPRESSURE VOLUME PRESSAVG GPRESSAVG
ENERGY: 600000 1.4327 5.1889 1.9885 0.0000 -13434.5600 2300.7187 0.0000 0.0000 1082.0737 -10043.1575 181.9022 -11125.2312 -10041.1642 181.9022 1158.0230 1213.3411 29151.4070 1158.0230 1213.3411
ENERGY: 700000 3.7980 4.6512 3.0229 0.0000 -12652.6538 1997.7301 0.0000 0.0000 1311.0155 -9332.4361 220.3885 -10643.4516 -9329.3555 209.6288 600.0373 641.7643 29078.2080 2.3218 2.3491
TCL: Running 100000 steps at 240 kelvin.
TCL: Setting parameter langevinTemp to 240
TCL: Running for 100000 steps
ETITLE: TS BOND ANGLE DIHED IMPRP ELECT VDW BOUNDARY MISC KINETIC TOTAL TEMP POTENTIAL TOTAL3 TEMPAVG PRESSURE GPRESSURE VOLUME PRESSAVG GPRESSAVG
ENERGY: 700000 3.7980 4.6512 3.0229 0.0000 -12652.6538 1997.7301 0.0000 0.0000 1310.3775 -9333.0741 220.2813 -10643.4516 -9331.2699 220.2813 566.3549 642.0495 29078.2080 566.3549 642.0495
ENERGY: 800000 2.8798 5.7545 2.9716 0.0000 -11944.0602 1799.5125 0.0000 0.0000 1424.3807 -8708.5611 239.4458 -10132.9418 -8704.9909 240.9208 522.7775 652.0375 29349.0994 2.9216 2.9901
TCL: Running 100000 steps at 270 kelvin.
TCL: Setting parameter langevinTemp to 270
TCL: Running for 100000 steps
ETITLE: TS BOND ANGLE DIHED IMPRP ELECT VDW BOUNDARY MISC KINETIC TOTAL TEMP POTENTIAL TOTAL3 TEMPAVG PRESSURE GPRESSURE VOLUME PRESSAVG GPRESSAVG
ENERGY: 800000 2.8798 5.7545 2.9716 0.0000 -11944.0602 1799.5125 0.0000 0.0000 1423.6811 -8709.2607 239.3282 -10132.9418 -8707.1753 239.3282 563.7805 653.0558 29349.0994 563.7805 653.0558
ENERGY: 900000 1.4774 7.5686 5.8916 0.0000 -11301.9209 1534.0961 0.0000 0.0000 1612.9379 -8139.9494 271.1432 -9752.8873 -8136.1409 269.3892 -463.0569 -362.7061 30309.8618 3.1683 3.0243
TCL: Running 1000000 steps at 300 kelvin.
TCL: Setting parameter langevinTemp to 300
TCL: Running for 1000000 steps
ETITLE: TS BOND ANGLE DIHED IMPRP ELECT VDW BOUNDARY MISC KINETIC TOTAL TEMP POTENTIAL TOTAL3 TEMPAVG PRESSURE GPRESSURE VOLUME PRESSAVG GPRESSAVG
ENERGY: 900000 1.4774 7.5686 5.8916 0.0000 -11301.9209 1534.0961 0.0000 0.0000 1612.1236 -8140.7637 271.0063 -9752.8873 -8137.9908 271.0063 -436.0395 -362.8288 30309.8618 -436.0395 -362.8288
ENERGY: 1100000 4.2293 6.6838 3.2283 0.0000 -10690.6352 1413.1810 0.0000 0.0000 1757.5300 -7505.7828 295.4499 -9263.3128 -7501.1713 300.3303 -256.1271 -119.5654 30904.6235 4.1826 4.1653
ENERGY: 1300000 3.1588 2.8705 3.1137 0.0000 -10818.3369 1466.8189 0.0000 0.0000 1743.3669 -7599.0082 293.0690 -9342.3750 -7595.0958 300.2690 180.9133 220.3745 30888.7166 2.7341 2.6544
ENERGY: 1500000 2.1845 7.2546 4.0071 0.0000 -10668.8669 1325.3048 0.0000 0.0000 1762.3401 -7567.7758 296.2585 -9330.1159 -7563.0224 299.6041 -864.2820 -839.3126 30789.8837 3.7044 3.6710
ENERGY: 1700000 2.3888 7.5270 3.7090 0.0000 -10809.4822 1420.4621 0.0000 0.0000 1781.9030 -7593.4924 299.5471 -9375.3953 -7590.9813 300.8478 -501.5976 -399.4549 31168.8202 3.1421 3.0420
ENERGY: 1900000 6.6372 6.0151 4.0690 0.0000 -10933.2194 1529.3289 0.0000 0.0000 1751.3228 -7635.8464 294.4064 -9387.1692 -7631.2468 299.9245 473.9032 521.6831 30541.5025 3.4786 3.5080
TCL: Exiting due to exit command.
