Info: SIMULATION PARAMETERS:
Info: TIMESTEP               2
Info: NUMBER OF STEPS        0
Info: STEPS PER CYCLE        10
Info: PERIODIC CELL BASIS 1  35.89 0 0
Info: PERIODIC CELL BASIS 2  0 35.779 0
Info: PERIODIC CELL BASIS 3  0 0 34.68
Info: PERIODIC CELL CENTER   0 0 0
Info: WRAPPING WATERS AROUND PERIODIC BOUNDARIES ON OUTPUT.
Info: WRAPPING ALL CLUSTERS AROUND PERIODIC BOUNDARIES ON OUTPUT.
Info: FIRST LDB TIMESTEP     50
Info: LAST LDB TIMESTEP     -1
Info: HOM BACKGROUND SCALING 1
Info: PME BACKGROUND SCALING 1
Info: MIN ATOMS PER PATCH    40
Info: EMPTY PATCH LOAD       40 ATOMS
Info: INITIAL TEMPERATURE    300
Info: CENTER OF MASS MOVING INITIALLY? NO
Info: DIELECTRIC             1
Info: EXCLUDE                SCALED ONE-FOUR
Info: 1-4 ELECTROSTATICS SCALED BY 0.833333
Info: MODIFIED 1-4 VDW PARAMETERS WILL BE USED
Info: DCD FILENAME           mobley_8118832_equil.dcd
Info: DCD FREQUENCY          100000
Info: DCD FIRST STEP         100000
Info: DCD FILE WILL CONTAIN UNIT CELL DATA
Info: XST FILENAME           mobley_8118832_equil.xst
Info: XST FREQUENCY          100000
Info: NO VELOCITY DCD OUTPUT
Info: NO FORCE DCD OUTPUT
Info: OUTPUT FILENAME        mobley_8118832_equil
Info: BINARY OUTPUT FILES WILL BE USED
Info: RESTART FILENAME       mobley_8118832_equil.restart
Info: RESTART FREQUENCY      100000
Info: BINARY RESTART FILES WILL BE USED
Info: CUTOFF                 9
Info: PAIRLIST DISTANCE      11
Info: PAIRLIST SHRINK RATE   0.01
Info: PAIRLIST GROW RATE     0.01
Info: PAIRLIST TRIGGER       0.3
Info: PAIRLISTS PER CYCLE    2
Info: PAIRLISTS ENABLED
Info: MARGIN                 8
Info: HYDROGEN GROUP CUTOFF  2.5
Info: PATCH DIMENSION        21.5
Info: ENERGY OUTPUT STEPS    100000
Info: ENERGY EVALUATION STEPS    100000
Info: OUTPUT ENERGY PRECISION 4
Info: CROSSTERM ENERGY INCLUDED IN DIHEDRAL
Info: TIMING OUTPUT STEPS    1000000
Info: PRESSURE OUTPUT STEPS  100000
Info: LANGEVIN DYNAMICS ACTIVE
Info: LANGEVIN TEMPERATURE   30
Info: LANGEVIN USING BBK INTEGRATOR
Info: LANGEVIN DAMPING COEFFICIENT IS 1 INVERSE PS
Info: LANGEVIN DYNAMICS APPLIED TO HYDROGENS
Info: LANGEVIN PISTON PRESSURE CONTROL ACTIVE
Info:        TARGET PRESSURE IS 1.01325 BAR
Info:     OSCILLATION PERIOD IS 50 FS
Info:             DECAY TIME IS 25 FS
Info:     PISTON TEMPERATURE IS 300 K
Info:       PRESSURE CONTROL IS GROUP-BASED
Info:    INITIAL STRAIN RATE IS 0 0 0
Info:       CELL FLUCTUATION IS ISOTROPIC
Info: PARTICLE MESH EWALD (PME) ACTIVE
Info: PME TOLERANCE               1e-06
Info: PME EWALD COEFFICIENT       0.348832
Info: PME INTERPOLATION ORDER     4
Info: PME GRID DIMENSIONS         36 36 36
Info: PME MAXIMUM GRID SPACING    1
Info: FULL ELECTROSTATIC EVALUATION FREQUENCY      2
Info: USING VERLET I (r-RESPA) MTS SCHEME.
Info: C1 SPLITTING OF LONG RANGE ELECTROSTATICS
Info: PLACING ATOMS IN PATCHES BY HYDROGEN GROUPS
Info: RIGID BONDS TO HYDROGEN : ALL
Info:         ERROR TOLERANCE : 1e-08
Info:          MAX ITERATIONS : 100
Info: RIGID WATER USING SETTLE ALGORITHM
Info: RANDOM NUMBER SEED     1743224485
Info: USE HYDROGEN BONDS?    NO
Info: Using AMBER format force field!
Info: AMBER PARM FILE        mobley_8118832.prmtop
Info: COORDINATE PDB         mobley_8118832.pdb
Info: Exclusions will be read from PARM file!
Info: SCNB (VDW SCALING)     2
Info: USING ARITHMETIC MEAN TO COMBINE L-J SIGMA PARAMETERS
Info: BINARY COORDINATES     mobley_8118832_min.coor
Info: SUMMARY OF PARAMETERS:
Info: 8 BONDS
Info: 9 ANGLES
Info:   9 HARMONIC
Info:   0 COSINE-BASED
Info: 4 DIHEDRAL
Info: 0 IMPROPER
Info: 0 CROSSTERM
Info: 0 VDW
Info: 28 VDW_PAIRS
Info: 0 NBTHOLE_PAIRS
Info: STRUCTURE SUMMARY:
Info: 2902 ATOMS
Info: 2901 BONDS
Info: 13 ANGLES
Info: 15 DIHEDRALS
Info: 0 IMPROPERS
Info: 0 CROSSTERMS
Info: 2927 EXCLUSIONS
Info: 2898 RIGID BONDS
Info: 5808 DEGREES OF FREEDOM
Info: 968 HYDROGEN GROUPS
Info: 3 ATOMS IN LARGEST HYDROGEN GROUP
Info: 968 MIGRATION GROUPS
Info: 3 ATOMS IN LARGEST MIGRATION GROUP
Info: TOTAL MASS = 17425.5 amu
Info: TOTAL CHARGE = -0.000200007 e
Info: MASS DENSITY = 0.649776 g/cm^3
Info: ATOM DENSITY = 0.0651653 atoms/A^3
Info: ADDED 0 IMPLICIT EXCLUSIONS
Info: NONBONDED TABLE R-SQUARED SPACING: 0.0625
Info: NONBONDED TABLE SIZE: 705 POINTS
Info: REMOVING COM VELOCITY -0.00934418 0.139458 0.111855
TCL: Running for 100000 steps
ETITLE: TS BOND ANGLE DIHED IMPRP ELECT VDW BOUNDARY MISC KINETIC TOTAL TEMP POTENTIAL TOTAL3 TEMPAVG PRESSURE GPRESSURE VOLUME PRESSAVG GPRESSAVG
ENERGY: 0 0.0046 0.1023 0.0787 0.0000 -13424.5870 2364.6703 0.0000 0.0000 1730.7820 -9328.9491 299.9205 -11059.7311 -9328.5917 299.9205 452.1789 486.3298 44532.8762 452.1789 486.3298
ENERGY: 100000 0.1309 0.3065 0.6943 0.0000 -14009.0737 2445.9792 0.0000 0.0000 170.9008 -11391.0621 29.6147 -11561.9629 -11390.4610 30.9263 96.8665 125.1248 28427.6688 3.6835 3.7137
TCL: Running 100000 steps at 60 kelvin.
TCL: Setting parameter langevinTemp to 60
TCL: Running for 100000 steps
ETITLE: TS BOND ANGLE DIHED IMPRP ELECT VDW BOUNDARY MISC KINETIC TOTAL TEMP POTENTIAL TOTAL3 TEMPAVG PRESSURE GPRESSURE VOLUME PRESSAVG GPRESSAVG
ENERGY: 100000 0.1309 0.3065 0.6943 0.0000 -14009.0737 2445.9792 0.0000 0.0000 170.8128 -11391.1501 29.5995 -11561.9629 -11390.7881 29.5995 93.0236 125.1493 28427.6688 93.0236 125.1493
ENERGY: 200000 0.1514 0.4514 0.0574 0.0000 -13917.8131 2412.0604 0.0000 0.0000 348.2870 -11156.8056 60.3533 -11505.0925 -11155.8647 60.0311 187.7498 230.5777 28191.5934 3.4720 3.4526
TCL: Running 100000 steps at 90 kelvin.
TCL: Setting parameter langevinTemp to 90
TCL: Running for 100000 steps
ETITLE: TS BOND ANGLE DIHED IMPRP ELECT VDW BOUNDARY MISC KINETIC TOTAL TEMP POTENTIAL TOTAL3 TEMPAVG PRESSURE GPRESSURE VOLUME PRESSAVG GPRESSAVG
ENERGY: 200000 0.1514 0.4514 0.0574 0.0000 -13917.8131 2412.0604 0.0000 0.0000 348.1157 -11156.9768 60.3236 -11505.0925 -11156.2328 60.3236 191.5670 230.6503 28191.5934 191.5670 230.6503
ENERGY: 300000 0.5359 0.9285 0.7548 0.0000 -13749.6505 2335.4029 0.0000 0.0000 520.0837 -10891.9447 90.1233 -11412.0284 -10890.5190 89.8606 -330.6392 -235.5254 28585.7859 4.6141 4.6546
TCL: Running 100000 steps at 120 kelvin.
TCL: Setting parameter langevinTemp to 120
TCL: Running for 100000 steps
ETITLE: TS BOND ANGLE DIHED IMPRP ELECT VDW BOUNDARY MISC KINETIC TOTAL TEMP POTENTIAL TOTAL3 TEMPAVG PRESSURE GPRESSURE VOLUME PRESSAVG GPRESSAVG
ENERGY: 300000 0.5359 0.9285 0.7548 0.0000 -13749.6505 2335.4029 0.0000 0.0000 519.8284 -10892.2000 90.0790 -11412.0284 -10890.9783 90.0790 -294.1317 -235.2370 28585.7859 -294.1317 -235.2370
ENERGY: 400000 0.0868 0.6323 0.3317 0.0000 -13607.2743 2318.6264 0.0000 0.0000 669.6570 -10617.9402 116.0423 -11287.5973 -10616.6116 119.9193 47.6662 142.9175 28351.6028 3.7351 3.8292
TCL: Running 100000 steps at 150 kelvin.
TCL: Setting parameter langevinTemp to 150
TCL: Running for 100000 steps
ETITLE: TS BOND ANGLE DIHED IMPRP ELECT VDW BOUNDARY MISC KINETIC TOTAL TEMP POTENTIAL TOTAL3 TEMPAVG PRESSURE GPRESSURE VOLUME PRESSAVG GPRESSAVG
ENERGY: 400000 0.0868 0.6323 0.3317 0.0000 -13607.2743 2318.6264 0.0000 0.0000 669.3222 -10618.2751 115.9842 -11287.5973 -10616.9822 115.9842 93.1466 142.4889 28351.6028 93.1466 142.4889
ENERGY: 500000 0.4551 1.8639 0.5708 0.0000 -13541.8566 2415.9456 0.0000 0.0000 861.3769 -10261.6443 149.2647 -11123.0212 -10260.3193 149.7160 1468.4680 1519.0565 28361.8220 3.5257 3.5331
TCL: Running 100000 steps at 180 kelvin.
TCL: Setting parameter langevinTemp to 180
TCL: Running for 100000 steps
ETITLE: TS BOND ANGLE DIHED IMPRP ELECT VDW BOUNDARY MISC KINETIC TOTAL TEMP POTENTIAL TOTAL3 TEMPAVG PRESSURE GPRESSURE VOLUME PRESSAVG GPRESSAVG
ENERGY: 500000 0.4551 1.8639 0.5708 0.0000 -13541.8566 2415.9456 0.0000 0.0000 860.9408 -10262.0804 149.1891 -11123.0212 -10260.7443 149.1891 1459.5749 1518.5308 28361.8220 1459.5749 1518.5308
ENERGY: 600000 0.7333 1.4639 0.2871 0.0000 -12969.2655 2128.5010 0.0000 0.0000 1061.1417 -9777.1384 183.8811 -10838.2802 -9775.0142 179.8446 372.8600 407.0782 28263.1595 4.2529 4.1297
TCL: Running 100000 steps at 210 kelvin.
TCL: Setting parameter langevinTemp to 210
TCL: Running for 100000 steps
ETITLE: TS BOND ANGLE DIHED IMPRP ELECT VDW BOUNDARY MISC KINETIC TOTAL TEMP POTENTIAL TOTAL3 TEMPAVG PRESSURE GPRESSURE VOLUME PRESSAVG GPRESSAVG
ENERGY: 600000 0.7333 1.4639 0.2871 0.0000 -12969.2655 2128.5010 0.0000 0.0000 1060.6428 -9777.6374 183.7947 -10838.2802 -9775.9053 183.7947 352.2358 406.1946 28263.1595 352.2358 406.1946
ENERGY: 700000 0.1532 2.5627 0.9189 0.0000 -12230.1431 1856.1070 0.0000 0.0000 1177.5077 -9192.8937 204.0457 -10370.4014 -9190.0232 210.2776 -375.2529 -247.6935 28423.5316 2.4829 2.4302
TCL: Running 100000 steps at 240 kelvin.
TCL: Setting parameter langevinTemp to 240
TCL: Running for 100000 steps
ETITLE: TS BOND ANGLE DIHED IMPRP ELECT VDW BOUNDARY MISC KINETIC TOTAL TEMP POTENTIAL TOTAL3 TEMPAVG PRESSURE GPRESSURE VOLUME PRESSAVG GPRESSAVG
ENERGY: 700000 0.1532 2.5627 0.9189 0.0000 -12230.1431 1856.1070 0.0000 0.0000 1176.9072 -9193.4942 203.9417 -10370.4014 -9191.8922 203.9417 -323.2067 -247.5429 28423.5316 -323.2067 -247.5429
ENERGY: 800000 0.3814 3.9601 0.7614 0.0000 -11730.5092 1737.7333 0.0000 0.0000 1351.1465 -8636.5265 234.1349 -9987.6730 -8633.1919 240.2544 5.0772 136.7076 28630.2728 3.4624 3.5942
TCL: Running 100000 steps at 270 kelvin.
TCL: Setting parameter langevinTemp to 270
TCL: Running for 100000 steps
ETITLE: TS BOND ANGLE DIHED IMPRP ELECT VDW BOUNDARY MISC KINETIC TOTAL TEMP POTENTIAL TOTAL3 TEMPAVG PRESSURE GPRESSURE VOLUME PRESSAVG GPRESSAVG
ENERGY: 800000 0.3814 3.9601 0.7614 0.0000 -11730.5092 1737.7333 0.0000 0.0000 1350.4872 -8637.1858 234.0207 -9987.6730 -8634.7686 234.0207 66.1208 138.5418 28630.2728 66.1208 138.5418
ENERGY: 900000 0.3281 0.9107 0.7294 0.0000 -11038.2215 1534.9019 0.0000 0.0000 1555.5421 -7945.8094 269.5539 -9501.3516 -7941.6195 269.8569 -197.2579 -131.0273 29339.6197 1.6299 1.5974
TCL: Running 1000000 steps at 300 kelvin.
TCL: Setting parameter langevinTemp to 300
TCL: Running for 1000000 steps
ETITLE: TS BOND ANGLE DIHED IMPRP ELECT VDW BOUNDARY MISC KINETIC TOTAL TEMP POTENTIAL TOTAL3 TEMPAVG PRESSURE GPRESSURE VOLUME PRESSAVG GPRESSAVG
ENERGY: 900000 0.3281 0.9107 0.7294 0.0000 -11038.2215 1534.9019 0.0000 0.0000 1554.7624 -7946.5891 269.4187 -9501.3516 -7943.9567 269.4187 -219.5132 -130.1951 29339.6197 -219.5132 -130.1951
ENERGY: 1100000 2.1293 4.3581 0.1687 0.0000 -10554.4036 1400.6251 0.0000 0.0000 1719.1850 -7427.9373 297.9109 -9147.1223 -7424.6472 300.3199 -19.7978 32.3606 29714.3958 2.9784 2.9639
ENERGY: 1300000 1.0155 1.1907 0.8467 0.0000 -10654.0877 1496.8522 0.0000 0.0000 1692.9607 -7461.2220 293.3666 -9154.1827 -7459.0761 299.9819 712.0619 798.3396 29398.8222 2.5804 2.5787
ENERGY: 1500000 0.7010 4.2553 3.0993 0.0000 -10525.2515 1431.0179 0.0000 0.0000 1791.7625 -7294.4156 310.4876 -9086.1781 -7291.1558 299.4893 -139.3531 -16.3166 30788.0771 3.7534 4.0646
ENERGY: 1700000 1.7558 1.9763 0.4932 0.0000 -10582.9353 1474.7930 0.0000 0.0000 1782.6873 -7321.2297 308.9150 -9103.9170 -7315.7016 300.3522 447.1771 536.4608 29989.1156 2.3030 2.4946
ENERGY: 1900000 0.9782 6.1641 0.5971 0.0000 -10546.3511 1419.3310 0.0000 0.0000 1793.2272 -7326.0536 310.7414 -9119.2808 -7322.1112 300.3625 155.2209 247.5415 29535.2905 4.0040 4.0199
TCL: Exiting due to exit command.
