Info: SIMULATION PARAMETERS:
Info: TIMESTEP               2
Info: NUMBER OF STEPS        0
Info: STEPS PER CYCLE        10
Info: PERIODIC CELL BASIS 1  34.986 0 0
Info: PERIODIC CELL BASIS 2  0 35.779 0
Info: PERIODIC CELL BASIS 3  0 0 35.723
Info: PERIODIC CELL CENTER   0 0 0
Info: WRAPPING WATERS AROUND PERIODIC BOUNDARIES ON OUTPUT.
Info: WRAPPING ALL CLUSTERS AROUND PERIODIC BOUNDARIES ON OUTPUT.
Info: FIRST LDB TIMESTEP     50
Info: LAST LDB TIMESTEP     -1
Info: HOM BACKGROUND SCALING 1
Info: PME BACKGROUND SCALING 1
Info: MIN ATOMS PER PATCH    40
Info: EMPTY PATCH LOAD       40 ATOMS
Info: INITIAL TEMPERATURE    300
Info: CENTER OF MASS MOVING INITIALLY? NO
Info: DIELECTRIC             1
Info: EXCLUDE                SCALED ONE-FOUR
Info: 1-4 ELECTROSTATICS SCALED BY 0.833333
Info: MODIFIED 1-4 VDW PARAMETERS WILL BE USED
Info: DCD FILENAME           mobley_2727678_equil.dcd
Info: DCD FREQUENCY          100000
Info: DCD FIRST STEP         100000
Info: DCD FILE WILL CONTAIN UNIT CELL DATA
Info: XST FILENAME           mobley_2727678_equil.xst
Info: XST FREQUENCY          100000
Info: NO VELOCITY DCD OUTPUT
Info: NO FORCE DCD OUTPUT
Info: OUTPUT FILENAME        mobley_2727678_equil
Info: BINARY OUTPUT FILES WILL BE USED
Info: RESTART FILENAME       mobley_2727678_equil.restart
Info: RESTART FREQUENCY      100000
Info: BINARY RESTART FILES WILL BE USED
Info: CUTOFF                 9
Info: PAIRLIST DISTANCE      11
Info: PAIRLIST SHRINK RATE   0.01
Info: PAIRLIST GROW RATE     0.01
Info: PAIRLIST TRIGGER       0.3
Info: PAIRLISTS PER CYCLE    2
Info: PAIRLISTS ENABLED
Info: MARGIN                 8
Info: HYDROGEN GROUP CUTOFF  2.5
Info: PATCH DIMENSION        21.5
Info: ENERGY OUTPUT STEPS    100000
Info: ENERGY EVALUATION STEPS    100000
Info: OUTPUT ENERGY PRECISION 4
Info: CROSSTERM ENERGY INCLUDED IN DIHEDRAL
Info: TIMING OUTPUT STEPS    1000000
Info: PRESSURE OUTPUT STEPS  100000
Info: LANGEVIN DYNAMICS ACTIVE
Info: LANGEVIN TEMPERATURE   30
Info: LANGEVIN USING BBK INTEGRATOR
Info: LANGEVIN DAMPING COEFFICIENT IS 1 INVERSE PS
Info: LANGEVIN DYNAMICS APPLIED TO HYDROGENS
Info: LANGEVIN PISTON PRESSURE CONTROL ACTIVE
Info:        TARGET PRESSURE IS 1.01325 BAR
Info:     OSCILLATION PERIOD IS 50 FS
Info:             DECAY TIME IS 25 FS
Info:     PISTON TEMPERATURE IS 300 K
Info:       PRESSURE CONTROL IS GROUP-BASED
Info:    INITIAL STRAIN RATE IS 0 0 0
Info:       CELL FLUCTUATION IS ISOTROPIC
Info: PARTICLE MESH EWALD (PME) ACTIVE
Info: PME TOLERANCE               1e-06
Info: PME EWALD COEFFICIENT       0.348832
Info: PME INTERPOLATION ORDER     4
Info: PME GRID DIMENSIONS         36 36 36
Info: PME MAXIMUM GRID SPACING    1
Info: FULL ELECTROSTATIC EVALUATION FREQUENCY      2
Info: USING VERLET I (r-RESPA) MTS SCHEME.
Info: C1 SPLITTING OF LONG RANGE ELECTROSTATICS
Info: PLACING ATOMS IN PATCHES BY HYDROGEN GROUPS
Info: RIGID BONDS TO HYDROGEN : ALL
Info:         ERROR TOLERANCE : 1e-08
Info:          MAX ITERATIONS : 100
Info: RIGID WATER USING SETTLE ALGORITHM
Info: RANDOM NUMBER SEED     1743162231
Info: USE HYDROGEN BONDS?    NO
Info: Using AMBER format force field!
Info: AMBER PARM FILE        mobley_2727678.prmtop
Info: COORDINATE PDB         mobley_2727678.pdb
Info: Exclusions will be read from PARM file!
Info: SCNB (VDW SCALING)     2
Info: USING ARITHMETIC MEAN TO COMBINE L-J SIGMA PARAMETERS
Info: BINARY COORDINATES     mobley_2727678_min.coor
Info: SUMMARY OF PARAMETERS:
Info: 10 BONDS
Info: 14 ANGLES
Info:   14 HARMONIC
Info:   0 COSINE-BASED
Info: 7 DIHEDRAL
Info: 0 IMPROPER
Info: 0 CROSSTERM
Info: 0 VDW
Info: 36 VDW_PAIRS
Info: 0 NBTHOLE_PAIRS
Info: STRUCTURE SUMMARY:
Info: 2964 ATOMS
Info: 2964 BONDS
Info: 18 ANGLES
Info: 33 DIHEDRALS
Info: 0 IMPROPERS
Info: 0 CROSSTERMS
Info: 3003 EXCLUSIONS
Info: 2955 RIGID BONDS
Info: 5937 DEGREES OF FREEDOM
Info: 993 HYDROGEN GROUPS
Info: 3 ATOMS IN LARGEST HYDROGEN GROUP
Info: 993 MIGRATION GROUPS
Info: 3 ATOMS IN LARGEST MIGRATION GROUP
Info: TOTAL MASS = 17965.7 amu
Info: TOTAL CHARGE = 0.000100046 e
Info: MASS DENSITY = 0.667166 g/cm^3
Info: ATOM DENSITY = 0.0662839 atoms/A^3
Info: ADDED 0 IMPLICIT EXCLUSIONS
Info: NONBONDED TABLE R-SQUARED SPACING: 0.0625
Info: NONBONDED TABLE SIZE: 705 POINTS
Info: REMOVING COM VELOCITY -0.155274 -0.229798 0.0510602
TCL: Running for 100000 steps
ETITLE: TS BOND ANGLE DIHED IMPRP ELECT VDW BOUNDARY MISC KINETIC TOTAL TEMP POTENTIAL TOTAL3 TEMPAVG PRESSURE GPRESSURE VOLUME PRESSAVG GPRESSAVG
ENERGY: 0 0.6971 1.2484 12.0262 0.0000 -13952.1556 2463.9882 0.0000 0.0000 1781.1767 -9693.0190 301.9467 -11474.1957 -9692.6725 301.9467 559.8430 594.2036 44716.7687 559.8430 594.2036
ENERGY: 100000 0.4101 0.9767 12.3163 0.0000 -14509.8468 2490.7533 0.0000 0.0000 179.4184 -11825.9721 30.4152 -12005.3905 -11825.3274 31.0127 -210.8954 -150.6843 28937.3283 4.4471 4.4664
TCL: Running 100000 steps at 60 kelvin.
TCL: Setting parameter langevinTemp to 60
TCL: Running for 100000 steps
ETITLE: TS BOND ANGLE DIHED IMPRP ELECT VDW BOUNDARY MISC KINETIC TOTAL TEMP POTENTIAL TOTAL3 TEMPAVG PRESSURE GPRESSURE VOLUME PRESSAVG GPRESSAVG
ENERGY: 100000 0.4101 0.9767 12.3163 0.0000 -14509.8468 2490.7533 0.0000 0.0000 179.3313 -11826.0592 30.4004 -12005.3905 -11825.6925 30.4004 -197.3984 -150.5636 28937.3283 -197.3984 -150.5636
ENERGY: 200000 1.5773 2.3208 12.2436 0.0000 -14395.3254 2470.4254 0.0000 0.0000 357.0360 -11551.7223 60.5251 -11908.7583 -11550.8907 60.0838 -15.6645 34.2963 29037.3853 4.8725 4.8970
TCL: Running 100000 steps at 90 kelvin.
TCL: Setting parameter langevinTemp to 90
TCL: Running for 100000 steps
ETITLE: TS BOND ANGLE DIHED IMPRP ELECT VDW BOUNDARY MISC KINETIC TOTAL TEMP POTENTIAL TOTAL3 TEMPAVG PRESSURE GPRESSURE VOLUME PRESSAVG GPRESSAVG
ENERGY: 200000 1.5773 2.3208 12.2436 0.0000 -14395.3254 2470.4254 0.0000 0.0000 356.8606 -11551.8977 60.4953 -11908.7583 -11551.0807 60.4953 -12.8157 34.1084 29037.3853 -12.8157 34.1084
ENERGY: 300000 2.0950 2.4549 12.9053 0.0000 -14349.4944 2512.3629 0.0000 0.0000 520.3687 -11299.3076 88.2134 -11819.6763 -11298.3155 89.9211 862.9969 890.5815 28695.5693 3.3632 3.4044
TCL: Running 100000 steps at 120 kelvin.
TCL: Setting parameter langevinTemp to 120
TCL: Running for 100000 steps
ETITLE: TS BOND ANGLE DIHED IMPRP ELECT VDW BOUNDARY MISC KINETIC TOTAL TEMP POTENTIAL TOTAL3 TEMPAVG PRESSURE GPRESSURE VOLUME PRESSAVG GPRESSAVG
ENERGY: 300000 2.0950 2.4549 12.9053 0.0000 -14349.4944 2512.3629 0.0000 0.0000 520.1055 -11299.5708 88.1688 -11819.6763 -11298.6648 88.1688 839.2703 890.6306 28695.5693 839.2703 890.6306
ENERGY: 400000 1.8915 1.7078 14.1626 0.0000 -14016.8583 2313.0806 0.0000 0.0000 717.3149 -10968.7009 121.5999 -11686.0158 -10966.7595 119.7926 -429.7096 -401.6902 29156.1123 6.1198 6.1351
TCL: Running 100000 steps at 150 kelvin.
TCL: Setting parameter langevinTemp to 150
TCL: Running for 100000 steps
ETITLE: TS BOND ANGLE DIHED IMPRP ELECT VDW BOUNDARY MISC KINETIC TOTAL TEMP POTENTIAL TOTAL3 TEMPAVG PRESSURE GPRESSURE VOLUME PRESSAVG GPRESSAVG
ENERGY: 400000 1.8915 1.7078 14.1626 0.0000 -14016.8583 2313.0806 0.0000 0.0000 716.9560 -10969.0598 121.5391 -11686.0158 -10967.3379 121.5391 -452.8378 -402.0871 29156.1123 -452.8378 -402.0871
ENERGY: 500000 1.0224 2.1829 13.0520 0.0000 -13835.4783 2336.9793 0.0000 0.0000 882.1383 -10600.1034 149.5409 -11482.2416 -10598.9909 149.7223 619.3372 683.1687 28905.0854 3.6507 3.6440
TCL: Running 100000 steps at 180 kelvin.
TCL: Setting parameter langevinTemp to 180
TCL: Running for 100000 steps
ETITLE: TS BOND ANGLE DIHED IMPRP ELECT VDW BOUNDARY MISC KINETIC TOTAL TEMP POTENTIAL TOTAL3 TEMPAVG PRESSURE GPRESSURE VOLUME PRESSAVG GPRESSAVG
ENERGY: 500000 1.0224 2.1829 13.0520 0.0000 -13835.4783 2336.9793 0.0000 0.0000 881.6996 -10600.5420 149.4665 -11482.2416 -10598.9176 149.4665 611.0655 681.9509 28905.0854 611.0655 681.9509
ENERGY: 600000 1.2947 2.0781 13.1030 0.0000 -13401.3597 2163.3697 0.0000 0.0000 1069.5519 -10151.9623 181.3114 -11221.5143 -10149.6707 180.0638 226.9796 251.7974 29055.6358 2.7763 3.1002
TCL: Running 100000 steps at 210 kelvin.
TCL: Setting parameter langevinTemp to 210
TCL: Running for 100000 steps
ETITLE: TS BOND ANGLE DIHED IMPRP ELECT VDW BOUNDARY MISC KINETIC TOTAL TEMP POTENTIAL TOTAL3 TEMPAVG PRESSURE GPRESSURE VOLUME PRESSAVG GPRESSAVG
ENERGY: 600000 1.2947 2.0781 13.1030 0.0000 -13401.3597 2163.3697 0.0000 0.0000 1069.0502 -10152.4641 181.2264 -11221.5143 -10150.5261 181.2264 202.5557 251.5681 29055.6358 202.5557 251.5681
ENERGY: 700000 1.0495 3.1600 13.2627 0.0000 -12707.4279 1938.6513 0.0000 0.0000 1242.8686 -9508.4358 210.6922 -10751.3043 -9507.5268 209.6462 320.0710 333.5406 28665.2305 3.5322 3.5086
TCL: Running 100000 steps at 240 kelvin.
TCL: Setting parameter langevinTemp to 240
TCL: Running for 100000 steps
ETITLE: TS BOND ANGLE DIHED IMPRP ELECT VDW BOUNDARY MISC KINETIC TOTAL TEMP POTENTIAL TOTAL3 TEMPAVG PRESSURE GPRESSURE VOLUME PRESSAVG GPRESSAVG
ENERGY: 700000 1.0495 3.1600 13.2627 0.0000 -12707.4279 1938.6513 0.0000 0.0000 1242.2759 -9509.0284 210.5918 -10751.3043 -9506.7761 210.5918 269.5529 334.4220 28665.2305 269.5529 334.4220
ENERGY: 800000 1.5522 4.5807 13.0405 0.0000 -12002.2182 1693.7479 0.0000 0.0000 1400.9391 -8888.3577 237.4885 -10289.2969 -8886.8957 240.0588 -60.5050 38.3473 28929.0141 4.4004 4.5733
TCL: Running 100000 steps at 270 kelvin.
TCL: Setting parameter langevinTemp to 270
TCL: Running for 100000 steps
ETITLE: TS BOND ANGLE DIHED IMPRP ELECT VDW BOUNDARY MISC KINETIC TOTAL TEMP POTENTIAL TOTAL3 TEMPAVG PRESSURE GPRESSURE VOLUME PRESSAVG GPRESSAVG
ENERGY: 800000 1.5522 4.5807 13.0405 0.0000 -12002.2182 1693.7479 0.0000 0.0000 1400.2528 -8889.0441 237.3722 -10289.2969 -8886.7095 237.3722 -58.3651 35.8465 28929.0141 -58.3651 35.8465
ENERGY: 900000 1.4492 6.1313 15.9474 0.0000 -11395.7887 1604.1584 0.0000 0.0000 1597.1716 -8170.9307 270.7540 -9768.1023 -8166.5693 269.7758 552.4154 636.5753 29745.6143 3.4692 3.7639
TCL: Running 1000000 steps at 300 kelvin.
TCL: Setting parameter langevinTemp to 300
TCL: Running for 1000000 steps
ETITLE: TS BOND ANGLE DIHED IMPRP ELECT VDW BOUNDARY MISC KINETIC TOTAL TEMP POTENTIAL TOTAL3 TEMPAVG PRESSURE GPRESSURE VOLUME PRESSAVG GPRESSAVG
ENERGY: 900000 1.4492 6.1313 15.9474 0.0000 -11395.7887 1604.1584 0.0000 0.0000 1596.3778 -8171.7246 270.6194 -9768.1023 -8169.7179 270.6194 547.2014 637.5117 29745.6143 547.2014 637.5117
ENERGY: 1100000 1.9726 3.1765 13.4026 0.0000 -10995.7628 1481.2039 0.0000 0.0000 1761.5847 -7734.4225 298.6255 -9496.0073 -7732.0866 299.6577 75.3358 139.6164 30719.1005 3.6315 3.7441
ENERGY: 1300000 3.9358 2.5464 14.4359 0.0000 -10917.2628 1467.5968 0.0000 0.0000 1751.0189 -7677.7291 296.8344 -9428.7480 -7675.0837 300.1158 101.7598 193.1167 30508.7354 4.4439 4.4874
ENERGY: 1500000 2.3147 4.9561 13.4559 0.0000 -10884.3502 1377.4677 0.0000 0.0000 1759.2116 -7726.9443 298.2232 -9486.1559 -7724.6281 300.5511 -631.7563 -598.5878 30663.9475 2.9033 2.9926
ENERGY: 1700000 2.2732 0.7894 16.4845 0.0000 -11077.7221 1516.7972 0.0000 0.0000 1786.7211 -7754.6567 302.8866 -9541.3778 -7751.0319 300.7941 416.9792 584.5968 30224.6419 3.0961 3.0611
ENERGY: 1900000 4.0892 1.9680 15.8775 0.0000 -10892.1402 1477.3808 0.0000 0.0000 1745.7013 -7647.1234 295.9329 -9392.8247 -7644.2332 300.9075 192.4003 281.5159 31055.5030 2.4194 2.3091
TCL: Exiting due to exit command.
