Info: SIMULATION PARAMETERS:
Info: TIMESTEP               2
Info: NUMBER OF STEPS        0
Info: STEPS PER CYCLE        10
Info: PERIODIC CELL BASIS 1  34.986 0 0
Info: PERIODIC CELL BASIS 2  0 35.411 0
Info: PERIODIC CELL BASIS 3  0 0 35.856
Info: PERIODIC CELL CENTER   0 0 0
Info: WRAPPING WATERS AROUND PERIODIC BOUNDARIES ON OUTPUT.
Info: WRAPPING ALL CLUSTERS AROUND PERIODIC BOUNDARIES ON OUTPUT.
Info: FIRST LDB TIMESTEP     50
Info: LAST LDB TIMESTEP     -1
Info: HOM BACKGROUND SCALING 1
Info: PME BACKGROUND SCALING 1
Info: MIN ATOMS PER PATCH    40
Info: EMPTY PATCH LOAD       40 ATOMS
Info: INITIAL TEMPERATURE    300
Info: CENTER OF MASS MOVING INITIALLY? NO
Info: DIELECTRIC             1
Info: EXCLUDE                SCALED ONE-FOUR
Info: 1-4 ELECTROSTATICS SCALED BY 0.833333
Info: MODIFIED 1-4 VDW PARAMETERS WILL BE USED
Info: DCD FILENAME           mobley_1781152_equil.dcd
Info: DCD FREQUENCY          100000
Info: DCD FIRST STEP         100000
Info: DCD FILE WILL CONTAIN UNIT CELL DATA
Info: XST FILENAME           mobley_1781152_equil.xst
Info: XST FREQUENCY          100000
Info: NO VELOCITY DCD OUTPUT
Info: NO FORCE DCD OUTPUT
Info: OUTPUT FILENAME        mobley_1781152_equil
Info: BINARY OUTPUT FILES WILL BE USED
Info: RESTART FILENAME       mobley_1781152_equil.restart
Info: RESTART FREQUENCY      100000
Info: BINARY RESTART FILES WILL BE USED
Info: CUTOFF                 9
Info: PAIRLIST DISTANCE      11
Info: PAIRLIST SHRINK RATE   0.01
Info: PAIRLIST GROW RATE     0.01
Info: PAIRLIST TRIGGER       0.3
Info: PAIRLISTS PER CYCLE    2
Info: PAIRLISTS ENABLED
Info: MARGIN                 8
Info: HYDROGEN GROUP CUTOFF  2.5
Info: PATCH DIMENSION        21.5
Info: ENERGY OUTPUT STEPS    100000
Info: ENERGY EVALUATION STEPS    100000
Info: OUTPUT ENERGY PRECISION 4
Info: CROSSTERM ENERGY INCLUDED IN DIHEDRAL
Info: TIMING OUTPUT STEPS    1000000
Info: PRESSURE OUTPUT STEPS  100000
Info: LANGEVIN DYNAMICS ACTIVE
Info: LANGEVIN TEMPERATURE   30
Info: LANGEVIN USING BBK INTEGRATOR
Info: LANGEVIN DAMPING COEFFICIENT IS 1 INVERSE PS
Info: LANGEVIN DYNAMICS APPLIED TO HYDROGENS
Info: LANGEVIN PISTON PRESSURE CONTROL ACTIVE
Info:        TARGET PRESSURE IS 1.01325 BAR
Info:     OSCILLATION PERIOD IS 50 FS
Info:             DECAY TIME IS 25 FS
Info:     PISTON TEMPERATURE IS 300 K
Info:       PRESSURE CONTROL IS GROUP-BASED
Info:    INITIAL STRAIN RATE IS 0 0 0
Info:       CELL FLUCTUATION IS ISOTROPIC
Info: PARTICLE MESH EWALD (PME) ACTIVE
Info: PME TOLERANCE               1e-06
Info: PME EWALD COEFFICIENT       0.348832
Info: PME INTERPOLATION ORDER     4
Info: PME GRID DIMENSIONS         36 36 36
Info: PME MAXIMUM GRID SPACING    1
Info: FULL ELECTROSTATIC EVALUATION FREQUENCY      2
Info: USING VERLET I (r-RESPA) MTS SCHEME.
Info: C1 SPLITTING OF LONG RANGE ELECTROSTATICS
Info: PLACING ATOMS IN PATCHES BY HYDROGEN GROUPS
Info: RIGID BONDS TO HYDROGEN : ALL
Info:         ERROR TOLERANCE : 1e-08
Info:          MAX ITERATIONS : 100
Info: RIGID WATER USING SETTLE ALGORITHM
Info: RANDOM NUMBER SEED     1743217548
Info: USE HYDROGEN BONDS?    NO
Info: Using AMBER format force field!
Info: AMBER PARM FILE        mobley_1781152.prmtop
Info: COORDINATE PDB         mobley_1781152.pdb
Info: Exclusions will be read from PARM file!
Info: SCNB (VDW SCALING)     2
Info: USING ARITHMETIC MEAN TO COMBINE L-J SIGMA PARAMETERS
Info: BINARY COORDINATES     mobley_1781152_min.coor
Info: SUMMARY OF PARAMETERS:
Info: 9 BONDS
Info: 10 ANGLES
Info:   10 HARMONIC
Info:   0 COSINE-BASED
Info: 9 DIHEDRAL
Info: 0 IMPROPER
Info: 0 CROSSTERM
Info: 0 VDW
Info: 36 VDW_PAIRS
Info: 0 NBTHOLE_PAIRS
Info: STRUCTURE SUMMARY:
Info: 2978 ATOMS
Info: 2977 BONDS
Info: 34 ANGLES
Info: 42 DIHEDRALS
Info: 0 IMPROPERS
Info: 0 CROSSTERMS
Info: 3049 EXCLUSIONS
Info: 2970 RIGID BONDS
Info: 5964 DEGREES OF FREEDOM
Info: 994 HYDROGEN GROUPS
Info: 4 ATOMS IN LARGEST HYDROGEN GROUP
Info: 994 MIGRATION GROUPS
Info: 4 ATOMS IN LARGEST MIGRATION GROUP
Info: TOTAL MASS = 17879.9 amu
Info: TOTAL CHARGE = 0.000100031 e
Info: MASS DENSITY = 0.668391 g/cm^3
Info: ATOM DENSITY = 0.0670394 atoms/A^3
Info: ADDED 0 IMPLICIT EXCLUSIONS
Info: NONBONDED TABLE R-SQUARED SPACING: 0.0625
Info: NONBONDED TABLE SIZE: 705 POINTS
Info: REMOVING COM VELOCITY 0.123426 0.0615471 0.168979
TCL: Running for 100000 steps
ETITLE: TS BOND ANGLE DIHED IMPRP ELECT VDW BOUNDARY MISC KINETIC TOTAL TEMP POTENTIAL TOTAL3 TEMPAVG PRESSURE GPRESSURE VOLUME PRESSAVG GPRESSAVG
ENERGY: 0 0.3978 0.9408 0.3100 0.0000 -13738.6813 2422.3273 0.0000 0.0000 1834.9678 -9479.7376 309.6572 -11314.7053 -9479.3954 309.6572 573.9339 604.5554 44421.6128 573.9339 604.5554
ENERGY: 100000 0.6448 1.7894 0.5947 0.0000 -14369.3961 2507.9988 0.0000 0.0000 181.2564 -11677.1121 30.5876 -11858.3685 -11676.4963 30.9710 193.2213 268.1097 28885.4279 3.7442 3.7545
TCL: Running 100000 steps at 60 kelvin.
TCL: Setting parameter langevinTemp to 60
TCL: Running for 100000 steps
ETITLE: TS BOND ANGLE DIHED IMPRP ELECT VDW BOUNDARY MISC KINETIC TOTAL TEMP POTENTIAL TOTAL3 TEMPAVG PRESSURE GPRESSURE VOLUME PRESSAVG GPRESSAVG
ENERGY: 100000 0.6448 1.7894 0.5947 0.0000 -14369.3961 2507.9988 0.0000 0.0000 181.1652 -11677.2033 30.5723 -11858.3685 -11676.7233 30.5723 197.2747 268.3371 28885.4279 197.2747 268.3371
ENERGY: 200000 0.9425 2.0732 0.3016 0.0000 -14138.6749 2353.8219 0.0000 0.0000 356.8876 -11424.6481 60.2260 -11781.5357 -11423.6505 60.0153 -722.0059 -661.9172 28773.0700 3.2222 3.2089
TCL: Running 100000 steps at 90 kelvin.
TCL: Setting parameter langevinTemp to 90
TCL: Running for 100000 steps
ETITLE: TS BOND ANGLE DIHED IMPRP ELECT VDW BOUNDARY MISC KINETIC TOTAL TEMP POTENTIAL TOTAL3 TEMPAVG PRESSURE GPRESSURE VOLUME PRESSAVG GPRESSAVG
ENERGY: 200000 0.9425 2.0732 0.3016 0.0000 -14138.6749 2353.8219 0.0000 0.0000 356.7150 -11424.8206 60.1969 -11781.5357 -11424.0459 60.1969 -726.9417 -661.8450 28773.0700 -726.9417 -661.8450
ENERGY: 300000 0.9179 2.9385 0.5253 0.0000 -14031.8143 2369.9858 0.0000 0.0000 548.2076 -11109.2392 92.5119 -11657.4468 -11107.6414 89.7810 -186.8115 -176.7497 28843.1502 3.5613 3.5973
TCL: Running 100000 steps at 120 kelvin.
TCL: Setting parameter langevinTemp to 120
TCL: Running for 100000 steps
ETITLE: TS BOND ANGLE DIHED IMPRP ELECT VDW BOUNDARY MISC KINETIC TOTAL TEMP POTENTIAL TOTAL3 TEMPAVG PRESSURE GPRESSURE VOLUME PRESSAVG GPRESSAVG
ENERGY: 300000 0.9179 2.9385 0.5253 0.0000 -14031.8143 2369.9858 0.0000 0.0000 547.9466 -11109.5001 92.4679 -11657.4468 -11108.3895 92.4679 -223.9673 -176.5997 28843.1502 -223.9673 -176.5997
ENERGY: 400000 1.7338 3.6660 0.0830 0.0000 -13817.7868 2301.5765 0.0000 0.0000 714.8864 -10795.8410 120.6396 -11510.7274 -10794.9975 120.0879 -511.3321 -424.0858 29191.4747 3.7066 3.7594
TCL: Running 100000 steps at 150 kelvin.
TCL: Setting parameter langevinTemp to 150
TCL: Running for 100000 steps
ETITLE: TS BOND ANGLE DIHED IMPRP ELECT VDW BOUNDARY MISC KINETIC TOTAL TEMP POTENTIAL TOTAL3 TEMPAVG PRESSURE GPRESSURE VOLUME PRESSAVG GPRESSAVG
ENERGY: 400000 1.7338 3.6660 0.0830 0.0000 -13817.7868 2301.5765 0.0000 0.0000 714.5377 -10796.1897 120.5807 -11510.7274 -10794.6108 120.5807 -480.1731 -425.0466 29191.4747 -480.1731 -425.0466
ENERGY: 500000 3.5139 7.1384 1.3404 0.0000 -13575.2125 2214.6649 0.0000 0.0000 873.9451 -10474.6097 147.4813 -11348.5548 -10472.0999 150.0768 -524.0562 -501.5147 29217.4460 2.8291 2.8800
TCL: Running 100000 steps at 180 kelvin.
TCL: Setting parameter langevinTemp to 180
TCL: Running for 100000 steps
ETITLE: TS BOND ANGLE DIHED IMPRP ELECT VDW BOUNDARY MISC KINETIC TOTAL TEMP POTENTIAL TOTAL3 TEMPAVG PRESSURE GPRESSURE VOLUME PRESSAVG GPRESSAVG
ENERGY: 500000 3.5139 7.1384 1.3404 0.0000 -13575.2125 2214.6649 0.0000 0.0000 873.5096 -10475.0452 147.4078 -11348.5548 -10473.0095 147.4078 -536.6456 -501.2513 29217.4460 -536.6456 -501.2513
ENERGY: 600000 1.8699 7.5059 1.5426 0.0000 -13211.4981 2120.5601 0.0000 0.0000 1075.6070 -10004.4126 181.5124 -11080.0196 -10002.3751 179.9726 -218.1755 -173.6869 29267.9271 4.3179 4.2088
TCL: Running 100000 steps at 210 kelvin.
TCL: Setting parameter langevinTemp to 210
TCL: Running for 100000 steps
ETITLE: TS BOND ANGLE DIHED IMPRP ELECT VDW BOUNDARY MISC KINETIC TOTAL TEMP POTENTIAL TOTAL3 TEMPAVG PRESSURE GPRESSURE VOLUME PRESSAVG GPRESSAVG
ENERGY: 600000 1.8699 7.5059 1.5426 0.0000 -13211.4981 2120.5601 0.0000 0.0000 1075.0662 -10004.9534 181.4212 -11080.0196 -10002.8323 181.4212 -240.4171 -174.6284 29267.9271 -240.4171 -174.6284
ENERGY: 700000 1.6589 5.0076 1.8913 0.0000 -12612.5351 1996.1374 0.0000 0.0000 1271.4301 -9336.4097 214.5583 -10607.8398 -9331.6586 209.9506 201.2154 297.7059 29600.3565 3.8864 3.9267
TCL: Running 100000 steps at 240 kelvin.
TCL: Setting parameter langevinTemp to 240
TCL: Running for 100000 steps
ETITLE: TS BOND ANGLE DIHED IMPRP ELECT VDW BOUNDARY MISC KINETIC TOTAL TEMP POTENTIAL TOTAL3 TEMPAVG PRESSURE GPRESSURE VOLUME PRESSAVG GPRESSAVG
ENERGY: 700000 1.6589 5.0076 1.8913 0.0000 -12612.5351 1996.1374 0.0000 0.0000 1270.8074 -9337.0324 214.4532 -10607.8398 -9335.3022 214.4532 226.8394 299.4747 29600.3565 226.8394 299.4747
ENERGY: 800000 2.3550 5.3290 0.5890 0.0000 -11972.2939 1803.9942 0.0000 0.0000 1427.4116 -8732.6151 240.8807 -10160.0267 -8730.1831 239.9186 559.2863 651.7128 29081.0747 3.7678 3.7415
TCL: Running 100000 steps at 270 kelvin.
TCL: Setting parameter langevinTemp to 270
TCL: Running for 100000 steps
ETITLE: TS BOND ANGLE DIHED IMPRP ELECT VDW BOUNDARY MISC KINETIC TOTAL TEMP POTENTIAL TOTAL3 TEMPAVG PRESSURE GPRESSURE VOLUME PRESSAVG GPRESSAVG
ENERGY: 800000 2.3550 5.3290 0.5890 0.0000 -11972.2939 1803.9942 0.0000 0.0000 1426.6905 -8733.3362 240.7590 -10160.0267 -8730.3458 240.7590 562.7522 651.3101 29081.0747 562.7522 651.3101
ENERGY: 900000 0.8337 6.2529 2.4097 0.0000 -11279.6759 1502.4083 0.0000 0.0000 1550.4658 -8217.3053 261.6465 -9767.7711 -8214.4961 269.5863 -707.0045 -626.9932 30069.3902 2.9690 2.8716
TCL: Running 1000000 steps at 300 kelvin.
TCL: Setting parameter langevinTemp to 300
TCL: Running for 1000000 steps
ETITLE: TS BOND ANGLE DIHED IMPRP ELECT VDW BOUNDARY MISC KINETIC TOTAL TEMP POTENTIAL TOTAL3 TEMPAVG PRESSURE GPRESSURE VOLUME PRESSAVG GPRESSAVG
ENERGY: 900000 0.8337 6.2529 2.4097 0.0000 -11279.6759 1502.4083 0.0000 0.0000 1549.6862 -8218.0849 261.5150 -9767.7711 -8215.4061 261.5150 -715.7213 -627.2462 30069.3902 -715.7213 -627.2462
ENERGY: 1100000 3.3969 9.4094 1.6292 0.0000 -10809.7593 1473.5466 0.0000 0.0000 1773.9918 -7547.7853 299.3673 -9321.7771 -7544.5034 300.0292 133.3541 238.5276 30659.7410 3.4457 3.4412
ENERGY: 1300000 3.1388 8.3838 2.9840 0.0000 -10661.9768 1394.9735 0.0000 0.0000 1857.5944 -7394.9023 313.4755 -9252.4968 -7392.3166 300.5950 -149.8207 -58.7952 30652.7582 3.7732 3.9428
ENERGY: 1500000 2.6491 11.9019 1.4179 0.0000 -10744.9828 1425.1834 0.0000 0.0000 1744.1734 -7559.6571 294.3353 -9303.8305 -7556.1843 300.0577 -297.2592 -214.7732 30588.0455 2.3303 2.3260
ENERGY: 1700000 2.7121 11.0448 0.6831 0.0000 -10725.7723 1376.9599 0.0000 0.0000 1818.8288 -7515.5437 306.9337 -9334.3725 -7511.1790 299.9967 -477.7745 -334.2762 30412.4247 3.7037 3.7336
ENERGY: 1900000 1.7330 6.8219 1.3649 0.0000 -10753.4639 1465.5286 0.0000 0.0000 1792.5321 -7485.4834 302.4960 -9278.0155 -7482.0091 300.4236 80.3944 131.9359 31188.4704 3.0921 3.1074
TCL: Exiting due to exit command.
