Info: SIMULATION PARAMETERS:
Info: TIMESTEP               2
Info: NUMBER OF STEPS        0
Info: STEPS PER CYCLE        10
Info: PERIODIC CELL BASIS 1  33.943 0 0
Info: PERIODIC CELL BASIS 2  0 34.26 0
Info: PERIODIC CELL BASIS 3  0 0 37.195
Info: PERIODIC CELL CENTER   0 0 0
Info: WRAPPING WATERS AROUND PERIODIC BOUNDARIES ON OUTPUT.
Info: WRAPPING ALL CLUSTERS AROUND PERIODIC BOUNDARIES ON OUTPUT.
Info: FIRST LDB TIMESTEP     50
Info: LAST LDB TIMESTEP     -1
Info: HOM BACKGROUND SCALING 1
Info: PME BACKGROUND SCALING 1
Info: MIN ATOMS PER PATCH    40
Info: EMPTY PATCH LOAD       40 ATOMS
Info: INITIAL TEMPERATURE    300
Info: CENTER OF MASS MOVING INITIALLY? NO
Info: DIELECTRIC             1
Info: EXCLUDE                SCALED ONE-FOUR
Info: 1-4 ELECTROSTATICS SCALED BY 0.833333
Info: MODIFIED 1-4 VDW PARAMETERS WILL BE USED
Info: DCD FILENAME           mobley_1963873_equil.dcd
Info: DCD FREQUENCY          100000
Info: DCD FIRST STEP         100000
Info: DCD FILE WILL CONTAIN UNIT CELL DATA
Info: XST FILENAME           mobley_1963873_equil.xst
Info: XST FREQUENCY          100000
Info: NO VELOCITY DCD OUTPUT
Info: NO FORCE DCD OUTPUT
Info: OUTPUT FILENAME        mobley_1963873_equil
Info: BINARY OUTPUT FILES WILL BE USED
Info: RESTART FILENAME       mobley_1963873_equil.restart
Info: RESTART FREQUENCY      100000
Info: BINARY RESTART FILES WILL BE USED
Info: CUTOFF                 9
Info: PAIRLIST DISTANCE      11
Info: PAIRLIST SHRINK RATE   0.01
Info: PAIRLIST GROW RATE     0.01
Info: PAIRLIST TRIGGER       0.3
Info: PAIRLISTS PER CYCLE    2
Info: PAIRLISTS ENABLED
Info: MARGIN                 8
Info: HYDROGEN GROUP CUTOFF  2.5
Info: PATCH DIMENSION        21.5
Info: ENERGY OUTPUT STEPS    100000
Info: ENERGY EVALUATION STEPS    100000
Info: OUTPUT ENERGY PRECISION 4
Info: CROSSTERM ENERGY INCLUDED IN DIHEDRAL
Info: TIMING OUTPUT STEPS    1000000
Info: PRESSURE OUTPUT STEPS  100000
Info: LANGEVIN DYNAMICS ACTIVE
Info: LANGEVIN TEMPERATURE   30
Info: LANGEVIN USING BBK INTEGRATOR
Info: LANGEVIN DAMPING COEFFICIENT IS 1 INVERSE PS
Info: LANGEVIN DYNAMICS APPLIED TO HYDROGENS
Info: LANGEVIN PISTON PRESSURE CONTROL ACTIVE
Info:        TARGET PRESSURE IS 1.01325 BAR
Info:     OSCILLATION PERIOD IS 50 FS
Info:             DECAY TIME IS 25 FS
Info:     PISTON TEMPERATURE IS 300 K
Info:       PRESSURE CONTROL IS GROUP-BASED
Info:    INITIAL STRAIN RATE IS 0 0 0
Info:       CELL FLUCTUATION IS ISOTROPIC
Info: PARTICLE MESH EWALD (PME) ACTIVE
Info: PME TOLERANCE               1e-06
Info: PME EWALD COEFFICIENT       0.348832
Info: PME INTERPOLATION ORDER     4
Info: PME GRID DIMENSIONS         36 36 40
Info: PME MAXIMUM GRID SPACING    1
Info: FULL ELECTROSTATIC EVALUATION FREQUENCY      2
Info: USING VERLET I (r-RESPA) MTS SCHEME.
Info: C1 SPLITTING OF LONG RANGE ELECTROSTATICS
Info: PLACING ATOMS IN PATCHES BY HYDROGEN GROUPS
Info: RIGID BONDS TO HYDROGEN : ALL
Info:         ERROR TOLERANCE : 1e-08
Info:          MAX ITERATIONS : 100
Info: RIGID WATER USING SETTLE ALGORITHM
Info: RANDOM NUMBER SEED     1743162083
Info: USE HYDROGEN BONDS?    NO
Info: Using AMBER format force field!
Info: AMBER PARM FILE        mobley_1963873.prmtop
Info: COORDINATE PDB         mobley_1963873.pdb
Info: Exclusions will be read from PARM file!
Info: SCNB (VDW SCALING)     2
Info: USING ARITHMETIC MEAN TO COMBINE L-J SIGMA PARAMETERS
Info: BINARY COORDINATES     mobley_1963873_min.coor
Info: SUMMARY OF PARAMETERS:
Info: 9 BONDS
Info: 10 ANGLES
Info:   10 HARMONIC
Info:   0 COSINE-BASED
Info: 9 DIHEDRAL
Info: 0 IMPROPER
Info: 0 CROSSTERM
Info: 0 VDW
Info: 45 VDW_PAIRS
Info: 0 NBTHOLE_PAIRS
Info: STRUCTURE SUMMARY:
Info: 2910 ATOMS
Info: 2909 BONDS
Info: 18 ANGLES
Info: 26 DIHEDRALS
Info: 0 IMPROPERS
Info: 0 CROSSTERMS
Info: 2943 EXCLUSIONS
Info: 2905 RIGID BONDS
Info: 5825 DEGREES OF FREEDOM
Info: 971 HYDROGEN GROUPS
Info: 4 ATOMS IN LARGEST HYDROGEN GROUP
Info: 971 MIGRATION GROUPS
Info: 4 ATOMS IN LARGEST MIGRATION GROUP
Info: TOTAL MASS = 17476.6 amu
Info: TOTAL CHARGE = -0.000199951 e
Info: MASS DENSITY = 0.670954 g/cm^3
Info: ATOM DENSITY = 0.0672777 atoms/A^3
Info: ADDED 0 IMPLICIT EXCLUSIONS
Info: NONBONDED TABLE R-SQUARED SPACING: 0.0625
Info: NONBONDED TABLE SIZE: 705 POINTS
Info: REMOVING COM VELOCITY 0.0601832 0.17924 -0.0134934
TCL: Running for 100000 steps
ETITLE: TS BOND ANGLE DIHED IMPRP ELECT VDW BOUNDARY MISC KINETIC TOTAL TEMP POTENTIAL TOTAL3 TEMPAVG PRESSURE GPRESSURE VOLUME PRESSAVG GPRESSAVG
ENERGY: 0 0.0407 0.4069 5.4882 0.0000 -13499.0588 2349.5499 0.0000 0.0000 1734.9531 -9408.6200 299.7659 -11143.5731 -9408.2871 299.7659 339.4227 379.2159 43253.5887 339.4227 379.2159
ENERGY: 100000 0.0161 0.9405 5.5893 0.0000 -14039.4384 2386.1551 0.0000 0.0000 182.7908 -11463.9466 31.5827 -11646.7374 -11463.4104 30.9386 -573.8244 -478.8210 28444.1841 4.1565 4.1153
TCL: Running 100000 steps at 60 kelvin.
TCL: Setting parameter langevinTemp to 60
TCL: Running for 100000 steps
ETITLE: TS BOND ANGLE DIHED IMPRP ELECT VDW BOUNDARY MISC KINETIC TOTAL TEMP POTENTIAL TOTAL3 TEMPAVG PRESSURE GPRESSURE VOLUME PRESSAVG GPRESSAVG
ENERGY: 100000 0.0161 0.9405 5.5893 0.0000 -14039.4384 2386.1551 0.0000 0.0000 182.7041 -11464.0333 31.5677 -11646.7374 -11463.5166 31.5677 -544.2276 -478.9025 28444.1841 -544.2276 -478.9025
ENERGY: 200000 0.3271 1.1345 5.9954 0.0000 -13986.1189 2398.0616 0.0000 0.0000 352.9947 -11227.6056 60.9906 -11580.6003 -11226.6023 60.0227 -146.7993 -84.5443 28280.3344 3.1143 3.1798
TCL: Running 100000 steps at 90 kelvin.
TCL: Setting parameter langevinTemp to 90
TCL: Running for 100000 steps
ETITLE: TS BOND ANGLE DIHED IMPRP ELECT VDW BOUNDARY MISC KINETIC TOTAL TEMP POTENTIAL TOTAL3 TEMPAVG PRESSURE GPRESSURE VOLUME PRESSAVG GPRESSAVG
ENERGY: 200000 0.3271 1.1345 5.9954 0.0000 -13986.1189 2398.0616 0.0000 0.0000 352.8271 -11227.7732 60.9616 -11580.6003 -11226.8912 60.9616 -146.4358 -84.4107 28280.3344 -146.4358 -84.4107
ENERGY: 300000 0.9090 2.3199 6.1520 0.0000 -13838.6226 2407.3532 0.0000 0.0000 526.5076 -10895.3809 90.9702 -11421.8885 -10894.8280 89.9886 583.3942 632.6056 28376.4604 4.5861 4.3934
TCL: Running 100000 steps at 120 kelvin.
TCL: Setting parameter langevinTemp to 120
TCL: Running for 100000 steps
ETITLE: TS BOND ANGLE DIHED IMPRP ELECT VDW BOUNDARY MISC KINETIC TOTAL TEMP POTENTIAL TOTAL3 TEMPAVG PRESSURE GPRESSURE VOLUME PRESSAVG GPRESSAVG
ENERGY: 300000 0.9090 2.3199 6.1520 0.0000 -13838.6226 2407.3532 0.0000 0.0000 526.2409 -10895.6475 90.9241 -11421.8885 -10894.4797 90.9241 579.2945 632.3934 28376.4604 579.2945 632.3934
ENERGY: 400000 0.7144 2.0199 5.6275 0.0000 -13618.8472 2301.7740 0.0000 0.0000 691.2583 -10617.4531 119.4359 -11308.7114 -10615.3641 120.1388 -204.2662 -135.0499 28818.9513 3.3003 3.3656
TCL: Running 100000 steps at 150 kelvin.
TCL: Setting parameter langevinTemp to 150
TCL: Running for 100000 steps
ETITLE: TS BOND ANGLE DIHED IMPRP ELECT VDW BOUNDARY MISC KINETIC TOTAL TEMP POTENTIAL TOTAL3 TEMPAVG PRESSURE GPRESSURE VOLUME PRESSAVG GPRESSAVG
ENERGY: 400000 0.7144 2.0199 5.6275 0.0000 -13618.8472 2301.7740 0.0000 0.0000 690.9059 -10617.8055 119.3750 -11308.7114 -10616.4374 119.3750 -191.6032 -134.2519 28818.9513 -191.6032 -134.2519
ENERGY: 500000 0.6617 2.3358 6.3052 0.0000 -13319.4952 2164.9497 0.0000 0.0000 875.0621 -10270.1806 151.1936 -11145.2427 -10267.6852 149.6125 -503.0541 -447.6481 28652.3344 4.8441 4.6400
TCL: Running 100000 steps at 180 kelvin.
TCL: Setting parameter langevinTemp to 180
TCL: Running for 100000 steps
ETITLE: TS BOND ANGLE DIHED IMPRP ELECT VDW BOUNDARY MISC KINETIC TOTAL TEMP POTENTIAL TOTAL3 TEMPAVG PRESSURE GPRESSURE VOLUME PRESSAVG GPRESSAVG
ENERGY: 500000 0.6617 2.3358 6.3052 0.0000 -13319.4952 2164.9497 0.0000 0.0000 874.6340 -10270.6087 151.1196 -11145.2427 -10268.8330 151.1196 -505.0255 -448.2986 28652.3344 -505.0255 -448.2986
ENERGY: 600000 0.9444 4.2812 5.8440 0.0000 -13153.5809 2219.5104 0.0000 0.0000 1026.7102 -9896.2906 177.3954 -10923.0009 -9892.9948 180.1008 1020.7165 1034.8167 28305.8633 4.4597 4.4683
TCL: Running 100000 steps at 210 kelvin.
TCL: Setting parameter langevinTemp to 210
TCL: Running for 100000 steps
ETITLE: TS BOND ANGLE DIHED IMPRP ELECT VDW BOUNDARY MISC KINETIC TOTAL TEMP POTENTIAL TOTAL3 TEMPAVG PRESSURE GPRESSURE VOLUME PRESSAVG GPRESSAVG
ENERGY: 600000 0.9444 4.2812 5.8440 0.0000 -13153.5809 2219.5104 0.0000 0.0000 1026.2046 -9896.7963 177.3080 -10923.0009 -9895.0464 177.3080 980.6423 1034.9978 28305.8633 980.6423 1034.9978
ENERGY: 700000 1.3828 3.1623 6.9045 0.0000 -12398.4121 1944.3416 0.0000 0.0000 1230.4031 -9212.2177 212.5895 -10442.6208 -9209.6073 209.8217 591.6978 680.0613 28214.5947 4.0842 3.9532
TCL: Running 100000 steps at 240 kelvin.
TCL: Setting parameter langevinTemp to 240
TCL: Running for 100000 steps
ETITLE: TS BOND ANGLE DIHED IMPRP ELECT VDW BOUNDARY MISC KINETIC TOTAL TEMP POTENTIAL TOTAL3 TEMPAVG PRESSURE GPRESSURE VOLUME PRESSAVG GPRESSAVG
ENERGY: 700000 1.3828 3.1623 6.9045 0.0000 -12398.4121 1944.3416 0.0000 0.0000 1229.7963 -9212.8245 212.4847 -10442.6208 -9211.0416 212.4847 611.3496 679.0767 28214.5947 611.3496 679.0767
ENERGY: 800000 1.9750 2.7758 6.4987 0.0000 -11562.6964 1596.2207 0.0000 0.0000 1398.1206 -8557.1055 241.5678 -9955.2262 -8554.3389 240.0176 -644.7593 -540.6798 28632.8648 4.0904 4.1219
TCL: Running 100000 steps at 270 kelvin.
TCL: Setting parameter langevinTemp to 270
TCL: Running for 100000 steps
ETITLE: TS BOND ANGLE DIHED IMPRP ELECT VDW BOUNDARY MISC KINETIC TOTAL TEMP POTENTIAL TOTAL3 TEMPAVG PRESSURE GPRESSURE VOLUME PRESSAVG GPRESSAVG
ENERGY: 800000 1.9750 2.7758 6.4987 0.0000 -11562.6965 1596.2207 0.0000 0.0000 1397.4270 -8557.7992 241.4480 -9955.2262 -8555.2509 241.4480 -635.8180 -540.3017 28632.8648 -635.8180 -540.3017
ENERGY: 900000 0.3165 4.1250 6.2097 0.0000 -11113.3471 1577.2361 0.0000 0.0000 1554.2900 -7971.1698 268.5508 -9525.4599 -7967.2056 269.6054 240.6113 285.1317 29360.3094 3.7149 3.7322
TCL: Running 1000000 steps at 300 kelvin.
TCL: Setting parameter langevinTemp to 300
TCL: Running for 1000000 steps
ETITLE: TS BOND ANGLE DIHED IMPRP ELECT VDW BOUNDARY MISC KINETIC TOTAL TEMP POTENTIAL TOTAL3 TEMPAVG PRESSURE GPRESSURE VOLUME PRESSAVG GPRESSAVG
ENERGY: 900000 0.3165 4.1250 6.2097 0.0000 -11113.3471 1577.2361 0.0000 0.0000 1553.5341 -7971.9258 268.4202 -9525.4598 -7968.6716 268.4202 204.5504 285.4072 29360.3094 204.5504 285.4072
ENERGY: 1100000 2.6445 4.5862 6.7784 0.0000 -10569.1234 1413.4000 0.0000 0.0000 1746.5927 -7395.1217 301.7770 -9141.7144 -7391.7831 300.7296 30.0749 146.9883 30257.5121 2.3732 2.6522
ENERGY: 1300000 0.5519 3.5174 6.8679 0.0000 -10630.6465 1470.0556 0.0000 0.0000 1730.9587 -7418.6951 299.0757 -9149.6538 -7417.5142 300.8029 407.0088 495.1627 29957.4359 4.0227 4.0532
ENERGY: 1500000 5.4855 4.8271 6.4444 0.0000 -10624.8122 1435.3520 0.0000 0.0000 1700.8952 -7471.8080 293.8813 -9172.7032 -7470.0975 300.6084 62.9942 143.2039 30290.6603 3.5416 3.5912
ENERGY: 1700000 2.2527 3.7740 5.3936 0.0000 -10629.7114 1444.0831 0.0000 0.0000 1762.5158 -7411.6923 304.5282 -9174.2081 -7407.3772 299.9848 481.1012 592.5402 29612.2803 3.7868 3.8012
ENERGY: 1900000 3.3410 3.3494 5.3737 0.0000 -10676.8997 1464.0081 0.0000 0.0000 1732.2701 -7468.5574 299.3023 -9200.8275 -7465.9825 300.2930 15.9098 155.3068 30012.0136 4.7744 4.5067
TCL: Exiting due to exit command.
