Info: SIMULATION PARAMETERS:
Info: TIMESTEP               2
Info: NUMBER OF STEPS        0
Info: STEPS PER CYCLE        10
Info: PERIODIC CELL BASIS 1  36.005 0 0
Info: PERIODIC CELL BASIS 2  0 35.411 0
Info: PERIODIC CELL BASIS 3  0 0 34.68
Info: PERIODIC CELL CENTER   0 0 0
Info: WRAPPING WATERS AROUND PERIODIC BOUNDARIES ON OUTPUT.
Info: WRAPPING ALL CLUSTERS AROUND PERIODIC BOUNDARIES ON OUTPUT.
Info: FIRST LDB TIMESTEP     50
Info: LAST LDB TIMESTEP     -1
Info: HOM BACKGROUND SCALING 1
Info: PME BACKGROUND SCALING 1
Info: MIN ATOMS PER PATCH    40
Info: EMPTY PATCH LOAD       40 ATOMS
Info: INITIAL TEMPERATURE    300
Info: CENTER OF MASS MOVING INITIALLY? NO
Info: DIELECTRIC             1
Info: EXCLUDE                SCALED ONE-FOUR
Info: 1-4 ELECTROSTATICS SCALED BY 0.833333
Info: MODIFIED 1-4 VDW PARAMETERS WILL BE USED
Info: DCD FILENAME           mobley_6929123_equil.dcd
Info: DCD FREQUENCY          100000
Info: DCD FIRST STEP         100000
Info: DCD FILE WILL CONTAIN UNIT CELL DATA
Info: XST FILENAME           mobley_6929123_equil.xst
Info: XST FREQUENCY          100000
Info: NO VELOCITY DCD OUTPUT
Info: NO FORCE DCD OUTPUT
Info: OUTPUT FILENAME        mobley_6929123_equil
Info: BINARY OUTPUT FILES WILL BE USED
Info: RESTART FILENAME       mobley_6929123_equil.restart
Info: RESTART FREQUENCY      100000
Info: BINARY RESTART FILES WILL BE USED
Info: CUTOFF                 9
Info: PAIRLIST DISTANCE      11
Info: PAIRLIST SHRINK RATE   0.01
Info: PAIRLIST GROW RATE     0.01
Info: PAIRLIST TRIGGER       0.3
Info: PAIRLISTS PER CYCLE    2
Info: PAIRLISTS ENABLED
Info: MARGIN                 8
Info: HYDROGEN GROUP CUTOFF  2.5
Info: PATCH DIMENSION        21.5
Info: ENERGY OUTPUT STEPS    100000
Info: ENERGY EVALUATION STEPS    100000
Info: OUTPUT ENERGY PRECISION 4
Info: CROSSTERM ENERGY INCLUDED IN DIHEDRAL
Info: TIMING OUTPUT STEPS    1000000
Info: PRESSURE OUTPUT STEPS  100000
Info: LANGEVIN DYNAMICS ACTIVE
Info: LANGEVIN TEMPERATURE   30
Info: LANGEVIN USING BBK INTEGRATOR
Info: LANGEVIN DAMPING COEFFICIENT IS 1 INVERSE PS
Info: LANGEVIN DYNAMICS APPLIED TO HYDROGENS
Info: LANGEVIN PISTON PRESSURE CONTROL ACTIVE
Info:        TARGET PRESSURE IS 1.01325 BAR
Info:     OSCILLATION PERIOD IS 50 FS
Info:             DECAY TIME IS 25 FS
Info:     PISTON TEMPERATURE IS 300 K
Info:       PRESSURE CONTROL IS GROUP-BASED
Info:    INITIAL STRAIN RATE IS 0 0 0
Info:       CELL FLUCTUATION IS ISOTROPIC
Info: PARTICLE MESH EWALD (PME) ACTIVE
Info: PME TOLERANCE               1e-06
Info: PME EWALD COEFFICIENT       0.348832
Info: PME INTERPOLATION ORDER     4
Info: PME GRID DIMENSIONS         40 36 36
Info: PME MAXIMUM GRID SPACING    1
Info: FULL ELECTROSTATIC EVALUATION FREQUENCY      2
Info: USING VERLET I (r-RESPA) MTS SCHEME.
Info: C1 SPLITTING OF LONG RANGE ELECTROSTATICS
Info: PLACING ATOMS IN PATCHES BY HYDROGEN GROUPS
Info: RIGID BONDS TO HYDROGEN : ALL
Info:         ERROR TOLERANCE : 1e-08
Info:          MAX ITERATIONS : 100
Info: RIGID WATER USING SETTLE ALGORITHM
Info: RANDOM NUMBER SEED     1743226432
Info: USE HYDROGEN BONDS?    NO
Info: Using AMBER format force field!
Info: AMBER PARM FILE        mobley_6929123.prmtop
Info: COORDINATE PDB         mobley_6929123.pdb
Info: Exclusions will be read from PARM file!
Info: SCNB (VDW SCALING)     2
Info: USING ARITHMETIC MEAN TO COMBINE L-J SIGMA PARAMETERS
Info: BINARY COORDINATES     mobley_6929123_min.coor
Info: SUMMARY OF PARAMETERS:
Info: 8 BONDS
Info: 9 ANGLES
Info:   9 HARMONIC
Info:   0 COSINE-BASED
Info: 10 DIHEDRAL
Info: 0 IMPROPER
Info: 0 CROSSTERM
Info: 0 VDW
Info: 36 VDW_PAIRS
Info: 0 NBTHOLE_PAIRS
Info: STRUCTURE SUMMARY:
Info: 2915 ATOMS
Info: 2914 BONDS
Info: 16 ANGLES
Info: 19 DIHEDRALS
Info: 0 IMPROPERS
Info: 0 CROSSTERMS
Info: 2941 EXCLUSIONS
Info: 2909 RIGID BONDS
Info: 5836 DEGREES OF FREEDOM
Info: 974 HYDROGEN GROUPS
Info: 4 ATOMS IN LARGEST HYDROGEN GROUP
Info: 974 MIGRATION GROUPS
Info: 4 ATOMS IN LARGEST MIGRATION GROUP
Info: TOTAL MASS = 17548 amu
Info: TOTAL CHARGE = -0.000200043 e
Info: MASS DENSITY = 0.659033 g/cm^3
Info: ATOM DENSITY = 0.0659263 atoms/A^3
Info: ADDED 0 IMPLICIT EXCLUSIONS
Info: NONBONDED TABLE R-SQUARED SPACING: 0.0625
Info: NONBONDED TABLE SIZE: 705 POINTS
Info: REMOVING COM VELOCITY -0.00345218 0.125899 0.102927
TCL: Running for 100000 steps
ETITLE: TS BOND ANGLE DIHED IMPRP ELECT VDW BOUNDARY MISC KINETIC TOTAL TEMP POTENTIAL TOTAL3 TEMPAVG PRESSURE GPRESSURE VOLUME PRESSAVG GPRESSAVG
ENERGY: 0 0.0736 0.5167 0.9289 0.0000 -13529.2899 2408.4304 0.0000 0.0000 1720.7055 -9398.6349 296.7438 -11119.3404 -9398.3118 296.7438 633.2974 659.3314 44216.0655 633.2974 659.3314
ENERGY: 100000 0.0826 0.7212 1.4641 0.0000 -13980.6106 2364.0972 0.0000 0.0000 171.5053 -11442.7401 29.5769 -11614.2454 -11442.1930 30.8356 -384.6019 -343.2870 28341.9390 4.0195 4.0326
TCL: Running 100000 steps at 60 kelvin.
TCL: Setting parameter langevinTemp to 60
TCL: Running for 100000 steps
ETITLE: TS BOND ANGLE DIHED IMPRP ELECT VDW BOUNDARY MISC KINETIC TOTAL TEMP POTENTIAL TOTAL3 TEMPAVG PRESSURE GPRESSURE VOLUME PRESSAVG GPRESSAVG
ENERGY: 100000 0.0826 0.7212 1.4641 0.0000 -13980.6106 2364.0972 0.0000 0.0000 171.4179 -11442.8275 29.5618 -11614.2454 -11442.4088 29.5618 -400.9199 -343.3645 28341.9390 -400.9199 -343.3645
ENERGY: 200000 1.7305 1.3668 1.9667 0.0000 -13969.0839 2394.9457 0.0000 0.0000 348.7608 -11220.3134 60.1454 -11569.0742 -11219.5996 59.8871 14.0399 86.5110 28233.1174 4.8989 4.9644
TCL: Running 100000 steps at 90 kelvin.
TCL: Setting parameter langevinTemp to 90
TCL: Running for 100000 steps
ETITLE: TS BOND ANGLE DIHED IMPRP ELECT VDW BOUNDARY MISC KINETIC TOTAL TEMP POTENTIAL TOTAL3 TEMPAVG PRESSURE GPRESSURE VOLUME PRESSAVG GPRESSAVG
ENERGY: 200000 1.7305 1.3668 1.9667 0.0000 -13969.0839 2394.9457 0.0000 0.0000 348.5843 -11220.4899 60.1150 -11569.0742 -11219.7390 60.1150 31.3214 86.5282 28233.1174 31.3214 86.5282
ENERGY: 300000 0.5431 2.0563 1.3553 0.0000 -13897.8524 2428.4137 0.0000 0.0000 521.9381 -10943.5459 90.0107 -11465.4840 -10942.5899 90.0649 639.0184 718.0093 28281.6487 4.4484 4.5665
TCL: Running 100000 steps at 120 kelvin.
TCL: Setting parameter langevinTemp to 120
TCL: Running for 100000 steps
ETITLE: TS BOND ANGLE DIHED IMPRP ELECT VDW BOUNDARY MISC KINETIC TOTAL TEMP POTENTIAL TOTAL3 TEMPAVG PRESSURE GPRESSURE VOLUME PRESSAVG GPRESSAVG
ENERGY: 300000 0.5431 2.0563 1.3553 0.0000 -13897.8524 2428.4137 0.0000 0.0000 521.6760 -10943.8080 89.9655 -11465.4840 -10942.7474 89.9655 655.8972 718.0507 28281.6487 655.8972 718.0507
ENERGY: 400000 0.3731 1.7269 1.2950 0.0000 -13724.6439 2379.2446 0.0000 0.0000 685.3866 -10656.6179 118.1981 -11342.0044 -10654.8375 120.0454 803.7292 851.7461 28158.5428 2.7315 2.7247
TCL: Running 100000 steps at 150 kelvin.
TCL: Setting parameter langevinTemp to 150
TCL: Running for 100000 steps
ETITLE: TS BOND ANGLE DIHED IMPRP ELECT VDW BOUNDARY MISC KINETIC TOTAL TEMP POTENTIAL TOTAL3 TEMPAVG PRESSURE GPRESSURE VOLUME PRESSAVG GPRESSAVG
ENERGY: 400000 0.3731 1.7269 1.2950 0.0000 -13724.6439 2379.2446 0.0000 0.0000 685.0329 -10656.9715 118.1372 -11342.0044 -10655.3915 118.1372 806.5622 851.5528 28158.5428 806.5622 851.5528
ENERGY: 500000 0.1048 2.7437 1.3252 0.0000 -13353.7178 2194.4879 0.0000 0.0000 861.1640 -10293.8923 148.5118 -11155.0562 -10291.7421 150.0763 -438.2563 -408.8687 28867.0182 4.6624 4.7657
TCL: Running 100000 steps at 180 kelvin.
TCL: Setting parameter langevinTemp to 180
TCL: Running for 100000 steps
ETITLE: TS BOND ANGLE DIHED IMPRP ELECT VDW BOUNDARY MISC KINETIC TOTAL TEMP POTENTIAL TOTAL3 TEMPAVG PRESSURE GPRESSURE VOLUME PRESSAVG GPRESSAVG
ENERGY: 500000 0.1048 2.7437 1.3252 0.0000 -13353.7178 2194.4879 0.0000 0.0000 860.7332 -10294.3231 148.4375 -11155.0562 -10292.8057 148.4375 -459.1797 -408.3542 28867.0182 -459.1797 -408.3542
ENERGY: 600000 1.0116 7.0636 1.1203 0.0000 -12982.9855 2097.2741 0.0000 0.0000 1026.5145 -9850.0015 177.0273 -10876.5159 -9847.7107 179.8643 -101.2279 -27.0590 28465.6882 3.0841 3.0460
TCL: Running 100000 steps at 210 kelvin.
TCL: Setting parameter langevinTemp to 210
TCL: Running for 100000 steps
ETITLE: TS BOND ANGLE DIHED IMPRP ELECT VDW BOUNDARY MISC KINETIC TOTAL TEMP POTENTIAL TOTAL3 TEMPAVG PRESSURE GPRESSURE VOLUME PRESSAVG GPRESSAVG
ENERGY: 600000 1.0116 7.0636 1.1203 0.0000 -12982.9855 2097.2741 0.0000 0.0000 1026.0101 -9850.5058 176.9403 -10876.5159 -9848.6504 176.9403 -101.0886 -28.2748 28465.6882 -101.0886 -28.2748
ENERGY: 700000 2.1051 3.2723 2.7039 0.0000 -12392.0948 1901.6465 0.0000 0.0000 1214.3732 -9267.9937 209.4244 -10482.3670 -9264.9192 209.2994 103.2294 191.6800 28114.2295 4.3072 4.1524
TCL: Running 100000 steps at 240 kelvin.
TCL: Setting parameter langevinTemp to 240
TCL: Running for 100000 steps
ETITLE: TS BOND ANGLE DIHED IMPRP ELECT VDW BOUNDARY MISC KINETIC TOTAL TEMP POTENTIAL TOTAL3 TEMPAVG PRESSURE GPRESSURE VOLUME PRESSAVG GPRESSAVG
ENERGY: 700000 2.1051 3.2723 2.7039 0.0000 -12392.0948 1901.6465 0.0000 0.0000 1213.7571 -9268.6099 209.3181 -10482.3670 -9265.8224 209.3181 110.9270 189.5920 28114.2295 110.9270 189.5920
ENERGY: 800000 2.4725 2.3053 2.4750 0.0000 -11722.6313 1719.8875 0.0000 0.0000 1388.5183 -8606.9727 239.4565 -9995.4910 -8605.1692 240.2072 163.0353 177.5123 28550.7658 3.6710 3.5998
TCL: Running 100000 steps at 270 kelvin.
TCL: Setting parameter langevinTemp to 270
TCL: Running for 100000 steps
ETITLE: TS BOND ANGLE DIHED IMPRP ELECT VDW BOUNDARY MISC KINETIC TOTAL TEMP POTENTIAL TOTAL3 TEMPAVG PRESSURE GPRESSURE VOLUME PRESSAVG GPRESSAVG
ENERGY: 800000 2.4725 2.3053 2.4750 0.0000 -11722.6313 1719.8875 0.0000 0.0000 1387.8380 -8607.6530 239.3392 -9995.4910 -8605.6582 239.3392 109.6667 175.1926 28550.7658 109.6667 175.1926
ENERGY: 900000 1.8306 2.5968 4.1188 0.0000 -11138.0957 1558.7810 0.0000 0.0000 1519.2186 -8051.5499 261.9964 -9570.7685 -8047.5008 270.0031 220.9167 357.1836 28961.6575 2.3794 2.3905
TCL: Running 1000000 steps at 300 kelvin.
TCL: Setting parameter langevinTemp to 300
TCL: Running for 1000000 steps
ETITLE: TS BOND ANGLE DIHED IMPRP ELECT VDW BOUNDARY MISC KINETIC TOTAL TEMP POTENTIAL TOTAL3 TEMPAVG PRESSURE GPRESSURE VOLUME PRESSAVG GPRESSAVG
ENERGY: 900000 1.8306 2.5968 4.1188 0.0000 -11138.0957 1558.7810 0.0000 0.0000 1518.4542 -8052.3143 261.8646 -9570.7685 -8049.9219 261.8646 275.1501 359.2511 28961.6575 275.1501 359.2511
ENERGY: 1100000 2.5593 2.9933 2.1150 0.0000 -10670.8635 1404.8187 0.0000 0.0000 1790.7163 -7467.6609 308.8175 -9258.3773 -7463.5901 300.7063 -86.7225 4.1243 29601.8388 3.4110 3.4036
ENERGY: 1300000 2.9468 3.6496 1.9454 0.0000 -10797.3335 1543.4643 0.0000 0.0000 1739.4224 -7505.9050 299.9716 -9245.3274 -7502.5161 299.7409 1010.1236 1084.7276 29111.5601 3.6127 3.8712
ENERGY: 1500000 1.2257 2.1709 2.3087 0.0000 -10597.7749 1503.8949 0.0000 0.0000 1773.4566 -7314.7180 305.8410 -9088.1746 -7314.1068 299.8336 865.7736 912.4137 29965.8080 3.2216 3.2176
ENERGY: 1700000 0.9017 5.9880 1.8009 0.0000 -10608.6743 1442.7867 0.0000 0.0000 1748.0215 -7409.1754 301.4546 -9157.1970 -7403.1527 299.7336 109.4672 162.1697 30225.4669 2.6938 2.6883
ENERGY: 1900000 2.4589 5.8760 1.2837 0.0000 -10561.9996 1354.0349 0.0000 0.0000 1785.9014 -7412.4447 307.9871 -9198.3461 -7406.6943 299.5217 -1078.0186 -983.9586 30485.5144 4.3809 4.1973
TCL: Exiting due to exit command.
