Info: SIMULATION PARAMETERS:
Info: TIMESTEP               2
Info: NUMBER OF STEPS        0
Info: STEPS PER CYCLE        10
Info: PERIODIC CELL BASIS 1  32.0238 0 0
Info: PERIODIC CELL BASIS 2  0 30.2399 0
Info: PERIODIC CELL BASIS 3  0 0 31.5313
Info: PERIODIC CELL CENTER   0 0 0
Info: WRAPPING WATERS AROUND PERIODIC BOUNDARIES ON OUTPUT.
Info: WRAPPING ALL CLUSTERS AROUND PERIODIC BOUNDARIES ON OUTPUT.
Info: FIRST LDB TIMESTEP     50
Info: LAST LDB TIMESTEP     -1
Info: HOM BACKGROUND SCALING 1
Info: PME BACKGROUND SCALING 1
Info: MIN ATOMS PER PATCH    40
Info: EMPTY PATCH LOAD       40 ATOMS
Info: VELOCITY FILE          mobley_4465023_equil.vel
Info: CENTER OF MASS MOVING INITIALLY? NO
Info: DIELECTRIC             1
Info: EXCLUDE                SCALED ONE-FOUR
Info: 1-4 ELECTROSTATICS SCALED BY 0.833333
Info: MODIFIED 1-4 VDW PARAMETERS WILL BE USED
Info: DCD FILENAME           mobley_4465023_prod.dcd
Info: DCD FREQUENCY          100000
Info: DCD FIRST STEP         100000
Info: DCD FILE WILL CONTAIN UNIT CELL DATA
Info: XST FILENAME           mobley_4465023_prod.xst
Info: XST FREQUENCY          100000
Info: NO VELOCITY DCD OUTPUT
Info: NO FORCE DCD OUTPUT
Info: OUTPUT FILENAME        mobley_4465023_prod
Info: BINARY OUTPUT FILES WILL BE USED
Info: RESTART FILENAME       mobley_4465023_prod.restart
Info: RESTART FREQUENCY      100000
Info: BINARY RESTART FILES WILL BE USED
Info: CUTOFF                 9
Info: PAIRLIST DISTANCE      11
Info: PAIRLIST SHRINK RATE   0.01
Info: PAIRLIST GROW RATE     0.01
Info: PAIRLIST TRIGGER       0.3
Info: PAIRLISTS PER CYCLE    2
Info: PAIRLISTS ENABLED
Info: MARGIN                 2
Info: HYDROGEN GROUP CUTOFF  2.5
Info: PATCH DIMENSION        15.5
Info: ENERGY OUTPUT STEPS    100000
Info: ENERGY EVALUATION STEPS    100000
Info: OUTPUT ENERGY PRECISION 4
Info: CROSSTERM ENERGY INCLUDED IN DIHEDRAL
Info: TIMING OUTPUT STEPS    1000000
Info: PRESSURE OUTPUT STEPS  100000
Info: ALCHEMICAL FEP ON
Info: FEP CURRENT LAMBDA VALUE     0
Info: FEP COMPARISON LAMBDA VALUE  0.05
Info: FEP INTRA-ALCHEMICAL NON-BONDED INTERACTIONS WILL BE RETAINED
Info: FEP INTRA-ALCHEMICAL BONDED INTERACTIONS WILL BE RETAINED
Info: FEP VDW SHIFTING COEFFICIENT 5
Info: FEP ELEC. ACTIVE FOR ANNIHILATED PARTICLES BETWEEN LAMBDA = 0 AND LAMBDA = 0.5
Info: FEP ELEC. ACTIVE FOR EXNIHILATED PARTICLES BETWEEN LAMBDA = 0.5 AND LAMBDA = 1
Info: FEP VDW ACTIVE FOR ANNIHILATED PARTICLES BETWEEN LAMBDA = 0 AND LAMBDA = 1
Info: FEP VDW ACTIVE FOR EXNIHILATED PARTICLES BETWEEN LAMBDA = 0 AND LAMBDA = 1
Info: FEP BOND ACTIVE FOR ANNIHILATED PARTICLES BETWEEN LAMBDA = 1 AND LAMBDA = 1
Info: FEP BOND ACTIVE FOR EXNIHILATED PARTICLES BETWEEN LAMBDA = 0 AND LAMBDA = 0
Info: LANGEVIN DYNAMICS ACTIVE
Info: LANGEVIN TEMPERATURE   300
Info: LANGEVIN USING BBK INTEGRATOR
Info: LANGEVIN DAMPING COEFFICIENT IS 1 INVERSE PS
Info: LANGEVIN DYNAMICS APPLIED TO HYDROGENS
Info: LANGEVIN PISTON PRESSURE CONTROL ACTIVE
Info:        TARGET PRESSURE IS 1.01325 BAR
Info:     OSCILLATION PERIOD IS 50 FS
Info:             DECAY TIME IS 25 FS
Info:     PISTON TEMPERATURE IS 300 K
Info:       PRESSURE CONTROL IS GROUP-BASED
Info:    INITIAL STRAIN RATE IS 0.000355055 0.000355055 0.000355055
Info:       CELL FLUCTUATION IS ISOTROPIC
Info: PARTICLE MESH EWALD (PME) ACTIVE
Info: PME TOLERANCE               1e-06
Info: PME EWALD COEFFICIENT       0.348832
Info: PME INTERPOLATION ORDER     4
Info: PME GRID DIMENSIONS         36 32 32
Info: PME MAXIMUM GRID SPACING    1
Info: PME CALCULATION WILL BE PERFORMED ON GPU
Info: FULL ELECTROSTATIC EVALUATION FREQUENCY      2
Info: USING VERLET I (r-RESPA) MTS SCHEME.
Info: C1 SPLITTING OF LONG RANGE ELECTROSTATICS
Info: PLACING ATOMS IN PATCHES BY HYDROGEN GROUPS
Info: RIGID BONDS TO HYDROGEN : ALL
Info:         ERROR TOLERANCE : 1e-08
Info:          MAX ITERATIONS : 100
Info: RIGID WATER USING SETTLE ALGORITHM
Info: RANDOM NUMBER SEED     1743469995
Info: USE HYDROGEN BONDS?    NO
Info: Using AMBER format force field!
Info: AMBER PARM FILE        mobley_4465023.prmtop
Info: COORDINATE PDB         mobley_4465023.pdb
Info: Exclusions will be read from PARM file!
Info: SCNB (VDW SCALING)     2
Info: USING ARITHMETIC MEAN TO COMBINE L-J SIGMA PARAMETERS
Info: BINARY COORDINATES     mobley_4465023_equil.coor
Info: SUMMARY OF PARAMETERS:
Info: 5 BONDS
Info: 3 ANGLES
Info:   3 HARMONIC
Info:   0 COSINE-BASED
Info: 2 DIHEDRAL
Info: 0 IMPROPER
Info: 0 CROSSTERM
Info: 0 VDW
Info: 15 VDW_PAIRS
Info: 0 NBTHOLE_PAIRS
Info: To read alchdata from file: mobley_4465023.pdb
Info: To read alchflag data from column: 5
Info: STRUCTURE SUMMARY:
Info: 2916 ATOMS
Info: 2915 BONDS
Info: 6 ANGLES
Info: 6 DIHEDRALS
Info: 0 IMPROPERS
Info: 0 CROSSTERMS
Info: 2925 EXCLUSIONS
Info: 2912 RIGID BONDS
Info: ALCH: 0 ATOMS TO DISAPPEAR IN FINAL STATE
Info: ALCH: 6 ATOMS TO APPEAR IN FINAL STATE
Info: 5836 DEGREES OF FREEDOM
Info: 974 HYDROGEN GROUPS
Info: 3 ATOMS IN LARGEST HYDROGEN GROUP
Info: 974 MIGRATION GROUPS
Info: 3 ATOMS IN LARGEST MIGRATION GROUP
Info: TOTAL MASS = 17572.5 amu
Info: TOTAL CHARGE = -1.49012e-08 e
Info: MASS DENSITY = 0.955644 g/cm^3
Info: ATOM DENSITY = 0.0954975 atoms/A^3
Info: ADDED 0 IMPLICIT EXCLUSIONS
Info: NONBONDED TABLE R-SQUARED SPACING: 0.0625
Info: NONBONDED TABLE SIZE: 705 POINTS
Info: REMOVING COM VELOCITY 0.057648 0.0289524 0.0253015
Info: Use 3D box decompostion in PME FFT.
Info: Updated CUDA force table with 4096 elements.
Info: Updated CUDA LJ table with 5 x 5 elements.
Info: Found 9 unique exclusion lists needing 12 bytes
TCL: Running for 1500000 steps
ETITLE: TS BOND ANGLE DIHED IMPRP ELECT VDW BOUNDARY MISC KINETIC TOTAL TEMP POTENTIAL TOTALAVG TEMPAVG PRESSURE GPRESSURE VOLUME PRESSAVG GPRESSAVG
ENERGY: 0 0.7400 3.3592 1.5535 0.0000 -10427.6713 1342.9633 0.0000 0.0000 1691.7152 -7387.3402 291.7443 -9079.0554 -7387.3402 291.7443 -542.2165 -459.1620 30534.8304 -542.2165 -459.1620
ENERGY: 300000 1.5088 1.4465 0.5192 0.0000 -10542.4168 1383.6332 0.0000 0.0000 1758.0896 -7397.2194 303.1909 -9155.3090 -7407.4183 296.9314 -566.7099 -489.1143 30285.1305 -311.6224 -242.5199
ENERGY: 600000 0.3942 1.2601 0.6252 0.0000 -10544.2055 1440.3343 0.0000 0.0000 1707.0807 -7394.5109 294.3941 -9101.5917 -7403.4624 298.5270 9.9157 79.5287 30298.9706 -244.1551 -164.9983
ENERGY: 900000 0.5194 0.9463 0.1662 0.0000 -10631.5924 1432.5130 0.0000 0.0000 1763.7047 -7433.7426 304.1592 -9197.4474 -7396.6915 300.6888 -255.5397 -208.4942 30263.8566 -244.8671 -174.4618
ENERGY: 1200000 1.0564 2.9291 0.1156 0.0000 -10632.7316 1439.8740 0.0000 0.0000 1693.1914 -7495.5652 291.9989 -9188.7566 -7417.9268 299.5260 88.2249 138.5955 30025.8186 -82.1350 -21.5129
ENERGY: 1500000 0.4780 0.8747 1.1044 0.0000 -10717.6103 1563.4578 0.0000 0.0000 1709.4315 -7442.2639 294.7995 -9151.6954 -7416.5497 299.3971 990.2554 1046.8073 30124.6217 -66.1194 -4.1987
TCL: Running FEP window   2: Lambda1 0.05   Lambda2 0.1    [dLambda 0.05  ]
TCL: Setting parameter firsttimestep to 0
TCL: Setting parameter alchLambda to 0.05
Info: NONBONDED TABLE R-SQUARED SPACING: 0.0625
Info: NONBONDED TABLE SIZE: 705 POINTS
TCL: Setting parameter alchLambda2 to 0.1
Info: NONBONDED TABLE R-SQUARED SPACING: 0.0625
Info: NONBONDED TABLE SIZE: 705 POINTS
TCL: Running for 1500000 steps
ETITLE: TS BOND ANGLE DIHED IMPRP ELECT VDW BOUNDARY MISC KINETIC TOTAL TEMP POTENTIAL TOTALAVG TEMPAVG PRESSURE GPRESSURE VOLUME PRESSAVG GPRESSAVG
ENERGY: 0 0.4780 0.8747 1.1044 0.0000 -10717.6096 1566.0433 0.0000 0.0000 1708.5715 -7440.5377 294.6512 -9149.1092 -7440.5377 294.6512 963.9753 1053.7543 30124.6217 963.9753 1053.7543
ENERGY: 300000 1.1094 0.6726 0.7346 0.0000 -10803.9993 1515.5253 0.0000 0.0000 1765.8086 -7520.1488 304.5220 -9285.9574 -7496.1979 297.8829 485.2505 576.5189 29399.0114 291.0833 357.3412
ENERGY: 600000 0.4775 0.3839 0.4736 0.0000 -10539.7955 1439.0211 0.0000 0.0000 1756.5536 -7342.8859 302.9260 -9099.4395 -7456.0273 299.1007 239.1732 228.5698 30223.2963 120.7297 184.8735
ENERGY: 900000 1.4147 0.2687 0.0548 0.0000 -10602.8074 1446.0473 0.0000 0.0000 1707.8907 -7447.1311 294.5338 -9155.0218 -7458.2806 298.1867 109.4301 182.6511 29958.5108 99.0312 160.6951
ENERGY: 1200000 0.5750 2.5289 0.6513 0.0000 -10451.6620 1335.4721 0.0000 0.0000 1778.5257 -7333.9090 306.7152 -9112.4347 -7443.9751 299.3139 -839.6638 -757.3257 30563.6911 20.8665 88.1368
ENERGY: 1500000 0.6018 0.5721 0.0595 0.0000 -10462.9312 1343.0799 0.0000 0.0000 1696.4434 -7422.1745 292.5597 -9118.6179 -7433.2470 299.1170 -516.3639 -487.4043 29968.2897 -41.9971 27.6791
TCL: Running FEP window   3: Lambda1 0.1    Lambda2 0.15000000000000002 [dLambda 0.05000000000000002]
TCL: Setting parameter firsttimestep to 0
TCL: Setting parameter alchLambda to 0.1
Info: NONBONDED TABLE R-SQUARED SPACING: 0.0625
Info: NONBONDED TABLE SIZE: 705 POINTS
TCL: Setting parameter alchLambda2 to 0.15000000000000002
Info: NONBONDED TABLE R-SQUARED SPACING: 0.0625
Info: NONBONDED TABLE SIZE: 705 POINTS
TCL: Running for 1500000 steps
ETITLE: TS BOND ANGLE DIHED IMPRP ELECT VDW BOUNDARY MISC KINETIC TOTAL TEMP POTENTIAL TOTALAVG TEMPAVG PRESSURE GPRESSURE VOLUME PRESSAVG GPRESSAVG
ENERGY: 0 0.6018 0.5721 0.0595 0.0000 -10462.9316 1344.9161 0.0000 0.0000 1695.5754 -7421.2067 292.4100 -9116.7821 -7421.2067 292.4100 -558.4152 -481.6511 29968.2897 -558.4152 -481.6511
ENERGY: 300000 1.0441 1.0626 0.9375 0.0000 -10485.7265 1360.5214 0.0000 0.0000 1710.9243 -7411.2366 295.0570 -9122.1609 -7429.9177 294.4798 -513.0689 -414.2990 30441.8758 -182.8459 -85.8533
ENERGY: 600000 1.4034 0.3343 1.0876 0.0000 -10587.2546 1426.1697 0.0000 0.0000 1715.6944 -7442.5653 295.8796 -9158.2596 -7436.7046 297.6936 -101.3009 -41.6311 29980.7369 -96.4087 -7.0009
ENERGY: 900000 0.4206 1.0365 0.4700 0.0000 -10616.3424 1437.7048 0.0000 0.0000 1773.0638 -7403.6467 305.7732 -9176.7104 -7440.3909 297.8465 -216.1173 -81.3445 30068.4492 -70.7020 21.3144
ENERGY: 1200000 1.5796 0.4397 1.3297 0.0000 -10607.1552 1400.4124 0.0000 0.0000 1763.1467 -7440.2471 304.0630 -9203.3938 -7437.6053 298.2997 -385.7949 -346.3993 30113.8188 -106.5441 -20.5524
ENERGY: 1500000 0.7907 2.8470 0.1574 0.0000 -10605.8199 1425.7179 0.0000 0.0000 1724.0882 -7452.2187 297.3272 -9176.3069 -7445.0065 297.7488 -237.4549 -175.2899 30365.1295 -134.3398 -51.9426
TCL: Running FEP window   4: Lambda1 0.15000000000000002 Lambda2 0.2    [dLambda 0.04999999999999999]
TCL: Setting parameter firsttimestep to 0
TCL: Setting parameter alchLambda to 0.15000000000000002
Info: NONBONDED TABLE R-SQUARED SPACING: 0.0625
Info: NONBONDED TABLE SIZE: 705 POINTS
TCL: Setting parameter alchLambda2 to 0.2
Info: NONBONDED TABLE R-SQUARED SPACING: 0.0625
Info: NONBONDED TABLE SIZE: 705 POINTS
TCL: Running for 1500000 steps
ETITLE: TS BOND ANGLE DIHED IMPRP ELECT VDW BOUNDARY MISC KINETIC TOTAL TEMP POTENTIAL TOTALAVG TEMPAVG PRESSURE GPRESSURE VOLUME PRESSAVG GPRESSAVG
ENERGY: 0 0.7907 2.8470 0.1574 0.0000 -10605.8201 1426.0006 0.0000 0.0000 1723.2426 -7452.7819 297.1813 -9176.0245 -7452.7819 297.1813 -253.6921 -172.3587 30365.1295 -253.6921 -172.3587
ENERGY: 300000 0.9803 0.6085 1.4524 0.0000 -10528.3415 1382.1481 0.0000 0.0000 1701.2617 -7441.8905 293.3906 -9143.1522 -7458.1807 294.3428 -230.1277 -206.0059 29887.9391 21.3277 101.0865
ENERGY: 600000 0.5661 0.3185 0.0485 0.0000 -10632.3242 1392.8801 0.0000 0.0000 1815.1205 -7423.3905 313.0261 -9238.5111 -7439.9737 298.0381 -703.5045 -580.5067 30186.2541 -286.8807 -194.1285
ENERGY: 900000 0.3466 2.6998 1.4659 0.0000 -10605.5836 1407.2708 0.0000 0.0000 1699.8612 -7493.9391 293.1491 -9193.8004 -7434.4022 297.6635 -171.0782 -86.5224 29601.6572 -180.8266 -93.1096
ENERGY: 1200000 0.3466 2.6800 2.5359 0.0000 -10595.0192 1400.9958 0.0000 0.0000 1754.3023 -7434.1585 302.5377 -9188.4608 -7436.4197 298.6547 -384.2376 -332.8786 30010.0259 -49.9208 29.9685
ENERGY: 1500000 0.3133 1.5177 0.8374 0.0000 -10577.6684 1412.8455 0.0000 0.0000 1762.9828 -7399.1718 304.0347 -9162.1545 -7440.3142 299.6787 -39.6511 -11.4038 29860.6442 3.1880 78.3250
TCL: Running FEP window   5: Lambda1 0.2    Lambda2 0.25   [dLambda 0.04999999999999999]
TCL: Setting parameter firsttimestep to 0
TCL: Setting parameter alchLambda to 0.2
Info: NONBONDED TABLE R-SQUARED SPACING: 0.0625
Info: NONBONDED TABLE SIZE: 705 POINTS
TCL: Setting parameter alchLambda2 to 0.25
Info: NONBONDED TABLE R-SQUARED SPACING: 0.0625
Info: NONBONDED TABLE SIZE: 705 POINTS
TCL: Running for 1500000 steps
ETITLE: TS BOND ANGLE DIHED IMPRP ELECT VDW BOUNDARY MISC KINETIC TOTAL TEMP POTENTIAL TOTALAVG TEMPAVG PRESSURE GPRESSURE VOLUME PRESSAVG GPRESSAVG
ENERGY: 0 0.3133 1.5177 0.8374 0.0000 -10577.6673 1413.7038 0.0000 0.0000 1762.1099 -7399.1852 303.8842 -9161.2951 -7399.1852 303.8842 -90.4871 -5.8632 29860.6442 -90.4871 -5.8632
ENERGY: 300000 0.5374 0.5406 0.8104 0.0000 -10736.4307 1422.4824 0.0000 0.0000 1739.1639 -7572.8960 299.9270 -9312.0600 -7441.5123 304.4001 -414.7195 -290.7041 29631.8830 -244.9464 -170.1768
ENERGY: 600000 1.3391 1.3893 0.3310 0.0000 -10566.6645 1394.1763 0.0000 0.0000 1700.2483 -7469.1804 293.2159 -9169.4287 -7428.9544 302.6632 -623.4254 -579.0729 30419.2798 -175.7708 -116.5678
ENERGY: 900000 0.4771 4.4149 0.2025 0.0000 -10459.2696 1359.6207 0.0000 0.0000 1727.1191 -7367.4353 297.8499 -9094.5544 -7418.7488 302.5624 -482.5273 -428.6677 30207.5394 -106.4387 -47.7629
ENERGY: 1200000 0.2973 0.1087 0.9659 0.0000 -10706.5428 1453.3116 0.0000 0.0000 1711.6377 -7540.2215 295.1800 -9251.8592 -7420.4270 302.4776 -145.5961 -32.2736 29678.0596 -148.6295 -85.5840
ENERGY: 1500000 0.6805 1.0715 1.3925 0.0000 -10618.9342 1496.6732 0.0000 0.0000 1751.8199 -7367.2967 302.1096 -9119.1166 -7416.5736 301.5189 771.5987 817.6058 29893.9099 -54.9768 4.1736
TCL: Running FEP window   6: Lambda1 0.25   Lambda2 0.3    [dLambda 0.04999999999999999]
TCL: Setting parameter firsttimestep to 0
TCL: Setting parameter alchLambda to 0.25
Info: NONBONDED TABLE R-SQUARED SPACING: 0.0625
Info: NONBONDED TABLE SIZE: 705 POINTS
TCL: Setting parameter alchLambda2 to 0.3
Info: NONBONDED TABLE R-SQUARED SPACING: 0.0625
Info: NONBONDED TABLE SIZE: 705 POINTS
TCL: Running for 1500000 steps
ETITLE: TS BOND ANGLE DIHED IMPRP ELECT VDW BOUNDARY MISC KINETIC TOTAL TEMP POTENTIAL TOTALAVG TEMPAVG PRESSURE GPRESSURE VOLUME PRESSAVG GPRESSAVG
ENERGY: 0 0.6805 1.0715 1.3925 0.0000 -10618.9329 1498.4531 0.0000 0.0000 1750.9430 -7366.3925 301.9584 -9117.3354 -7366.3925 301.9584 763.8728 833.2829 29893.9099 763.8728 833.2829
ENERGY: 300000 1.2649 0.8338 1.5367 0.0000 -10655.7737 1442.4677 0.0000 0.0000 1793.1735 -7416.4970 309.2412 -9209.6705 -7394.7817 301.0929 267.2960 329.5737 29735.5425 277.4512 323.5426
ENERGY: 600000 0.6899 1.0325 0.8504 0.0000 -10560.5784 1450.6221 0.0000 0.0000 1689.5211 -7417.8623 291.3659 -9107.3835 -7407.1463 298.9211 177.1283 220.4719 30371.8020 77.7522 122.3754
ENERGY: 900000 1.6636 4.3469 2.4036 0.0000 -10655.9540 1480.5986 0.0000 0.0000 1758.0738 -7408.8675 303.1881 -9166.9413 -7415.9570 299.8855 217.3787 253.1789 30491.0697 141.1550 191.9647
ENERGY: 1200000 0.5803 1.2030 0.6566 0.0000 -10384.4422 1369.2168 0.0000 0.0000 1739.4853 -7273.3002 299.9825 -9012.7854 -7406.0907 299.8160 -323.4643 -273.8465 30617.2223 6.6620 55.7267
ENERGY: 1500000 1.7051 1.2427 0.1877 0.0000 -10589.5146 1363.6961 0.0000 0.0000 1734.9532 -7487.7297 299.2009 -9222.6830 -7418.7187 299.3687 -809.3662 -722.9113 30318.2736 1.9034 52.9519
TCL: Running FEP window   7: Lambda1 0.3    Lambda2 0.35   [dLambda 0.04999999999999999]
TCL: Setting parameter firsttimestep to 0
TCL: Setting parameter alchLambda to 0.3
Info: NONBONDED TABLE R-SQUARED SPACING: 0.0625
Info: NONBONDED TABLE SIZE: 705 POINTS
TCL: Setting parameter alchLambda2 to 0.35
Info: NONBONDED TABLE R-SQUARED SPACING: 0.0625
Info: NONBONDED TABLE SIZE: 705 POINTS
TCL: Running for 1500000 steps
ETITLE: TS BOND ANGLE DIHED IMPRP ELECT VDW BOUNDARY MISC KINETIC TOTAL TEMP POTENTIAL TOTALAVG TEMPAVG PRESSURE GPRESSURE VOLUME PRESSAVG GPRESSAVG
ENERGY: 0 1.7051 1.2427 0.1877 0.0000 -10589.5141 1363.8826 0.0000 0.0000 1734.0811 -7488.4149 299.0505 -9222.4960 -7488.4149 299.0505 -800.9025 -719.1074 30318.2736 -800.9025 -719.1074
ENERGY: 300000 1.3280 1.7636 1.0740 0.0000 -10500.8281 1344.9074 0.0000 0.0000 1722.9131 -7428.8420 297.1245 -9151.7551 -7410.9089 300.7245 -466.1006 -347.9447 29650.1141 -287.8290 -194.2643
ENERGY: 600000 0.5988 1.2467 0.9862 0.0000 -10695.2447 1493.4441 0.0000 0.0000 1787.4726 -7411.4963 308.2581 -9198.9689 -7431.0919 301.3075 280.1414 403.7102 30092.9211 -209.1131 -136.1873
ENERGY: 900000 0.3481 0.2238 2.0217 0.0000 -10614.2252 1401.7394 0.0000 0.0000 1701.5425 -7508.3498 293.4390 -9209.8923 -7434.0054 299.8952 -150.6059 -154.7763 29865.6294 -203.5975 -149.6062
ENERGY: 1200000 0.1321 1.1235 0.1896 0.0000 -10642.0904 1430.2124 0.0000 0.0000 1763.7766 -7446.6563 304.1716 -9210.4328 -7434.5654 300.5840 6.0441 95.3077 29763.2881 -257.9999 -198.4568
ENERGY: 1500000 0.4979 0.4949 0.8728 0.0000 -10539.1516 1398.0734 0.0000 0.0000 1820.0073 -7319.2052 313.8689 -9139.2125 -7423.7919 301.6726 -78.6586 -12.9866 30009.3312 -229.0083 -168.9410
TCL: Running FEP window   8: Lambda1 0.35   Lambda2 0.39999999999999997 [dLambda 0.04999999999999999]
TCL: Setting parameter firsttimestep to 0
TCL: Setting parameter alchLambda to 0.35
Info: NONBONDED TABLE R-SQUARED SPACING: 0.0625
Info: NONBONDED TABLE SIZE: 705 POINTS
TCL: Setting parameter alchLambda2 to 0.39999999999999997
Info: NONBONDED TABLE R-SQUARED SPACING: 0.0625
Info: NONBONDED TABLE SIZE: 705 POINTS
TCL: Running for 1500000 steps
ETITLE: TS BOND ANGLE DIHED IMPRP ELECT VDW BOUNDARY MISC KINETIC TOTAL TEMP POTENTIAL TOTALAVG TEMPAVG PRESSURE GPRESSURE VOLUME PRESSAVG GPRESSAVG
ENERGY: 0 0.4979 0.4949 0.8728 0.0000 -10539.1501 1397.7848 0.0000 0.0000 1819.1492 -7320.3505 313.7209 -9139.4997 -7320.3505 313.7209 -81.5345 -12.7692 30009.3312 -81.5345 -12.7692
ENERGY: 300000 0.9952 0.3029 0.4649 0.0000 -10382.7079 1276.4462 0.0000 0.0000 1769.7317 -7334.7670 305.1986 -9104.4987 -7384.7028 306.6931 -1161.5544 -1052.0766 30228.4885 -421.1451 -368.7879
ENERGY: 600000 2.2439 0.6031 1.8537 0.0000 -10602.0241 1439.0073 0.0000 0.0000 1735.7098 -7422.6063 299.3314 -9158.3160 -7406.1060 301.6577 386.9890 441.9862 29602.1717 -176.7640 -120.0695
ENERGY: 900000 0.2048 0.2112 0.4050 0.0000 -10540.6969 1407.4171 0.0000 0.0000 1693.9114 -7438.5473 292.1230 -9132.4587 -7418.4874 300.2345 -252.1577 -229.8866 30424.2884 -154.1921 -109.5812
ENERGY: 1200000 0.5710 0.8180 0.2929 0.0000 -10547.3311 1389.6197 0.0000 0.0000 1670.0676 -7485.9619 288.0110 -9156.0295 -7431.9362 298.8365 -367.2200 -369.1097 30068.0865 -237.0959 -186.8230
ENERGY: 1500000 1.0498 0.4028 0.7413 0.0000 -10559.0619 1444.5048 0.0000 0.0000 1725.6330 -7386.7301 297.5936 -9112.3631 -7431.9733 298.4130 33.7770 142.2702 30743.3219 -178.6472 -126.2635
TCL: Running FEP window   9: Lambda1 0.39999999999999997 Lambda2 0.44999999999999996 [dLambda 0.04999999999999999]
TCL: Setting parameter firsttimestep to 0
TCL: Setting parameter alchLambda to 0.39999999999999997
Info: NONBONDED TABLE R-SQUARED SPACING: 0.0625
Info: NONBONDED TABLE SIZE: 705 POINTS
TCL: Setting parameter alchLambda2 to 0.44999999999999996
Info: NONBONDED TABLE R-SQUARED SPACING: 0.0625
Info: NONBONDED TABLE SIZE: 705 POINTS
TCL: Running for 1500000 steps
ETITLE: TS BOND ANGLE DIHED IMPRP ELECT VDW BOUNDARY MISC KINETIC TOTAL TEMP POTENTIAL TOTALAVG TEMPAVG PRESSURE GPRESSURE VOLUME PRESSAVG GPRESSAVG
ENERGY: 0 1.0498 0.4028 0.7413 0.0000 -10559.0622 1444.2353 0.0000 0.0000 1724.7516 -7387.8814 297.4416 -9112.6329 -7387.8814 297.4416 67.6862 141.5128 30743.3219 67.6862 141.5128
ENERGY: 300000 0.5011 0.2008 0.1391 0.0000 -10742.6598 1449.6025 0.0000 0.0000 1722.9613 -7569.2551 297.1328 -9292.2164 -7448.2374 298.0991 -192.9137 -164.0725 29942.3674 -40.7177 29.4682
ENERGY: 600000 0.2401 0.3512 0.4727 0.0000 -10592.5748 1347.3252 0.0000 0.0000 1744.5763 -7499.6093 300.8604 -9244.1856 -7416.9327 300.4454 -724.7475 -657.4468 29824.4502 -146.7106 -72.7794
ENERGY: 900000 1.1730 1.0882 1.0203 0.0000 -10578.2623 1451.3048 0.0000 0.0000 1845.7132 -7277.9628 318.3020 -9123.6760 -7405.1547 303.0697 450.0418 483.6315 29966.2553 -144.5398 -80.9501
ENERGY: 1200000 1.0656 1.2562 0.2949 0.0000 -10582.2169 1458.7761 0.0000 0.0000 1709.9255 -7410.8986 294.8847 -9120.8241 -7399.8733 303.1111 233.8876 300.6268 30327.7611 -185.8921 -127.3960
ENERGY: 1500000 0.2905 2.1059 1.5286 0.0000 -10519.9650 1306.5837 0.0000 0.0000 1755.0749 -7454.3815 302.6710 -9209.4564 -7406.2712 302.6354 -1148.8907 -1024.4626 30031.0996 -164.4285 -99.5574
TCL: Running FEP window  10: Lambda1 0.44999999999999996 Lambda2 0.49999999999999994 [dLambda 0.04999999999999999]
TCL: Setting parameter firsttimestep to 0
TCL: Setting parameter alchLambda to 0.44999999999999996
Info: NONBONDED TABLE R-SQUARED SPACING: 0.0625
Info: NONBONDED TABLE SIZE: 705 POINTS
TCL: Setting parameter alchLambda2 to 0.49999999999999994
Info: NONBONDED TABLE R-SQUARED SPACING: 0.0625
Info: NONBONDED TABLE SIZE: 705 POINTS
TCL: Running for 1500000 steps
ETITLE: TS BOND ANGLE DIHED IMPRP ELECT VDW BOUNDARY MISC KINETIC TOTAL TEMP POTENTIAL TOTALAVG TEMPAVG PRESSURE GPRESSURE VOLUME PRESSAVG GPRESSAVG
ENERGY: 0 0.2905 2.1059 1.5286 0.0000 -10519.9655 1306.3228 0.0000 0.0000 1754.2157 -7455.5021 302.5228 -9209.7178 -7455.5021 302.5228 -1107.2204 -1025.7657 30031.0996 -1107.2204 -1025.7657
ENERGY: 300000 2.9570 1.1481 0.4488 0.0000 -10445.1031 1287.1109 0.0000 0.0000 1697.8365 -7455.6018 292.7999 -9153.4383 -7451.4336 296.3562 -1266.7004 -1145.4275 30287.2658 -364.8624 -302.8815
ENERGY: 600000 1.1544 1.4498 0.3762 0.0000 -10542.7733 1352.3245 0.0000 0.0000 1754.6673 -7432.8011 302.6007 -9187.4684 -7441.0271 297.9957 -822.1781 -734.0080 30216.1749 -238.2830 -179.9597
ENERGY: 900000 0.9509 0.3383 1.3856 0.0000 -10613.4818 1418.2291 0.0000 0.0000 1775.7454 -7416.8326 306.2357 -9192.5779 -7455.4360 297.9349 -208.5547 -88.1421 29901.2946 -161.5840 -92.7409
ENERGY: 1200000 0.5210 0.3454 1.4469 0.0000 -10599.5134 1399.8752 0.0000 0.0000 1753.9831 -7443.3418 302.4827 -9197.3249 -7451.3491 297.2899 -252.5604 -159.8334 29789.4024 -169.0092 -100.2941
ENERGY: 1500000 0.4125 0.7143 0.8944 0.0000 -10514.7787 1372.4576 0.0000 0.0000 1697.8172 -7442.4827 292.7966 -9140.2999 -7456.1012 296.5596 -313.8844 -310.9101 30117.0229 -191.3208 -129.9793
TCL: Running FEP window  11: Lambda1 0.49999999999999994 Lambda2 0.5499999999999999 [dLambda 0.04999999999999999]
TCL: Setting parameter firsttimestep to 0
TCL: Setting parameter alchLambda to 0.49999999999999994
Info: NONBONDED TABLE R-SQUARED SPACING: 0.0625
Info: NONBONDED TABLE SIZE: 705 POINTS
TCL: Setting parameter alchLambda2 to 0.5499999999999999
Info: NONBONDED TABLE R-SQUARED SPACING: 0.0625
Info: NONBONDED TABLE SIZE: 705 POINTS
TCL: Running for 1500000 steps
ETITLE: TS BOND ANGLE DIHED IMPRP ELECT VDW BOUNDARY MISC KINETIC TOTAL TEMP POTENTIAL TOTALAVG TEMPAVG PRESSURE GPRESSURE VOLUME PRESSAVG GPRESSAVG
ENERGY: 0 0.4125 0.7143 0.8944 0.0000 -10514.7783 1372.1477 0.0000 0.0000 1696.9169 -7443.6925 292.6413 -9140.6094 -7443.6925 292.6413 -389.3724 -307.4993 30117.0229 -389.3724 -307.4993
ENERGY: 300000 0.2249 1.1601 2.0231 0.0000 -10548.0523 1424.8015 0.0000 0.0000 1776.3333 -7343.5093 306.3371 -9119.8427 -7441.7381 300.7958 140.5166 205.1063 30001.6218 54.2230 116.7621
ENERGY: 600000 2.4502 0.1452 0.8148 0.0000 -10551.4462 1404.2789 0.0000 0.0000 1735.0318 -7408.7253 299.2144 -9143.7571 -7439.5676 299.2080 -236.6734 -191.0088 29990.3466 -49.5853 5.1390
ENERGY: 900000 1.5114 2.2048 1.1957 0.0000 -10546.4325 1411.6078 0.0000 0.0000 1740.9706 -7388.9423 300.2386 -9129.9128 -7420.4706 300.3927 -177.7535 -58.7182 30259.1603 -67.6277 -7.6332
ENERGY: 1200000 1.3875 1.8900 0.7506 0.0000 -10472.5754 1381.8606 0.0000 0.0000 1757.8124 -7328.8742 303.1431 -9086.6867 -7409.7523 300.1025 -90.1751 22.1065 30033.2240 -133.7691 -73.7619
ENERGY: 1500000 1.5865 0.6847 0.4120 0.0000 -10493.3865 1394.0217 0.0000 0.0000 1754.2228 -7342.4589 302.5240 -9096.6816 -7419.4132 299.5562 113.8907 149.9790 29917.2517 -141.8569 -83.9873
TCL: Running FEP window  12: Lambda1 0.5499999999999999 Lambda2 0.6    [dLambda 0.050000000000000044]
TCL: Setting parameter firsttimestep to 0
TCL: Setting parameter alchLambda to 0.5499999999999999
Info: NONBONDED TABLE R-SQUARED SPACING: 0.0625
Info: NONBONDED TABLE SIZE: 705 POINTS
TCL: Setting parameter alchLambda2 to 0.6
Info: NONBONDED TABLE R-SQUARED SPACING: 0.0625
Info: NONBONDED TABLE SIZE: 705 POINTS
TCL: Running for 1500000 steps
ETITLE: TS BOND ANGLE DIHED IMPRP ELECT VDW BOUNDARY MISC KINETIC TOTAL TEMP POTENTIAL TOTALAVG TEMPAVG PRESSURE GPRESSURE VOLUME PRESSAVG GPRESSAVG
ENERGY: 0 1.5865 0.6847 0.4120 0.0000 -10493.8852 1393.7523 0.0000 0.0000 1753.3816 -7344.0681 302.3789 -9097.4497 -7344.0681 302.3789 62.2686 151.4734 29917.2517 62.2686 151.4734
ENERGY: 300000 0.9482 0.5027 0.5872 0.0000 -10572.8321 1381.7774 0.0000 0.0000 1749.4302 -7439.5865 301.6975 -9189.0167 -7436.0935 299.8731 -90.9672 -129.9637 29623.4114 62.8644 115.7824
ENERGY: 600000 0.2339 0.5303 0.7164 0.0000 -10633.5396 1432.0386 0.0000 0.0000 1729.0496 -7470.9707 298.1828 -9200.0203 -7443.6649 299.5845 18.9410 61.2235 30047.5019 241.0812 298.9994
ENERGY: 900000 1.4715 3.5580 2.2903 0.0000 -10593.3849 1385.9660 0.0000 0.0000 1710.3259 -7489.7732 294.9538 -9200.0991 -7441.5217 299.7634 -251.7463 -260.4125 29790.6175 104.4170 155.5899
ENERGY: 1200000 0.3035 2.7417 0.8207 0.0000 -10668.7442 1458.8304 0.0000 0.0000 1699.1393 -7506.9086 293.0246 -9206.0479 -7442.7572 299.0955 87.1500 155.3363 30180.5627 5.1102 62.2212
ENERGY: 1500000 1.8540 3.8803 1.1579 0.0000 -10646.1709 1446.7305 0.0000 0.0000 1675.8364 -7516.7117 289.0059 -9192.5482 -7443.4363 299.2705 -263.9136 -151.2736 30393.4415 49.3768 108.3633
TCL: Running FEP window  13: Lambda1 0.6    Lambda2 0.65   [dLambda 0.050000000000000044]
TCL: Setting parameter firsttimestep to 0
TCL: Setting parameter alchLambda to 0.6
Info: NONBONDED TABLE R-SQUARED SPACING: 0.0625
Info: NONBONDED TABLE SIZE: 705 POINTS
TCL: Setting parameter alchLambda2 to 0.65
Info: NONBONDED TABLE R-SQUARED SPACING: 0.0625
Info: NONBONDED TABLE SIZE: 705 POINTS
TCL: Running for 1500000 steps
ETITLE: TS BOND ANGLE DIHED IMPRP ELECT VDW BOUNDARY MISC KINETIC TOTAL TEMP POTENTIAL TOTALAVG TEMPAVG PRESSURE GPRESSURE VOLUME PRESSAVG GPRESSAVG
ENERGY: 0 1.8540 3.8803 1.1579 0.0000 -10646.2778 1446.5384 0.0000 0.0000 1674.9908 -7517.8565 288.8601 -9192.8473 -7517.8565 288.8601 -217.8602 -150.4043 30393.4415 -217.8602 -150.4043
ENERGY: 300000 1.4903 0.8360 0.6165 0.0000 -10693.4638 1461.6595 0.0000 0.0000 1722.4605 -7506.4009 297.0465 -9228.8615 -7468.5112 295.2240 112.2382 169.6486 29869.2338 -110.5198 -61.0505
ENERGY: 600000 1.4544 0.8940 1.3584 0.0000 -10599.6289 1439.4405 0.0000 0.0000 1772.8561 -7383.6254 305.7374 -9156.4815 -7443.5680 297.3404 431.9963 454.5051 29738.4657 30.7557 75.7254
ENERGY: 900000 1.7385 1.6535 1.4818 0.0000 -10504.6680 1388.4965 0.0000 0.0000 1721.4443 -7389.8534 296.8712 -9111.2977 -7446.3997 297.1201 -200.9189 -134.5640 30125.8237 -105.7662 -45.2536
ENERGY: 1200000 0.0853 0.7221 0.0413 0.0000 -10557.1550 1386.1895 0.0000 0.0000 1744.3354 -7425.7813 300.8189 -9170.1167 -7451.8741 297.6997 -121.6221 -52.5105 29721.3060 -151.3213 -86.6112
ENERGY: 1500000 0.2549 1.1470 0.5929 0.0000 -10626.5111 1413.7749 0.0000 0.0000 1760.0536 -7450.6877 303.5296 -9210.7412 -7450.4098 297.7695 -185.5960 -135.5124 29969.1092 -113.0991 -52.7207
TCL: Running FEP window  14: Lambda1 0.65   Lambda2 0.7000000000000001 [dLambda 0.050000000000000044]
TCL: Setting parameter firsttimestep to 0
TCL: Setting parameter alchLambda to 0.65
Info: NONBONDED TABLE R-SQUARED SPACING: 0.0625
Info: NONBONDED TABLE SIZE: 705 POINTS
TCL: Setting parameter alchLambda2 to 0.7000000000000001
Info: NONBONDED TABLE R-SQUARED SPACING: 0.0625
Info: NONBONDED TABLE SIZE: 705 POINTS
TCL: Running for 1500000 steps
ETITLE: TS BOND ANGLE DIHED IMPRP ELECT VDW BOUNDARY MISC KINETIC TOTAL TEMP POTENTIAL TOTALAVG TEMPAVG PRESSURE GPRESSURE VOLUME PRESSAVG GPRESSAVG
ENERGY: 0 0.2549 1.1470 0.5929 0.0000 -10626.3897 1413.5007 0.0000 0.0000 1759.1878 -7451.7063 303.3803 -9210.8941 -7451.7063 303.3803 -224.0504 -132.3721 29969.1092 -224.0504 -132.3721
ENERGY: 300000 1.2822 1.4787 2.6605 0.0000 -10783.2025 1566.9861 0.0000 0.0000 1785.2507 -7425.5442 307.8749 -9210.7949 -7395.6177 305.2476 1319.2749 1361.1529 29637.6143 253.0515 302.6055
ENERGY: 600000 0.3325 0.3915 0.1910 0.0000 -10569.2183 1397.3331 0.0000 0.0000 1771.5596 -7399.4106 305.5138 -9170.9702 -7400.5997 304.2681 -134.6774 -57.5178 30061.8538 65.5288 119.4192
ENERGY: 900000 1.3454 1.9193 0.4654 0.0000 -10634.8109 1409.0098 0.0000 0.0000 1727.2858 -7494.7852 297.8786 -9222.0710 -7405.7711 302.4688 -477.5090 -417.3712 29965.1412 30.0054 91.5288
ENERGY: 1200000 2.0759 0.6380 0.5663 0.0000 -10537.7326 1354.9049 0.0000 0.0000 1711.5858 -7467.9616 295.1711 -9179.5474 -7408.2929 301.3212 -525.1063 -411.5338 29743.8510 -47.5122 20.6530
ENERGY: 1500000 2.0929 0.5418 0.5976 0.0000 -10647.1914 1444.3936 0.0000 0.0000 1705.1629 -7494.4025 294.0634 -9199.5654 -7421.3999 300.7796 -164.1384 -125.5615 30313.5927 -69.2203 -6.2277
TCL: Running FEP window  15: Lambda1 0.7000000000000001 Lambda2 0.7500000000000001 [dLambda 0.050000000000000044]
TCL: Setting parameter firsttimestep to 0
TCL: Setting parameter alchLambda to 0.7000000000000001
Info: NONBONDED TABLE R-SQUARED SPACING: 0.0625
Info: NONBONDED TABLE SIZE: 705 POINTS
TCL: Setting parameter alchLambda2 to 0.7500000000000001
Info: NONBONDED TABLE R-SQUARED SPACING: 0.0625
Info: NONBONDED TABLE SIZE: 705 POINTS
TCL: Running for 1500000 steps
ETITLE: TS BOND ANGLE DIHED IMPRP ELECT VDW BOUNDARY MISC KINETIC TOTAL TEMP POTENTIAL TOTALAVG TEMPAVG PRESSURE GPRESSURE VOLUME PRESSAVG GPRESSAVG
ENERGY: 0 2.0929 0.5418 0.5976 0.0000 -10647.1200 1444.2507 0.0000 0.0000 1704.2939 -7495.3431 293.9135 -9199.6370 -7495.3431 293.9135 -197.6741 -122.3891 30313.5927 -197.6741 -122.3891
ENERGY: 300000 1.5336 1.2094 1.5639 0.0000 -10744.2784 1460.8403 0.0000 0.0000 1731.8640 -7547.2673 298.6681 -9279.1313 -7472.6465 297.3568 13.2163 85.2756 29849.8965 -652.9346 -579.5302
ENERGY: 600000 2.0321 0.4344 0.0622 0.0000 -10560.9098 1417.3520 0.0000 0.0000 1700.9180 -7440.1112 293.3313 -9141.0292 -7442.6251 298.0837 -198.2177 -205.3965 30180.5585 -502.4769 -444.8864
ENERGY: 900000 1.3568 2.0619 2.8150 0.0000 -10669.3002 1478.2860 0.0000 0.0000 1738.8554 -7445.9250 299.8738 -9184.7804 -7443.2616 298.8879 325.5706 341.3457 30122.9091 -245.8879 -192.4416
ENERGY: 1200000 1.1728 1.8633 0.0754 0.0000 -10581.6993 1406.0183 0.0000 0.0000 1722.2321 -7450.3374 297.0071 -9172.5695 -7428.2941 300.1329 -190.8523 -193.6325 30038.0217 -215.4014 -169.3415
ENERGY: 1500000 0.6528 1.9523 0.8743 0.0000 -10649.0229 1456.1866 0.0000 0.0000 1728.2515 -7461.1054 298.0451 -9189.3569 -7427.4793 300.1286 157.3866 160.9870 30219.2327 -240.7586 -198.6073
TCL: Running FEP window  16: Lambda1 0.7500000000000001 Lambda2 0.8000000000000002 [dLambda 0.050000000000000044]
TCL: Setting parameter firsttimestep to 0
TCL: Setting parameter alchLambda to 0.7500000000000001
Info: NONBONDED TABLE R-SQUARED SPACING: 0.0625
Info: NONBONDED TABLE SIZE: 705 POINTS
TCL: Setting parameter alchLambda2 to 0.8000000000000002
Info: NONBONDED TABLE R-SQUARED SPACING: 0.0625
Info: NONBONDED TABLE SIZE: 705 POINTS
TCL: Running for 1500000 steps
ETITLE: TS BOND ANGLE DIHED IMPRP ELECT VDW BOUNDARY MISC KINETIC TOTAL TEMP POTENTIAL TOTALAVG TEMPAVG PRESSURE GPRESSURE VOLUME PRESSAVG GPRESSAVG
ENERGY: 0 0.6528 1.9523 0.8743 0.0000 -10649.3167 1455.7174 0.0000 0.0000 1727.3747 -7462.7453 297.8939 -9190.1200 -7462.7453 297.8939 78.1692 160.7437 30219.2327 78.1692 160.7437
ENERGY: 300000 0.7042 0.9697 0.0610 0.0000 -10744.8379 1588.8945 0.0000 0.0000 1740.6364 -7413.5722 300.1810 -9154.2085 -7464.0950 295.0391 1511.4142 1515.2650 29797.1716 18.3813 51.1466
ENERGY: 600000 0.4084 2.8479 1.3197 0.0000 -10511.2008 1412.0627 0.0000 0.0000 1739.4027 -7355.1595 299.9682 -9094.5622 -7432.6887 297.4415 -30.9715 54.7775 30302.2390 -41.6637 0.1460
ENERGY: 900000 1.2068 0.5425 0.1297 0.0000 -10586.5621 1512.0138 0.0000 0.0000 1733.4101 -7339.2591 298.9348 -9072.6693 -7409.2005 299.4107 966.3907 974.9136 30039.7906 90.1408 127.1172
ENERGY: 1200000 0.1814 0.6348 0.3687 0.0000 -10630.0498 1367.6792 0.0000 0.0000 1720.2375 -7540.9482 296.6631 -9261.1857 -7424.4184 298.6832 -671.7848 -681.5196 29958.7930 58.6140 91.0563
ENERGY: 1500000 1.8677 1.3864 0.3348 0.0000 -10605.6121 1497.7563 0.0000 0.0000 1688.9406 -7415.3264 291.2658 -9104.2670 -7424.9139 298.1482 694.5530 783.6233 30113.2822 125.3543 165.8892
TCL: Running FEP window  17: Lambda1 0.8000000000000002 Lambda2 0.8500000000000002 [dLambda 0.050000000000000044]
TCL: Setting parameter firsttimestep to 0
TCL: Setting parameter alchLambda to 0.8000000000000002
Info: NONBONDED TABLE R-SQUARED SPACING: 0.0625
Info: NONBONDED TABLE SIZE: 705 POINTS
TCL: Setting parameter alchLambda2 to 0.8500000000000002
Info: NONBONDED TABLE R-SQUARED SPACING: 0.0625
Info: NONBONDED TABLE SIZE: 705 POINTS
TCL: Running for 1500000 steps
ETITLE: TS BOND ANGLE DIHED IMPRP ELECT VDW BOUNDARY MISC KINETIC TOTAL TEMP POTENTIAL TOTALAVG TEMPAVG PRESSURE GPRESSURE VOLUME PRESSAVG GPRESSAVG
ENERGY: 0 1.8677 1.3864 0.3348 0.0000 -10605.7010 1497.4741 0.0000 0.0000 1688.0601 -7416.5780 291.1139 -9104.6381 -7416.5780 291.1139 707.5376 784.9218 30113.2822 707.5376 784.9218
ENERGY: 300000 1.7257 2.7478 0.6772 0.0000 -10513.1132 1376.2945 0.0000 0.0000 1775.8376 -7355.8303 306.2516 -9131.6680 -7422.9013 300.2080 -97.3375 1.1651 29823.4294 177.5766 248.3605
ENERGY: 600000 0.2013 1.6197 1.3757 0.0000 -10578.3582 1364.0673 0.0000 0.0000 1735.6790 -7475.4151 299.3261 -9211.0942 -7441.6426 300.0434 -529.5426 -508.6352 29949.9231 59.6478 100.8750
ENERGY: 900000 0.2132 1.6165 0.5727 0.0000 -10623.2459 1467.2425 0.0000 0.0000 1718.9849 -7434.6162 296.4471 -9153.6010 -7430.0252 300.6720 231.6084 269.7073 30040.3178 86.7978 130.8051
ENERGY: 1200000 2.0186 0.6166 0.1224 0.0000 -10489.8523 1377.8121 0.0000 0.0000 1731.0638 -7378.2189 298.5301 -9109.2826 -7416.0439 301.0017 -409.1454 -321.5073 30107.6174 23.3505 80.8002
ENERGY: 1500000 1.2140 0.7926 0.6866 0.0000 -10624.0730 1456.0584 0.0000 0.0000 1686.7088 -7478.6126 290.8809 -9165.3214 -7419.1969 300.5095 123.1370 161.4135 30181.2589 75.4260 134.2767
TCL: Running FEP window  18: Lambda1 0.8500000000000002 Lambda2 0.9000000000000002 [dLambda 0.050000000000000044]
TCL: Setting parameter firsttimestep to 0
TCL: Setting parameter alchLambda to 0.8500000000000002
Info: NONBONDED TABLE R-SQUARED SPACING: 0.0625
Info: NONBONDED TABLE SIZE: 705 POINTS
TCL: Setting parameter alchLambda2 to 0.9000000000000002
Info: NONBONDED TABLE R-SQUARED SPACING: 0.0625
Info: NONBONDED TABLE SIZE: 705 POINTS
TCL: Running for 1500000 steps
ETITLE: TS BOND ANGLE DIHED IMPRP ELECT VDW BOUNDARY MISC KINETIC TOTAL TEMP POTENTIAL TOTALAVG TEMPAVG PRESSURE GPRESSURE VOLUME PRESSAVG GPRESSAVG
ENERGY: 0 1.2140 0.7926 0.6866 0.0000 -10624.3813 1455.8554 0.0000 0.0000 1685.8523 -7479.9804 290.7332 -9165.8327 -7479.9804 290.7332 83.4637 165.7570 30181.2589 83.4637 165.7570
ENERGY: 300000 0.9821 0.5624 0.6881 0.0000 -10622.8624 1447.6993 0.0000 0.0000 1716.2611 -7456.6694 295.9773 -9172.9305 -7439.8962 297.9649 -27.1341 12.7561 30311.1397 -118.3541 -42.6253
ENERGY: 600000 0.8781 1.2222 2.7560 0.0000 -10660.9173 1454.3954 0.0000 0.0000 1735.3331 -7466.3326 299.2664 -9201.6656 -7437.5503 299.3384 -204.6372 -138.3021 30536.1960 -101.1649 -29.5249
ENERGY: 900000 1.1532 1.5135 1.2627 0.0000 -10607.8681 1445.2373 0.0000 0.0000 1716.1548 -7442.5466 295.9590 -9158.7014 -7426.4128 299.2219 -59.7953 -24.4874 30501.9585 -95.5295 -21.9956
ENERGY: 1200000 0.5409 0.7506 0.5797 0.0000 -10626.8120 1436.1558 0.0000 0.0000 1769.1358 -7419.6492 305.0958 -9188.7850 -7423.3064 299.5187 162.5474 180.5344 29900.2369 -48.0411 20.5223
ENERGY: 1500000 0.9866 0.2184 0.4307 0.0000 -10509.9926 1377.7259 0.0000 0.0000 1733.9246 -7396.7064 299.0235 -9130.6310 -7422.1016 299.3465 -670.9932 -655.5648 30773.5202 -81.0293 -16.8118
TCL: Running FEP window  19: Lambda1 0.9000000000000002 Lambda2 0.9500000000000003 [dLambda 0.050000000000000044]
TCL: Setting parameter firsttimestep to 0
TCL: Setting parameter alchLambda to 0.9000000000000002
Info: NONBONDED TABLE R-SQUARED SPACING: 0.0625
Info: NONBONDED TABLE SIZE: 705 POINTS
TCL: Setting parameter alchLambda2 to 0.9500000000000003
Info: NONBONDED TABLE R-SQUARED SPACING: 0.0625
Info: NONBONDED TABLE SIZE: 705 POINTS
TCL: Running for 1500000 steps
ETITLE: TS BOND ANGLE DIHED IMPRP ELECT VDW BOUNDARY MISC KINETIC TOTAL TEMP POTENTIAL TOTALAVG TEMPAVG PRESSURE GPRESSURE VOLUME PRESSAVG GPRESSAVG
ENERGY: 0 0.9866 0.2184 0.4307 0.0000 -10510.4489 1377.5347 0.0000 0.0000 1733.1009 -7398.1777 298.8814 -9131.2786 -7398.1777 298.8814 -729.2812 -650.9851 30773.5202 -729.2812 -650.9851
ENERGY: 300000 0.7570 0.6461 0.2081 0.0000 -10619.4570 1444.7291 0.0000 0.0000 1767.1829 -7405.9339 304.7590 -9173.1168 -7412.2416 298.5587 170.6816 257.4763 30063.6200 128.4865 195.5207
ENERGY: 600000 0.4178 1.8322 3.6262 0.0000 -10434.6242 1276.6944 0.0000 0.0000 1784.1748 -7367.8788 307.6894 -9152.0536 -7407.3455 300.3526 -1041.8339 -993.1323 30265.9784 -154.1590 -95.7166
ENERGY: 900000 0.7752 0.3650 0.7259 0.0000 -10459.9489 1350.7373 0.0000 0.0000 1748.1372 -7359.2083 301.4745 -9107.3455 -7394.7435 300.6554 -487.0229 -383.7887 30116.2805 -133.4430 -72.8877
ENERGY: 1200000 2.0996 0.5586 0.3267 0.0000 -10786.8661 1544.8459 0.0000 0.0000 1720.8089 -7518.2264 296.7616 -9239.0352 -7411.8622 300.2840 1131.7151 1213.1447 29427.1751 8.4851 72.0427
ENERGY: 1500000 0.2363 0.8480 0.9168 0.0000 -10545.3897 1381.7684 0.0000 0.0000 1706.5556 -7455.0646 294.3036 -9161.6202 -7415.5229 299.5292 -246.0074 -159.5918 29919.4812 -23.2922 41.2827
TCL: Running FEP window  20: Lambda1 0.9500000000000003 Lambda2 1.0    [dLambda 0.04999999999999971]
TCL: Setting parameter firsttimestep to 0
TCL: Setting parameter alchLambda to 0.9500000000000003
Info: NONBONDED TABLE R-SQUARED SPACING: 0.0625
Info: NONBONDED TABLE SIZE: 705 POINTS
TCL: Setting parameter alchLambda2 to 1.0
Info: NONBONDED TABLE R-SQUARED SPACING: 0.0625
Info: NONBONDED TABLE SIZE: 705 POINTS
TCL: Running for 1500000 steps
ETITLE: TS BOND ANGLE DIHED IMPRP ELECT VDW BOUNDARY MISC KINETIC TOTAL TEMP POTENTIAL TOTALAVG TEMPAVG PRESSURE GPRESSURE VOLUME PRESSAVG GPRESSAVG
ENERGY: 0 0.2363 0.8480 0.9168 0.0000 -10545.8824 1381.8524 0.0000 0.0000 1705.6846 -7456.3443 294.1534 -9162.0289 -7456.3443 294.1534 -245.1060 -151.0015 29919.4812 -245.1060 -151.0015
ENERGY: 300000 1.4614 1.5481 0.5847 0.0000 -10651.5445 1451.4448 0.0000 0.0000 1799.9299 -7396.5756 310.4064 -9196.5055 -7444.4043 299.4619 242.9245 334.6344 30093.0765 3.2330 91.4307
ENERGY: 600000 0.2312 0.3272 0.1498 0.0000 -10575.6148 1441.6709 0.0000 0.0000 1735.9574 -7397.2782 299.3741 -9133.2357 -7430.6010 301.3339 252.0801 267.6144 30088.4669 71.7479 142.1945
ENERGY: 900000 1.2735 2.7697 1.1827 0.0000 -10410.9035 1262.0100 0.0000 0.0000 1716.9971 -7426.6704 296.1043 -9143.6676 -7421.2742 300.4300 -1495.7952 -1376.8429 30694.8062 -30.0490 46.2574
ENERGY: 1200000 0.4320 0.7680 0.2394 0.0000 -10666.5399 1430.5685 0.0000 0.0000 1781.9702 -7452.5616 307.3092 -9234.5319 -7426.5610 300.8753 -209.4428 -151.9047 30283.4229 -49.3913 23.6452
ENERGY: 1500000 0.6123 1.3812 1.6683 0.0000 -10672.6514 1421.8222 0.0000 0.0000 1752.9332 -7494.2342 302.3016 -9247.1674 -7428.2940 300.9306 -229.0251 -135.8660 29879.4680 -28.0314 38.9106
TCL: Exiting due to exit command.
