Info: SIMULATION PARAMETERS:
Info: TIMESTEP               2
Info: NUMBER OF STEPS        0
Info: STEPS PER CYCLE        10
Info: PERIODIC CELL BASIS 1  34.986 0 0
Info: PERIODIC CELL BASIS 2  0 33.542 0
Info: PERIODIC CELL BASIS 3  0 0 37.451
Info: PERIODIC CELL CENTER   0 0 0
Info: WRAPPING WATERS AROUND PERIODIC BOUNDARIES ON OUTPUT.
Info: WRAPPING ALL CLUSTERS AROUND PERIODIC BOUNDARIES ON OUTPUT.
Info: FIRST LDB TIMESTEP     50
Info: LAST LDB TIMESTEP     -1
Info: HOM BACKGROUND SCALING 1
Info: PME BACKGROUND SCALING 1
Info: MIN ATOMS PER PATCH    40
Info: EMPTY PATCH LOAD       40 ATOMS
Info: INITIAL TEMPERATURE    300
Info: CENTER OF MASS MOVING INITIALLY? NO
Info: DIELECTRIC             1
Info: EXCLUDE                SCALED ONE-FOUR
Info: 1-4 ELECTROSTATICS SCALED BY 0.833333
Info: MODIFIED 1-4 VDW PARAMETERS WILL BE USED
Info: DCD FILENAME           mobley_3359593_equil.dcd
Info: DCD FREQUENCY          100000
Info: DCD FIRST STEP         100000
Info: DCD FILE WILL CONTAIN UNIT CELL DATA
Info: XST FILENAME           mobley_3359593_equil.xst
Info: XST FREQUENCY          100000
Info: NO VELOCITY DCD OUTPUT
Info: NO FORCE DCD OUTPUT
Info: OUTPUT FILENAME        mobley_3359593_equil
Info: BINARY OUTPUT FILES WILL BE USED
Info: RESTART FILENAME       mobley_3359593_equil.restart
Info: RESTART FREQUENCY      100000
Info: BINARY RESTART FILES WILL BE USED
Info: CUTOFF                 9
Info: PAIRLIST DISTANCE      11
Info: PAIRLIST SHRINK RATE   0.01
Info: PAIRLIST GROW RATE     0.01
Info: PAIRLIST TRIGGER       0.3
Info: PAIRLISTS PER CYCLE    2
Info: PAIRLISTS ENABLED
Info: MARGIN                 8
Info: HYDROGEN GROUP CUTOFF  2.5
Info: PATCH DIMENSION        21.5
Info: ENERGY OUTPUT STEPS    100000
Info: ENERGY EVALUATION STEPS    100000
Info: OUTPUT ENERGY PRECISION 4
Info: CROSSTERM ENERGY INCLUDED IN DIHEDRAL
Info: TIMING OUTPUT STEPS    1000000
Info: PRESSURE OUTPUT STEPS  100000
Info: LANGEVIN DYNAMICS ACTIVE
Info: LANGEVIN TEMPERATURE   30
Info: LANGEVIN USING BBK INTEGRATOR
Info: LANGEVIN DAMPING COEFFICIENT IS 1 INVERSE PS
Info: LANGEVIN DYNAMICS APPLIED TO HYDROGENS
Info: LANGEVIN PISTON PRESSURE CONTROL ACTIVE
Info:        TARGET PRESSURE IS 1.01325 BAR
Info:     OSCILLATION PERIOD IS 50 FS
Info:             DECAY TIME IS 25 FS
Info:     PISTON TEMPERATURE IS 300 K
Info:       PRESSURE CONTROL IS GROUP-BASED
Info:    INITIAL STRAIN RATE IS 0 0 0
Info:       CELL FLUCTUATION IS ISOTROPIC
Info: PARTICLE MESH EWALD (PME) ACTIVE
Info: PME TOLERANCE               1e-06
Info: PME EWALD COEFFICIENT       0.348832
Info: PME INTERPOLATION ORDER     4
Info: PME GRID DIMENSIONS         36 36 40
Info: PME MAXIMUM GRID SPACING    1
Info: FULL ELECTROSTATIC EVALUATION FREQUENCY      2
Info: USING VERLET I (r-RESPA) MTS SCHEME.
Info: C1 SPLITTING OF LONG RANGE ELECTROSTATICS
Info: PLACING ATOMS IN PATCHES BY HYDROGEN GROUPS
Info: RIGID BONDS TO HYDROGEN : ALL
Info:         ERROR TOLERANCE : 1e-08
Info:          MAX ITERATIONS : 100
Info: RIGID WATER USING SETTLE ALGORITHM
Info: RANDOM NUMBER SEED     1743253319
Info: USE HYDROGEN BONDS?    NO
Info: Using AMBER format force field!
Info: AMBER PARM FILE        mobley_3359593.prmtop
Info: COORDINATE PDB         mobley_3359593.pdb
Info: Exclusions will be read from PARM file!
Info: SCNB (VDW SCALING)     2
Info: USING ARITHMETIC MEAN TO COMBINE L-J SIGMA PARAMETERS
Info: BINARY COORDINATES     mobley_3359593_min.coor
Info: SUMMARY OF PARAMETERS:
Info: 12 BONDS
Info: 14 ANGLES
Info:   14 HARMONIC
Info:   0 COSINE-BASED
Info: 8 DIHEDRAL
Info: 0 IMPROPER
Info: 0 CROSSTERM
Info: 0 VDW
Info: 45 VDW_PAIRS
Info: 0 NBTHOLE_PAIRS
Info: STRUCTURE SUMMARY:
Info: 2987 ATOMS
Info: 2987 BONDS
Info: 44 ANGLES
Info: 61 DIHEDRALS
Info: 0 IMPROPERS
Info: 0 CROSSTERMS
Info: 3083 EXCLUSIONS
Info: 2975 RIGID BONDS
Info: 5986 DEGREES OF FREEDOM
Info: 999 HYDROGEN GROUPS
Info: 4 ATOMS IN LARGEST HYDROGEN GROUP
Info: 999 MIGRATION GROUPS
Info: 4 ATOMS IN LARGEST MIGRATION GROUP
Info: TOTAL MASS = 17948 amu
Info: TOTAL CHARGE = 0.000199992 e
Info: MASS DENSITY = 0.678155 g/cm^3
Info: ATOM DENSITY = 0.0679655 atoms/A^3
Info: ADDED 0 IMPLICIT EXCLUSIONS
Info: NONBONDED TABLE R-SQUARED SPACING: 0.0625
Info: NONBONDED TABLE SIZE: 705 POINTS
Info: REMOVING COM VELOCITY 0.115977 0.036233 0.0303868
TCL: Running for 100000 steps
ETITLE: TS BOND ANGLE DIHED IMPRP ELECT VDW BOUNDARY MISC KINETIC TOTAL TEMP POTENTIAL TOTAL3 TEMPAVG PRESSURE GPRESSURE VOLUME PRESSAVG GPRESSAVG
ENERGY: 0 0.2958 1.0733 0.2553 0.0000 -13725.3528 2410.3610 0.0000 0.0000 1744.9419 -9568.4256 293.3828 -11313.3675 -9568.1138 293.3828 377.7675 408.2563 43948.7639 377.7675 408.2563
ENERGY: 100000 0.8647 1.5006 1.5468 0.0000 -14341.9662 2495.9644 0.0000 0.0000 179.8901 -11662.1995 30.2455 -11842.0896 -11661.7980 30.9380 39.5907 97.4031 29082.1092 5.4085 5.3953
TCL: Running 100000 steps at 60 kelvin.
TCL: Setting parameter langevinTemp to 60
TCL: Running for 100000 steps
ETITLE: TS BOND ANGLE DIHED IMPRP ELECT VDW BOUNDARY MISC KINETIC TOTAL TEMP POTENTIAL TOTAL3 TEMPAVG PRESSURE GPRESSURE VOLUME PRESSAVG GPRESSAVG
ENERGY: 100000 0.8647 1.5006 1.5468 0.0000 -14341.9662 2495.9644 0.0000 0.0000 179.8023 -11662.2873 30.2307 -11842.0896 -11661.8994 30.2307 39.3648 97.3661 29082.1092 39.3648 97.3661
ENERGY: 200000 0.6147 2.0113 1.7256 0.0000 -14162.3580 2408.2021 0.0000 0.0000 348.1530 -11401.6513 58.5361 -11749.8043 -11400.9370 60.0156 -313.3051 -228.2723 29041.3670 2.9416 2.9756
TCL: Running 100000 steps at 90 kelvin.
TCL: Setting parameter langevinTemp to 90
TCL: Running for 100000 steps
ETITLE: TS BOND ANGLE DIHED IMPRP ELECT VDW BOUNDARY MISC KINETIC TOTAL TEMP POTENTIAL TOTAL3 TEMPAVG PRESSURE GPRESSURE VOLUME PRESSAVG GPRESSAVG
ENERGY: 200000 0.6147 2.0113 1.7256 0.0000 -14162.3580 2408.2021 0.0000 0.0000 347.9757 -11401.8286 58.5063 -11749.8043 -11401.1240 58.5063 -284.3899 -228.3926 29041.3670 -284.3899 -228.3926
ENERGY: 300000 1.7404 3.5855 2.1425 0.0000 -13941.1309 2260.7155 0.0000 0.0000 539.1549 -11133.7922 90.6499 -11672.9471 -11132.0771 89.9864 -1210.4426 -1176.3787 29230.1854 3.2913 3.3242
TCL: Running 100000 steps at 120 kelvin.
TCL: Setting parameter langevinTemp to 120
TCL: Running for 100000 steps
ETITLE: TS BOND ANGLE DIHED IMPRP ELECT VDW BOUNDARY MISC KINETIC TOTAL TEMP POTENTIAL TOTAL3 TEMPAVG PRESSURE GPRESSURE VOLUME PRESSAVG GPRESSAVG
ENERGY: 300000 1.7404 3.5855 2.1425 0.0000 -13941.1309 2260.7155 0.0000 0.0000 538.8998 -11134.0473 90.6070 -11672.9471 -11133.0339 90.6070 -1237.6907 -1176.0068 29230.1854 -1237.6907 -1176.0068
ENERGY: 400000 1.0791 4.8020 3.2681 0.0000 -13941.8140 2409.2972 0.0000 0.0000 738.0951 -10785.2725 124.0984 -11523.3677 -10784.0011 120.0346 815.1972 856.4221 28948.5622 3.0147 2.9420
TCL: Running 100000 steps at 150 kelvin.
TCL: Setting parameter langevinTemp to 150
TCL: Running for 100000 steps
ETITLE: TS BOND ANGLE DIHED IMPRP ELECT VDW BOUNDARY MISC KINETIC TOTAL TEMP POTENTIAL TOTAL3 TEMPAVG PRESSURE GPRESSURE VOLUME PRESSAVG GPRESSAVG
ENERGY: 400000 1.0791 4.8020 3.2681 0.0000 -13941.8140 2409.2972 0.0000 0.0000 737.7461 -10785.6216 124.0397 -11523.3677 -10783.9735 124.0397 805.0981 855.2945 28948.5622 805.0981 855.2945
ENERGY: 500000 1.0855 4.7916 1.2803 0.0000 -13642.3559 2287.1071 0.0000 0.0000 886.7353 -10461.3561 149.0897 -11348.0914 -10459.2489 149.9435 241.8586 334.3467 29190.5127 4.2847 4.3282
TCL: Running 100000 steps at 180 kelvin.
TCL: Setting parameter langevinTemp to 180
TCL: Running for 100000 steps
ETITLE: TS BOND ANGLE DIHED IMPRP ELECT VDW BOUNDARY MISC KINETIC TOTAL TEMP POTENTIAL TOTAL3 TEMPAVG PRESSURE GPRESSURE VOLUME PRESSAVG GPRESSAVG
ENERGY: 500000 1.0855 4.7916 1.2803 0.0000 -13642.3559 2287.1071 0.0000 0.0000 886.2975 -10461.7939 149.0161 -11348.0914 -10459.9371 149.0161 277.1440 333.9423 29190.5127 277.1440 333.9423
ENERGY: 600000 3.3436 5.6798 1.6475 0.0000 -13292.3315 2158.7945 0.0000 0.0000 1077.0760 -10045.7901 181.0923 -11122.8660 -10043.4445 180.1859 80.8363 152.9698 29132.6479 2.9073 2.7917
TCL: Running 100000 steps at 210 kelvin.
TCL: Setting parameter langevinTemp to 210
TCL: Running for 100000 steps
ETITLE: TS BOND ANGLE DIHED IMPRP ELECT VDW BOUNDARY MISC KINETIC TOTAL TEMP POTENTIAL TOTAL3 TEMPAVG PRESSURE GPRESSURE VOLUME PRESSAVG GPRESSAVG
ENERGY: 600000 3.3436 5.6798 1.6475 0.0000 -13292.3315 2158.7945 0.0000 0.0000 1076.5308 -10046.3352 181.0007 -11122.8660 -10043.6627 181.0007 93.0088 152.5166 29132.6479 93.0088 152.5166
ENERGY: 700000 5.3272 10.6413 4.5562 0.0000 -12489.4450 1827.6736 0.0000 0.0000 1272.1521 -9369.0946 213.8911 -10641.2468 -9364.9065 209.7121 -1063.9178 -1013.5724 29507.3362 3.2923 3.2877
TCL: Running 100000 steps at 240 kelvin.
TCL: Setting parameter langevinTemp to 240
TCL: Running for 100000 steps
ETITLE: TS BOND ANGLE DIHED IMPRP ELECT VDW BOUNDARY MISC KINETIC TOTAL TEMP POTENTIAL TOTAL3 TEMPAVG PRESSURE GPRESSURE VOLUME PRESSAVG GPRESSAVG
ENERGY: 700000 5.3272 10.6413 4.5562 0.0000 -12489.4450 1827.6736 0.0000 0.0000 1271.5528 -9369.6940 213.7903 -10641.2468 -9367.6488 213.7903 -1087.9128 -1012.8925 29507.3362 -1087.9128 -1012.8925
ENERGY: 800000 4.7036 7.2288 4.2031 0.0000 -11926.9367 1784.1898 0.0000 0.0000 1407.7927 -8718.8187 236.6968 -10126.6114 -8715.9088 240.1404 351.4736 478.7608 29335.0305 4.1938 4.1031
TCL: Running 100000 steps at 270 kelvin.
TCL: Setting parameter langevinTemp to 270
TCL: Running for 100000 steps
ETITLE: TS BOND ANGLE DIHED IMPRP ELECT VDW BOUNDARY MISC KINETIC TOTAL TEMP POTENTIAL TOTAL3 TEMPAVG PRESSURE GPRESSURE VOLUME PRESSAVG GPRESSAVG
ENERGY: 800000 4.7036 7.2288 4.2031 0.0000 -11926.9367 1784.1898 0.0000 0.0000 1407.0827 -8719.5287 236.5774 -10126.6114 -8718.6385 236.5774 397.8253 479.5751 29335.0305 397.8253 479.5751
ENERGY: 900000 2.3497 10.8160 3.3095 0.0000 -11421.2921 1615.5915 0.0000 0.0000 1622.3942 -8166.8313 272.7784 -9789.2255 -8163.7595 270.3647 387.0449 522.6413 29276.5504 2.3513 2.5012
TCL: Running 1000000 steps at 300 kelvin.
TCL: Setting parameter langevinTemp to 300
TCL: Running for 1000000 steps
ETITLE: TS BOND ANGLE DIHED IMPRP ELECT VDW BOUNDARY MISC KINETIC TOTAL TEMP POTENTIAL TOTAL3 TEMPAVG PRESSURE GPRESSURE VOLUME PRESSAVG GPRESSAVG
ENERGY: 900000 2.3497 10.8160 3.3095 0.0000 -11421.2921 1615.5915 0.0000 0.0000 1621.6076 -8167.6179 272.6462 -9789.2255 -8165.0069 272.6462 423.0797 523.0428 29276.5504 423.0797 523.0428
ENERGY: 1100000 4.4595 9.4895 7.1498 0.0000 -10677.5824 1419.6092 0.0000 0.0000 1778.6716 -7458.2028 299.0539 -9236.8744 -7455.6321 300.5660 189.3360 209.1515 30864.9399 2.8374 3.0094
ENERGY: 1300000 5.0522 12.3950 4.9167 0.0000 -10912.1057 1500.1095 0.0000 0.0000 1780.5953 -7609.0371 299.3773 -9389.6324 -7605.3409 300.2555 127.7715 207.5145 30354.6471 3.7525 3.8692
ENERGY: 1500000 0.9209 7.8925 4.9844 0.0000 -10663.9220 1425.0142 0.0000 0.0000 1792.7182 -7432.3919 301.4156 -9225.1100 -7426.8335 300.2270 324.8654 425.1109 30523.1084 4.1174 3.9331
ENERGY: 1700000 4.2728 8.2644 4.3308 0.0000 -10878.4865 1482.0738 0.0000 0.0000 1762.2908 -7617.2539 296.2997 -9379.5447 -7615.3288 299.9017 347.2601 428.2461 30336.2637 3.6373 3.6590
ENERGY: 1900000 2.2364 8.8244 4.7352 0.0000 -10886.4224 1548.7508 0.0000 0.0000 1803.0581 -7518.8174 303.1541 -9321.8755 -7513.3782 300.2779 792.1586 898.6167 30555.2391 3.2864 3.3483
TCL: Exiting due to exit command.
