Info: SIMULATION PARAMETERS:
Info: TIMESTEP               2
Info: NUMBER OF STEPS        0
Info: STEPS PER CYCLE        10
Info: PERIODIC CELL BASIS 1  34.207 0 0
Info: PERIODIC CELL BASIS 2  0 36.762 0
Info: PERIODIC CELL BASIS 3  0 0 35.644
Info: PERIODIC CELL CENTER   0 0 0
Info: WRAPPING WATERS AROUND PERIODIC BOUNDARIES ON OUTPUT.
Info: WRAPPING ALL CLUSTERS AROUND PERIODIC BOUNDARIES ON OUTPUT.
Info: FIRST LDB TIMESTEP     50
Info: LAST LDB TIMESTEP     -1
Info: HOM BACKGROUND SCALING 1
Info: PME BACKGROUND SCALING 1
Info: MIN ATOMS PER PATCH    40
Info: EMPTY PATCH LOAD       40 ATOMS
Info: INITIAL TEMPERATURE    300
Info: CENTER OF MASS MOVING INITIALLY? NO
Info: DIELECTRIC             1
Info: EXCLUDE                SCALED ONE-FOUR
Info: 1-4 ELECTROSTATICS SCALED BY 0.833333
Info: MODIFIED 1-4 VDW PARAMETERS WILL BE USED
Info: DCD FILENAME           mobley_1615431_equil.dcd
Info: DCD FREQUENCY          100000
Info: DCD FIRST STEP         100000
Info: DCD FILE WILL CONTAIN UNIT CELL DATA
Info: XST FILENAME           mobley_1615431_equil.xst
Info: XST FREQUENCY          100000
Info: NO VELOCITY DCD OUTPUT
Info: NO FORCE DCD OUTPUT
Info: OUTPUT FILENAME        mobley_1615431_equil
Info: BINARY OUTPUT FILES WILL BE USED
Info: RESTART FILENAME       mobley_1615431_equil.restart
Info: RESTART FREQUENCY      100000
Info: BINARY RESTART FILES WILL BE USED
Info: CUTOFF                 9
Info: PAIRLIST DISTANCE      11
Info: PAIRLIST SHRINK RATE   0.01
Info: PAIRLIST GROW RATE     0.01
Info: PAIRLIST TRIGGER       0.3
Info: PAIRLISTS PER CYCLE    2
Info: PAIRLISTS ENABLED
Info: MARGIN                 8
Info: HYDROGEN GROUP CUTOFF  2.5
Info: PATCH DIMENSION        21.5
Info: ENERGY OUTPUT STEPS    100000
Info: ENERGY EVALUATION STEPS    100000
Info: OUTPUT ENERGY PRECISION 4
Info: CROSSTERM ENERGY INCLUDED IN DIHEDRAL
Info: TIMING OUTPUT STEPS    1000000
Info: PRESSURE OUTPUT STEPS  100000
Info: LANGEVIN DYNAMICS ACTIVE
Info: LANGEVIN TEMPERATURE   30
Info: LANGEVIN USING BBK INTEGRATOR
Info: LANGEVIN DAMPING COEFFICIENT IS 1 INVERSE PS
Info: LANGEVIN DYNAMICS APPLIED TO HYDROGENS
Info: LANGEVIN PISTON PRESSURE CONTROL ACTIVE
Info:        TARGET PRESSURE IS 1.01325 BAR
Info:     OSCILLATION PERIOD IS 50 FS
Info:             DECAY TIME IS 25 FS
Info:     PISTON TEMPERATURE IS 300 K
Info:       PRESSURE CONTROL IS GROUP-BASED
Info:    INITIAL STRAIN RATE IS 0 0 0
Info:       CELL FLUCTUATION IS ISOTROPIC
Info: PARTICLE MESH EWALD (PME) ACTIVE
Info: PME TOLERANCE               1e-06
Info: PME EWALD COEFFICIENT       0.348832
Info: PME INTERPOLATION ORDER     4
Info: PME GRID DIMENSIONS         36 40 36
Info: PME MAXIMUM GRID SPACING    1
Info: FULL ELECTROSTATIC EVALUATION FREQUENCY      2
Info: USING VERLET I (r-RESPA) MTS SCHEME.
Info: C1 SPLITTING OF LONG RANGE ELECTROSTATICS
Info: PLACING ATOMS IN PATCHES BY HYDROGEN GROUPS
Info: RIGID BONDS TO HYDROGEN : ALL
Info:         ERROR TOLERANCE : 1e-08
Info:          MAX ITERATIONS : 100
Info: RIGID WATER USING SETTLE ALGORITHM
Info: RANDOM NUMBER SEED     1743242995
Info: USE HYDROGEN BONDS?    NO
Info: Using AMBER format force field!
Info: AMBER PARM FILE        mobley_1615431.prmtop
Info: COORDINATE PDB         mobley_1615431.pdb
Info: Exclusions will be read from PARM file!
Info: SCNB (VDW SCALING)     2
Info: USING ARITHMETIC MEAN TO COMBINE L-J SIGMA PARAMETERS
Info: BINARY COORDINATES     mobley_1615431_min.coor
Info: SUMMARY OF PARAMETERS:
Info: 6 BONDS
Info: 7 ANGLES
Info: 7 DIHEDRAL
Info: 0 IMPROPER
Info: 0 CROSSTERM
Info: 0 VDW
Info: 21 VDW_PAIRS
Info: 0 NBTHOLE_PAIRS
Info: STRUCTURE SUMMARY:
Info: 2991 ATOMS
Info: 2990 BONDS
Info: 37 ANGLES
Info: 58 DIHEDRALS
Info: 0 IMPROPERS
Info: 0 CROSSTERMS
Info: 3069 EXCLUSIONS
Info: 2984 RIGID BONDS
Info: 5989 DEGREES OF FREEDOM
Info: 997 HYDROGEN GROUPS
Info: 4 ATOMS IN LARGEST HYDROGEN GROUP
Info: 997 MIGRATION GROUPS
Info: 4 ATOMS IN LARGEST MIGRATION GROUP
Info: TOTAL MASS = 17938 amu
Info: TOTAL CHARGE = 9.99942e-05 e
Info: MASS DENSITY = 0.664558 g/cm^3
Info: ATOM DENSITY = 0.0667292 atoms/A^3
Info: ADDED 0 IMPLICIT EXCLUSIONS
Info: NONBONDED TABLE R-SQUARED SPACING: 0.0625
Info: NONBONDED TABLE SIZE: 705 POINTS
Info: REMOVING COM VELOCITY -0.0969818 0.0721704 0.0730513
TCL: Running for 100000 steps
ETITLE: TS BOND ANGLE DIHED IMPRP ELECT VDW BOUNDARY MISC KINETIC TOTAL TEMP POTENTIAL TOTAL3 TEMPAVG PRESSURE GPRESSURE VOLUME PRESSAVG GPRESSAVG
ENERGY: 0 0.1726 0.8707 4.4015 0.0000 -13822.2683 2442.2198 0.0000 0.0000 1802.2353 -9572.3683 302.8639 -11374.6037 -9572.0079 302.8639 451.7917 488.6318 44822.9621 451.7917 488.6318
ENERGY: 100000 0.0406 1.5123 5.2556 0.0000 -14333.2354 2515.6257 0.0000 0.0000 176.0535 -11634.7478 29.5856 -11810.8013 -11634.2028 30.8569 53.4046 131.6863 30210.4945 4.6344 4.5837
TCL: Running 100000 steps at 60 kelvin.
TCL: Setting parameter langevinTemp to 60
TCL: Running for 100000 steps
ETITLE: TS BOND ANGLE DIHED IMPRP ELECT VDW BOUNDARY MISC KINETIC TOTAL TEMP POTENTIAL TOTAL3 TEMPAVG PRESSURE GPRESSURE VOLUME PRESSAVG GPRESSAVG
ENERGY: 100000 0.0406 1.5123 5.2556 0.0000 -14333.2354 2515.6257 0.0000 0.0000 175.9660 -11634.8353 29.5709 -11810.8013 -11634.4390 29.5709 66.1657 131.7711 30210.4945 66.1657 131.7711
ENERGY: 200000 0.3009 3.5355 4.1909 0.0000 -14272.7678 2511.4121 0.0000 0.0000 361.1704 -11392.1580 60.6943 -11753.3284 -11390.8172 60.0107 224.0684 291.6052 29984.6118 2.7511 2.8115
TCL: Running 100000 steps at 90 kelvin.
TCL: Setting parameter langevinTemp to 90
TCL: Running for 100000 steps
ETITLE: TS BOND ANGLE DIHED IMPRP ELECT VDW BOUNDARY MISC KINETIC TOTAL TEMP POTENTIAL TOTAL3 TEMPAVG PRESSURE GPRESSURE VOLUME PRESSAVG GPRESSAVG
ENERGY: 200000 0.3009 3.5355 4.1909 0.0000 -14272.7678 2511.4121 0.0000 0.0000 360.9968 -11392.3316 60.6652 -11753.3284 -11391.4731 60.6652 229.9642 291.9541 29984.6118 229.9642 291.9541
ENERGY: 300000 0.5149 4.0463 4.4816 0.0000 -14063.5654 2381.6791 0.0000 0.0000 526.9912 -11145.8523 88.5604 -11672.8435 -11144.2157 90.0337 -515.7401 -429.5498 29958.0161 2.0601 2.1598
TCL: Running 100000 steps at 120 kelvin.
TCL: Setting parameter langevinTemp to 120
TCL: Running for 100000 steps
ETITLE: TS BOND ANGLE DIHED IMPRP ELECT VDW BOUNDARY MISC KINETIC TOTAL TEMP POTENTIAL TOTAL3 TEMPAVG PRESSURE GPRESSURE VOLUME PRESSAVG GPRESSAVG
ENERGY: 300000 0.5149 4.0463 4.4816 0.0000 -14063.5654 2381.6791 0.0000 0.0000 526.7147 -11146.1288 88.5139 -11672.8435 -11145.2151 88.5139 -491.1977 -429.0174 29958.0161 -491.1977 -429.0174
ENERGY: 400000 0.5857 4.4515 4.4439 0.0000 -13976.3514 2377.0465 0.0000 0.0000 714.6857 -10875.1381 120.1022 -11589.8237 -10872.2418 119.9317 -77.4041 15.2453 29543.8383 4.6319 4.6479
TCL: Running 100000 steps at 150 kelvin.
TCL: Setting parameter langevinTemp to 150
TCL: Running for 100000 steps
ETITLE: TS BOND ANGLE DIHED IMPRP ELECT VDW BOUNDARY MISC KINETIC TOTAL TEMP POTENTIAL TOTAL3 TEMPAVG PRESSURE GPRESSURE VOLUME PRESSAVG GPRESSAVG
ENERGY: 400000 0.5857 4.4515 4.4439 0.0000 -13976.3514 2377.0465 0.0000 0.0000 714.3283 -10875.4954 120.0422 -11589.8237 -10873.9156 120.0422 -38.0078 15.5778 29543.8383 -38.0078 15.5778
ENERGY: 500000 0.5522 7.3800 4.4041 0.0000 -13659.1507 2220.9085 0.0000 0.0000 910.4041 -10515.5018 152.9925 -11425.9059 -10512.2494 149.9596 -802.6824 -749.7335 29808.3529 3.7110 3.8263
TCL: Running 100000 steps at 180 kelvin.
TCL: Setting parameter langevinTemp to 180
TCL: Running for 100000 steps
ETITLE: TS BOND ANGLE DIHED IMPRP ELECT VDW BOUNDARY MISC KINETIC TOTAL TEMP POTENTIAL TOTAL3 TEMPAVG PRESSURE GPRESSURE VOLUME PRESSAVG GPRESSAVG
ENERGY: 500000 0.5522 7.3800 4.4041 0.0000 -13659.1507 2220.9085 0.0000 0.0000 909.9573 -10515.9485 152.9175 -11425.9059 -10514.1517 152.9175 -799.3245 -748.1751 29808.3529 -799.3245 -748.1751
ENERGY: 600000 2.2135 4.8367 5.1835 0.0000 -13242.9470 2129.7794 0.0000 0.0000 1067.2209 -10033.7130 179.3455 -11100.9339 -10031.9651 180.2207 -62.3516 -42.6079 29335.5583 3.8833 3.9318
TCL: Running 100000 steps at 210 kelvin.
TCL: Setting parameter langevinTemp to 210
TCL: Running for 100000 steps
ETITLE: TS BOND ANGLE DIHED IMPRP ELECT VDW BOUNDARY MISC KINETIC TOTAL TEMP POTENTIAL TOTAL3 TEMPAVG PRESSURE GPRESSURE VOLUME PRESSAVG GPRESSAVG
ENERGY: 600000 2.2135 4.8367 5.1835 0.0000 -13242.9470 2129.7794 0.0000 0.0000 1066.6939 -10034.2400 179.2569 -11100.9339 -10032.4922 179.2569 -90.1492 -42.7114 29335.5583 -90.1492 -42.7114
ENERGY: 700000 0.9847 11.9250 5.5542 0.0000 -12618.3743 1947.1896 0.0000 0.0000 1240.0691 -9412.6517 208.3924 -10652.7208 -9410.0377 209.8706 133.2330 233.2102 29291.4578 3.2939 3.3049
TCL: Running 100000 steps at 240 kelvin.
TCL: Setting parameter langevinTemp to 240
TCL: Running for 100000 steps
ETITLE: TS BOND ANGLE DIHED IMPRP ELECT VDW BOUNDARY MISC KINETIC TOTAL TEMP POTENTIAL TOTAL3 TEMPAVG PRESSURE GPRESSURE VOLUME PRESSAVG GPRESSAVG
ENERGY: 700000 0.9847 11.9250 5.5542 0.0000 -12618.3743 1947.1896 0.0000 0.0000 1239.4618 -9413.2590 208.2904 -10652.7208 -9410.8192 208.2904 169.9130 233.1312 29291.4578 169.9130 233.1312
ENERGY: 800000 2.2245 8.3972 6.1712 0.0000 -11895.1581 1652.9037 0.0000 0.0000 1371.3466 -8854.1151 230.4535 -10225.4616 -8851.3694 239.6832 -844.4525 -706.9708 29455.8173 4.7735 4.7278
TCL: Running 100000 steps at 270 kelvin.
TCL: Setting parameter langevinTemp to 270
TCL: Running for 100000 steps
ETITLE: TS BOND ANGLE DIHED IMPRP ELECT VDW BOUNDARY MISC KINETIC TOTAL TEMP POTENTIAL TOTAL3 TEMPAVG PRESSURE GPRESSURE VOLUME PRESSAVG GPRESSAVG
ENERGY: 800000 2.2245 8.3972 6.1712 0.0000 -11895.1581 1652.9037 0.0000 0.0000 1370.6499 -8854.8117 230.3364 -10225.4616 -8851.8852 230.3364 -799.0115 -706.3706 29455.8173 -799.0115 -706.3706
ENERGY: 900000 0.3848 8.4234 5.9104 0.0000 -11313.3294 1522.9179 0.0000 0.0000 1619.5218 -8156.1711 272.1591 -9775.6929 -8152.1737 269.8325 -374.2937 -341.0655 29970.7665 3.0292 3.1105
TCL: Running 1000000 steps at 300 kelvin.
TCL: Setting parameter langevinTemp to 300
TCL: Running for 1000000 steps
ETITLE: TS BOND ANGLE DIHED IMPRP ELECT VDW BOUNDARY MISC KINETIC TOTAL TEMP POTENTIAL TOTAL3 TEMPAVG PRESSURE GPRESSURE VOLUME PRESSAVG GPRESSAVG
ENERGY: 900000 0.3848 8.4234 5.9104 0.0000 -11313.3294 1522.9179 0.0000 0.0000 1618.6956 -8156.9973 272.0203 -9775.6929 -8153.8669 272.0203 -421.1590 -341.2642 29970.7665 -421.1590 -341.2642
ENERGY: 1100000 2.7918 11.7971 8.7297 0.0000 -10803.0788 1384.3231 0.0000 0.0000 1774.1428 -7621.2944 298.1430 -9395.4372 -7615.5551 299.9663 -250.8257 -191.5656 30242.2199 3.3606 3.4201
ENERGY: 1300000 2.7289 16.6001 5.4058 0.0000 -10841.9379 1541.2826 0.0000 0.0000 1767.1632 -7508.7571 296.9701 -9275.9204 -7507.0285 300.3375 672.9973 725.5252 31269.8974 3.5290 3.4107
ENERGY: 1500000 4.4293 13.6952 6.1776 0.0000 -10833.3837 1412.8845 0.0000 0.0000 1778.7225 -7617.4746 298.9126 -9396.1971 -7614.7258 300.2632 -394.9727 -340.1297 30362.4444 4.8098 4.8725
ENERGY: 1700000 3.4294 8.5540 4.6749 0.0000 -10940.1522 1527.3096 0.0000 0.0000 1784.8040 -7611.3803 299.9346 -9396.1843 -7605.0372 300.7020 340.4311 386.7971 30834.8907 2.8418 2.9342
ENERGY: 1900000 2.3243 8.0310 5.6718 0.0000 -10877.6937 1492.5260 0.0000 0.0000 1808.7356 -7560.4050 303.9563 -9369.1406 -7557.1931 300.4346 371.7281 429.2133 30640.3724 2.1822 2.1538
TCL: Exiting due to exit command.
