Info: SIMULATION PARAMETERS:
Info: TIMESTEP               2
Info: NUMBER OF STEPS        0
Info: STEPS PER CYCLE        10
Info: PERIODIC CELL BASIS 1  35.01 0 0
Info: PERIODIC CELL BASIS 2  0 33.404 0
Info: PERIODIC CELL BASIS 3  0 0 37.195
Info: PERIODIC CELL CENTER   0 0 0
Info: WRAPPING WATERS AROUND PERIODIC BOUNDARIES ON OUTPUT.
Info: WRAPPING ALL CLUSTERS AROUND PERIODIC BOUNDARIES ON OUTPUT.
Info: FIRST LDB TIMESTEP     50
Info: LAST LDB TIMESTEP     -1
Info: HOM BACKGROUND SCALING 1
Info: PME BACKGROUND SCALING 1
Info: MIN ATOMS PER PATCH    40
Info: EMPTY PATCH LOAD       40 ATOMS
Info: INITIAL TEMPERATURE    300
Info: CENTER OF MASS MOVING INITIALLY? NO
Info: DIELECTRIC             1
Info: EXCLUDE                SCALED ONE-FOUR
Info: 1-4 ELECTROSTATICS SCALED BY 0.833333
Info: MODIFIED 1-4 VDW PARAMETERS WILL BE USED
Info: DCD FILENAME           mobley_1178614_equil.dcd
Info: DCD FREQUENCY          100000
Info: DCD FIRST STEP         100000
Info: DCD FILE WILL CONTAIN UNIT CELL DATA
Info: XST FILENAME           mobley_1178614_equil.xst
Info: XST FREQUENCY          100000
Info: NO VELOCITY DCD OUTPUT
Info: NO FORCE DCD OUTPUT
Info: OUTPUT FILENAME        mobley_1178614_equil
Info: BINARY OUTPUT FILES WILL BE USED
Info: RESTART FILENAME       mobley_1178614_equil.restart
Info: RESTART FREQUENCY      100000
Info: BINARY RESTART FILES WILL BE USED
Info: CUTOFF                 9
Info: PAIRLIST DISTANCE      11
Info: PAIRLIST SHRINK RATE   0.01
Info: PAIRLIST GROW RATE     0.01
Info: PAIRLIST TRIGGER       0.3
Info: PAIRLISTS PER CYCLE    2
Info: PAIRLISTS ENABLED
Info: MARGIN                 8
Info: HYDROGEN GROUP CUTOFF  2.5
Info: PATCH DIMENSION        21.5
Info: ENERGY OUTPUT STEPS    100000
Info: ENERGY EVALUATION STEPS    100000
Info: OUTPUT ENERGY PRECISION 4
Info: CROSSTERM ENERGY INCLUDED IN DIHEDRAL
Info: TIMING OUTPUT STEPS    1000000
Info: PRESSURE OUTPUT STEPS  100000
Info: LANGEVIN DYNAMICS ACTIVE
Info: LANGEVIN TEMPERATURE   30
Info: LANGEVIN USING BBK INTEGRATOR
Info: LANGEVIN DAMPING COEFFICIENT IS 1 INVERSE PS
Info: LANGEVIN DYNAMICS APPLIED TO HYDROGENS
Info: LANGEVIN PISTON PRESSURE CONTROL ACTIVE
Info:        TARGET PRESSURE IS 1.01325 BAR
Info:     OSCILLATION PERIOD IS 50 FS
Info:             DECAY TIME IS 25 FS
Info:     PISTON TEMPERATURE IS 300 K
Info:       PRESSURE CONTROL IS GROUP-BASED
Info:    INITIAL STRAIN RATE IS 0 0 0
Info:       CELL FLUCTUATION IS ISOTROPIC
Info: PARTICLE MESH EWALD (PME) ACTIVE
Info: PME TOLERANCE               1e-06
Info: PME EWALD COEFFICIENT       0.348832
Info: PME INTERPOLATION ORDER     4
Info: PME GRID DIMENSIONS         36 36 40
Info: PME MAXIMUM GRID SPACING    1
Info: FULL ELECTROSTATIC EVALUATION FREQUENCY      2
Info: USING VERLET I (r-RESPA) MTS SCHEME.
Info: C1 SPLITTING OF LONG RANGE ELECTROSTATICS
Info: PLACING ATOMS IN PATCHES BY HYDROGEN GROUPS
Info: RIGID BONDS TO HYDROGEN : ALL
Info:         ERROR TOLERANCE : 1e-08
Info:          MAX ITERATIONS : 100
Info: RIGID WATER USING SETTLE ALGORITHM
Info: RANDOM NUMBER SEED     1743208475
Info: USE HYDROGEN BONDS?    NO
Info: Using AMBER format force field!
Info: AMBER PARM FILE        mobley_1178614.prmtop
Info: COORDINATE PDB         mobley_1178614.pdb
Info: Exclusions will be read from PARM file!
Info: SCNB (VDW SCALING)     2
Info: USING ARITHMETIC MEAN TO COMBINE L-J SIGMA PARAMETERS
Info: BINARY COORDINATES     mobley_1178614_min.coor
Info: SUMMARY OF PARAMETERS:
Info: 7 BONDS
Info: 5 ANGLES
Info:   5 HARMONIC
Info:   0 COSINE-BASED
Info: 3 DIHEDRAL
Info: 0 IMPROPER
Info: 0 CROSSTERM
Info: 0 VDW
Info: 21 VDW_PAIRS
Info: 0 NBTHOLE_PAIRS
Info: STRUCTURE SUMMARY:
Info: 2971 ATOMS
Info: 2971 BONDS
Info: 19 ANGLES
Info: 32 DIHEDRALS
Info: 0 IMPROPERS
Info: 0 CROSSTERMS
Info: 3013 EXCLUSIONS
Info: 2963 RIGID BONDS
Info: 5950 DEGREES OF FREEDOM
Info: 994 HYDROGEN GROUPS
Info: 3 ATOMS IN LARGEST HYDROGEN GROUP
Info: 994 MIGRATION GROUPS
Info: 3 ATOMS IN LARGEST MIGRATION GROUP
Info: TOTAL MASS = 17892.3 amu
Info: TOTAL CHARGE = 0.000199974 e
Info: MASS DENSITY = 0.683047 g/cm^3
Info: ATOM DENSITY = 0.0683011 atoms/A^3
Info: ADDED 0 IMPLICIT EXCLUSIONS
Info: NONBONDED TABLE R-SQUARED SPACING: 0.0625
Info: NONBONDED TABLE SIZE: 705 POINTS
Info: REMOVING COM VELOCITY 0.0218325 0.123753 0.0319346
TCL: Running for 100000 steps
ETITLE: TS BOND ANGLE DIHED IMPRP ELECT VDW BOUNDARY MISC KINETIC TOTAL TEMP POTENTIAL TOTAL3 TEMPAVG PRESSURE GPRESSURE VOLUME PRESSAVG GPRESSAVG
ENERGY: 0 0.1463 0.1377 0.7031 0.0000 -13816.7183 2460.2845 0.0000 0.0000 1714.5609 -9640.8857 290.0189 -11355.4467 -9640.5493 290.0189 534.5596 570.3268 43498.5869 534.5596 570.3268
ENERGY: 100000 0.3987 0.3828 1.0855 0.0000 -14123.4720 2304.3808 0.0000 0.0000 184.1504 -11633.0738 31.1491 -11817.2242 -11632.5249 30.8801 -1615.2700 -1555.7773 29302.1141 4.7455 4.7364
TCL: Running 100000 steps at 60 kelvin.
TCL: Setting parameter langevinTemp to 60
TCL: Running for 100000 steps
ETITLE: TS BOND ANGLE DIHED IMPRP ELECT VDW BOUNDARY MISC KINETIC TOTAL TEMP POTENTIAL TOTAL3 TEMPAVG PRESSURE GPRESSURE VOLUME PRESSAVG GPRESSAVG
ENERGY: 100000 0.3987 0.3828 1.0855 0.0000 -14123.4720 2304.3808 0.0000 0.0000 184.0605 -11633.1637 31.1339 -11817.2242 -11632.6788 31.1339 -1620.5572 -1555.8922 29302.1141 -1620.5572 -1555.8922
ENERGY: 200000 0.4434 0.6354 1.1313 0.0000 -14184.5008 2415.1065 0.0000 0.0000 365.6138 -11401.5703 61.8438 -11767.1842 -11400.7784 59.9709 -97.8527 -64.8408 28666.7897 3.4932 3.4814
TCL: Running 100000 steps at 90 kelvin.
TCL: Setting parameter langevinTemp to 90
TCL: Running for 100000 steps
ETITLE: TS BOND ANGLE DIHED IMPRP ELECT VDW BOUNDARY MISC KINETIC TOTAL TEMP POTENTIAL TOTAL3 TEMPAVG PRESSURE GPRESSURE VOLUME PRESSAVG GPRESSAVG
ENERGY: 200000 0.4434 0.6354 1.1313 0.0000 -14184.5008 2415.1065 0.0000 0.0000 365.4330 -11401.7511 61.8132 -11767.1842 -11400.9767 61.8132 -120.5985 -65.3286 28666.7897 -120.5985 -65.3286
ENERGY: 300000 0.5910 0.7108 1.5672 0.0000 -14009.8604 2332.4378 0.0000 0.0000 540.3685 -11134.1851 91.4036 -11674.5536 -11132.6965 89.9620 -574.1261 -524.8811 28839.4813 4.3519 4.4170
TCL: Running 100000 steps at 120 kelvin.
TCL: Setting parameter langevinTemp to 120
TCL: Running for 100000 steps
ETITLE: TS BOND ANGLE DIHED IMPRP ELECT VDW BOUNDARY MISC KINETIC TOTAL TEMP POTENTIAL TOTAL3 TEMPAVG PRESSURE GPRESSURE VOLUME PRESSAVG GPRESSAVG
ENERGY: 300000 0.5910 0.7108 1.5672 0.0000 -14009.8604 2332.4378 0.0000 0.0000 540.0956 -11134.4580 91.3575 -11674.5536 -11132.9887 91.3575 -585.5724 -525.0883 28839.4813 -585.5724 -525.0883
ENERGY: 400000 1.2208 1.4880 0.9924 0.0000 -13847.0303 2274.1364 0.0000 0.0000 722.1247 -10847.0681 122.1478 -11569.1928 -10844.6803 120.1089 -685.0007 -675.6654 28945.9943 4.3270 4.3129
TCL: Running 100000 steps at 150 kelvin.
TCL: Setting parameter langevinTemp to 150
TCL: Running for 100000 steps
ETITLE: TS BOND ANGLE DIHED IMPRP ELECT VDW BOUNDARY MISC KINETIC TOTAL TEMP POTENTIAL TOTAL3 TEMPAVG PRESSURE GPRESSURE VOLUME PRESSAVG GPRESSAVG
ENERGY: 400000 1.2208 1.4880 0.9924 0.0000 -13847.0303 2274.1364 0.0000 0.0000 721.7725 -10847.4203 122.0882 -11569.1928 -10845.6867 122.0882 -718.7333 -675.5299 28945.9943 -718.7333 -675.5299
ENERGY: 500000 0.6858 1.2732 1.1282 0.0000 -13682.5556 2286.1416 0.0000 0.0000 899.8520 -10493.4748 152.2105 -11393.3267 -10491.6917 149.6929 111.9631 180.0662 29054.3656 3.3226 3.3904
TCL: Running 100000 steps at 180 kelvin.
TCL: Setting parameter langevinTemp to 180
TCL: Running for 100000 steps
ETITLE: TS BOND ANGLE DIHED IMPRP ELECT VDW BOUNDARY MISC KINETIC TOTAL TEMP POTENTIAL TOTAL3 TEMPAVG PRESSURE GPRESSURE VOLUME PRESSAVG GPRESSAVG
ENERGY: 500000 0.6858 1.2732 1.1282 0.0000 -13682.5556 2286.1416 0.0000 0.0000 899.4102 -10493.9166 152.1357 -11393.3267 -10492.1063 152.1357 116.7181 179.7179 29054.3656 116.7181 179.7179
ENERGY: 600000 0.9760 1.2611 2.1358 0.0000 -13403.1949 2294.8059 0.0000 0.0000 1044.4168 -10059.5993 176.6637 -11104.0162 -10056.8200 180.1366 1311.4294 1369.3797 28692.2453 4.7495 4.7001
TCL: Running 100000 steps at 210 kelvin.
TCL: Setting parameter langevinTemp to 210
TCL: Running for 100000 steps
ETITLE: TS BOND ANGLE DIHED IMPRP ELECT VDW BOUNDARY MISC KINETIC TOTAL TEMP POTENTIAL TOTAL3 TEMPAVG PRESSURE GPRESSURE VOLUME PRESSAVG GPRESSAVG
ENERGY: 600000 0.9760 1.2611 2.1358 0.0000 -13403.1949 2294.8059 0.0000 0.0000 1043.8888 -10060.1274 176.5744 -11104.0162 -10058.6521 176.5744 1316.7168 1370.6767 28692.2453 1316.7168 1370.6767
ENERGY: 700000 1.5465 2.7800 3.7101 0.0000 -12500.4837 1941.9878 0.0000 0.0000 1209.5271 -9340.9322 204.5922 -10550.4593 -9337.9703 210.2518 760.2431 833.6056 28611.8305 3.2644 3.1870
TCL: Running 100000 steps at 240 kelvin.
TCL: Setting parameter langevinTemp to 240
TCL: Running for 100000 steps
ETITLE: TS BOND ANGLE DIHED IMPRP ELECT VDW BOUNDARY MISC KINETIC TOTAL TEMP POTENTIAL TOTAL3 TEMPAVG PRESSURE GPRESSURE VOLUME PRESSAVG GPRESSAVG
ENERGY: 700000 1.5465 2.7800 3.7101 0.0000 -12500.4837 1941.9878 0.0000 0.0000 1208.8934 -9341.5659 204.4850 -10550.4593 -9339.6049 204.4850 744.3733 832.4245 28611.8305 744.3733 832.4245
ENERGY: 800000 4.4501 3.6336 1.9192 0.0000 -11806.4938 1700.5500 0.0000 0.0000 1427.6281 -8668.3128 241.4841 -10095.9409 -8665.8478 240.1739 -302.8159 -193.0425 29586.1333 2.9836 2.9195
TCL: Running 100000 steps at 270 kelvin.
TCL: Setting parameter langevinTemp to 270
TCL: Running for 100000 steps
ETITLE: TS BOND ANGLE DIHED IMPRP ELECT VDW BOUNDARY MISC KINETIC TOTAL TEMP POTENTIAL TOTAL3 TEMPAVG PRESSURE GPRESSURE VOLUME PRESSAVG GPRESSAVG
ENERGY: 800000 4.4501 3.6336 1.9192 0.0000 -11806.4938 1700.5500 0.0000 0.0000 1426.8796 -8669.0612 241.3575 -10095.9409 -8666.7668 241.3575 -267.1390 -194.5748 29586.1333 -267.1390 -194.5748
ENERGY: 900000 4.4156 2.5099 4.8307 0.0000 -11342.0495 1589.7389 0.0000 0.0000 1673.4796 -8067.0748 283.0700 -9740.5544 -8066.3728 269.9097 -130.7505 -55.9106 30127.3763 3.3554 3.2883
TCL: Running 1000000 steps at 300 kelvin.
TCL: Setting parameter langevinTemp to 300
TCL: Running for 1000000 steps
ETITLE: TS BOND ANGLE DIHED IMPRP ELECT VDW BOUNDARY MISC KINETIC TOTAL TEMP POTENTIAL TOTAL3 TEMPAVG PRESSURE GPRESSURE VOLUME PRESSAVG GPRESSAVG
ENERGY: 900000 4.4156 2.5099 4.8307 0.0000 -11342.0495 1589.7389 0.0000 0.0000 1672.6850 -8067.8694 282.9356 -9740.5544 -8064.6714 282.9356 -139.4305 -57.3826 30127.3763 -139.4305 -57.3826
ENERGY: 1100000 0.3689 4.4479 3.8553 0.0000 -10847.4257 1528.5045 0.0000 0.0000 1766.3135 -7543.9356 298.7729 -9310.2491 -7539.5785 300.5709 877.5396 920.5633 30627.9253 2.1999 2.2066
ENERGY: 1300000 3.5120 2.2128 6.8381 0.0000 -10869.8457 1497.7700 0.0000 0.0000 1763.9092 -7595.6036 298.3662 -9359.5128 -7592.2747 299.8130 432.8919 482.5864 30318.3382 3.5402 3.5699
ENERGY: 1500000 2.2192 2.7895 2.8825 0.0000 -10585.2629 1252.0384 0.0000 0.0000 1774.2429 -7551.0904 300.1142 -9325.3333 -7549.2607 300.8762 -1407.3482 -1272.3318 30257.4763 2.5423 2.5071
ENERGY: 1700000 0.6430 2.8753 2.8969 0.0000 -10641.0193 1359.0903 0.0000 0.0000 1726.1176 -7549.3963 291.9738 -9275.5139 -7543.2576 299.8937 -630.0418 -514.0022 30636.6165 4.1426 3.9716
ENERGY: 1900000 2.9000 2.6469 4.7750 0.0000 -10719.4924 1391.5960 0.0000 0.0000 1771.8905 -7545.6839 299.7162 -9317.5744 -7540.5690 299.9446 -642.8443 -509.3185 30711.0254 3.0993 2.8931
TCL: Exiting due to exit command.
