Info: SIMULATION PARAMETERS:
Info: TIMESTEP               2
Info: NUMBER OF STEPS        0
Info: STEPS PER CYCLE        10
Info: PERIODIC CELL BASIS 1  36.592 0 0
Info: PERIODIC CELL BASIS 2  0 34.26 0
Info: PERIODIC CELL BASIS 3  0 0 35.723
Info: PERIODIC CELL CENTER   0 0 0
Info: WRAPPING WATERS AROUND PERIODIC BOUNDARIES ON OUTPUT.
Info: WRAPPING ALL CLUSTERS AROUND PERIODIC BOUNDARIES ON OUTPUT.
Info: FIRST LDB TIMESTEP     50
Info: LAST LDB TIMESTEP     -1
Info: HOM BACKGROUND SCALING 1
Info: PME BACKGROUND SCALING 1
Info: MIN ATOMS PER PATCH    40
Info: EMPTY PATCH LOAD       40 ATOMS
Info: INITIAL TEMPERATURE    300
Info: CENTER OF MASS MOVING INITIALLY? NO
Info: DIELECTRIC             1
Info: EXCLUDE                SCALED ONE-FOUR
Info: 1-4 ELECTROSTATICS SCALED BY 0.833333
Info: MODIFIED 1-4 VDW PARAMETERS WILL BE USED
Info: DCD FILENAME           mobley_667278_equil.dcd
Info: DCD FREQUENCY          100000
Info: DCD FIRST STEP         100000
Info: DCD FILE WILL CONTAIN UNIT CELL DATA
Info: XST FILENAME           mobley_667278_equil.xst
Info: XST FREQUENCY          100000
Info: NO VELOCITY DCD OUTPUT
Info: NO FORCE DCD OUTPUT
Info: OUTPUT FILENAME        mobley_667278_equil
Info: BINARY OUTPUT FILES WILL BE USED
Info: RESTART FILENAME       mobley_667278_equil.restart
Info: RESTART FREQUENCY      100000
Info: BINARY RESTART FILES WILL BE USED
Info: CUTOFF                 9
Info: PAIRLIST DISTANCE      11
Info: PAIRLIST SHRINK RATE   0.01
Info: PAIRLIST GROW RATE     0.01
Info: PAIRLIST TRIGGER       0.3
Info: PAIRLISTS PER CYCLE    2
Info: PAIRLISTS ENABLED
Info: MARGIN                 8
Info: HYDROGEN GROUP CUTOFF  2.5
Info: PATCH DIMENSION        21.5
Info: ENERGY OUTPUT STEPS    100000
Info: ENERGY EVALUATION STEPS    100000
Info: OUTPUT ENERGY PRECISION 4
Info: CROSSTERM ENERGY INCLUDED IN DIHEDRAL
Info: TIMING OUTPUT STEPS    1000000
Info: PRESSURE OUTPUT STEPS  100000
Info: LANGEVIN DYNAMICS ACTIVE
Info: LANGEVIN TEMPERATURE   30
Info: LANGEVIN USING BBK INTEGRATOR
Info: LANGEVIN DAMPING COEFFICIENT IS 1 INVERSE PS
Info: LANGEVIN DYNAMICS APPLIED TO HYDROGENS
Info: LANGEVIN PISTON PRESSURE CONTROL ACTIVE
Info:        TARGET PRESSURE IS 1.01325 BAR
Info:     OSCILLATION PERIOD IS 50 FS
Info:             DECAY TIME IS 25 FS
Info:     PISTON TEMPERATURE IS 300 K
Info:       PRESSURE CONTROL IS GROUP-BASED
Info:    INITIAL STRAIN RATE IS 0 0 0
Info:       CELL FLUCTUATION IS ISOTROPIC
Info: PARTICLE MESH EWALD (PME) ACTIVE
Info: PME TOLERANCE               1e-06
Info: PME EWALD COEFFICIENT       0.348832
Info: PME INTERPOLATION ORDER     4
Info: PME GRID DIMENSIONS         40 36 36
Info: PME MAXIMUM GRID SPACING    1
Info: FULL ELECTROSTATIC EVALUATION FREQUENCY      2
Info: USING VERLET I (r-RESPA) MTS SCHEME.
Info: C1 SPLITTING OF LONG RANGE ELECTROSTATICS
Info: PLACING ATOMS IN PATCHES BY HYDROGEN GROUPS
Info: RIGID BONDS TO HYDROGEN : ALL
Info:         ERROR TOLERANCE : 1e-08
Info:          MAX ITERATIONS : 100
Info: RIGID WATER USING SETTLE ALGORITHM
Info: RANDOM NUMBER SEED     1743235922
Info: USE HYDROGEN BONDS?    NO
Info: Using AMBER format force field!
Info: AMBER PARM FILE        mobley_667278.prmtop
Info: COORDINATE PDB         mobley_667278.pdb
Info: Exclusions will be read from PARM file!
Info: SCNB (VDW SCALING)     2
Info: USING ARITHMETIC MEAN TO COMBINE L-J SIGMA PARAMETERS
Info: BINARY COORDINATES     mobley_667278_min.coor
Info: SUMMARY OF PARAMETERS:
Info: 7 BONDS
Info: 8 ANGLES
Info:   8 HARMONIC
Info:   0 COSINE-BASED
Info: 3 DIHEDRAL
Info: 0 IMPROPER
Info: 0 CROSSTERM
Info: 0 VDW
Info: 15 VDW_PAIRS
Info: 0 NBTHOLE_PAIRS
Info: STRUCTURE SUMMARY:
Info: 2950 ATOMS
Info: 2951 BONDS
Info: 36 ANGLES
Info: 64 DIHEDRALS
Info: 0 IMPROPERS
Info: 0 CROSSTERMS
Info: 3033 EXCLUSIONS
Info: 2931 RIGID BONDS
Info: 5919 DEGREES OF FREEDOM
Info: 995 HYDROGEN GROUPS
Info: 3 ATOMS IN LARGEST HYDROGEN GROUP
Info: 995 MIGRATION GROUPS
Info: 3 ATOMS IN LARGEST MIGRATION GROUP
Info: TOTAL MASS = 17978.9 amu
Info: TOTAL CHARGE = -0.000100005 e
Info: MASS DENSITY = 0.666655 g/cm^3
Info: ATOM DENSITY = 0.065872 atoms/A^3
Info: ADDED 0 IMPLICIT EXCLUSIONS
Info: NONBONDED TABLE R-SQUARED SPACING: 0.0625
Info: NONBONDED TABLE SIZE: 705 POINTS
Info: REMOVING COM VELOCITY 0.0343012 0.0842494 0.0126884
TCL: Running for 100000 steps
ETITLE: TS BOND ANGLE DIHED IMPRP ELECT VDW BOUNDARY MISC KINETIC TOTAL TEMP POTENTIAL TOTAL3 TEMPAVG PRESSURE GPRESSURE VOLUME PRESSAVG GPRESSAVG
ENERGY: 0 0.7233 0.2823 6.3265 0.0000 -13546.1629 2378.4162 0.0000 0.0000 1780.6914 -9379.7231 302.7825 -11160.4146 -9379.3804 302.7825 437.1662 477.5272 44783.8503 437.1662 477.5272
ENERGY: 100000 1.6132 0.8288 7.9746 0.0000 -14080.9907 2410.9282 0.0000 0.0000 175.0857 -11484.5601 29.7710 -11659.6459 -11484.1251 30.8832 -494.7739 -447.3688 29607.5561 3.4160 3.3940
TCL: Running 100000 steps at 60 kelvin.
TCL: Setting parameter langevinTemp to 60
TCL: Running for 100000 steps
ETITLE: TS BOND ANGLE DIHED IMPRP ELECT VDW BOUNDARY MISC KINETIC TOTAL TEMP POTENTIAL TOTAL3 TEMPAVG PRESSURE GPRESSURE VOLUME PRESSAVG GPRESSAVG
ENERGY: 100000 1.6132 0.8288 7.9746 0.0000 -14080.9907 2410.9282 0.0000 0.0000 174.9997 -11484.6462 29.7563 -11659.6459 -11484.3705 29.7563 -501.9705 -447.3968 29607.5561 -501.9705 -447.3968
ENERGY: 200000 2.0566 1.0298 7.7887 0.0000 -14035.3245 2442.6477 0.0000 0.0000 342.8796 -11238.9221 58.3020 -11581.8017 -11238.2573 59.9635 21.9521 60.4399 29392.9163 5.4906 5.5560
TCL: Running 100000 steps at 90 kelvin.
TCL: Setting parameter langevinTemp to 90
TCL: Running for 100000 steps
ETITLE: TS BOND ANGLE DIHED IMPRP ELECT VDW BOUNDARY MISC KINETIC TOTAL TEMP POTENTIAL TOTAL3 TEMPAVG PRESSURE GPRESSURE VOLUME PRESSAVG GPRESSAVG
ENERGY: 200000 2.0566 1.0298 7.7887 0.0000 -14035.3245 2442.6477 0.0000 0.0000 342.7041 -11239.0976 58.2722 -11581.8017 -11238.1961 58.2722 7.6308 59.8519 29392.9163 7.6308 59.8519
ENERGY: 300000 1.6435 1.4535 9.2172 0.0000 -13898.0621 2388.2622 0.0000 0.0000 507.8120 -10989.6737 86.3466 -11497.4858 -10988.8429 90.0408 65.0883 91.0569 29259.8115 3.2173 3.1316
TCL: Running 100000 steps at 120 kelvin.
TCL: Setting parameter langevinTemp to 120
TCL: Running for 100000 steps
ETITLE: TS BOND ANGLE DIHED IMPRP ELECT VDW BOUNDARY MISC KINETIC TOTAL TEMP POTENTIAL TOTAL3 TEMPAVG PRESSURE GPRESSURE VOLUME PRESSAVG GPRESSAVG
ENERGY: 300000 1.6435 1.4535 9.2172 0.0000 -13898.0621 2388.2622 0.0000 0.0000 507.5505 -10989.9353 86.3021 -11497.4858 -10989.0568 86.3021 35.9814 90.8473 29259.8115 35.9814 90.8473
ENERGY: 400000 4.8426 2.3768 7.9624 0.0000 -13659.4679 2277.7097 0.0000 0.0000 706.4680 -10660.1084 120.1253 -11366.5763 -10658.0382 120.0229 -456.7960 -364.1924 29166.4006 4.0743 4.0723
TCL: Running 100000 steps at 150 kelvin.
TCL: Setting parameter langevinTemp to 150
TCL: Running for 100000 steps
ETITLE: TS BOND ANGLE DIHED IMPRP ELECT VDW BOUNDARY MISC KINETIC TOTAL TEMP POTENTIAL TOTAL3 TEMPAVG PRESSURE GPRESSURE VOLUME PRESSAVG GPRESSAVG
ENERGY: 400000 4.8426 2.3768 7.9624 0.0000 -13659.4679 2277.7097 0.0000 0.0000 706.1326 -10660.4438 120.0683 -11366.5763 -10658.9288 120.0683 -429.4053 -363.9796 29166.4006 -429.4053 -363.9796
ENERGY: 500000 3.9676 2.5566 8.7710 0.0000 -13569.7484 2323.7886 0.0000 0.0000 894.9276 -10335.7371 152.1703 -11230.6647 -10333.1167 150.1082 859.6284 969.6055 28434.4416 3.7930 3.7930
TCL: Running 100000 steps at 180 kelvin.
TCL: Setting parameter langevinTemp to 180
TCL: Running for 100000 steps
ETITLE: TS BOND ANGLE DIHED IMPRP ELECT VDW BOUNDARY MISC KINETIC TOTAL TEMP POTENTIAL TOTAL3 TEMPAVG PRESSURE GPRESSURE VOLUME PRESSAVG GPRESSAVG
ENERGY: 500000 3.9676 2.5566 8.7710 0.0000 -13569.7484 2323.7886 0.0000 0.0000 894.4915 -10336.1732 152.0962 -11230.6647 -10334.6148 152.0962 912.9235 969.7998 28434.4416 912.9235 969.7998
ENERGY: 600000 3.3455 4.0704 10.2878 0.0000 -13096.9797 2125.8595 0.0000 0.0000 1062.8268 -9890.5896 180.7193 -10953.4165 -9887.1365 179.6873 384.8676 468.7930 28881.7284 4.8725 4.7083
TCL: Running 100000 steps at 210 kelvin.
TCL: Setting parameter langevinTemp to 210
TCL: Running for 100000 steps
ETITLE: TS BOND ANGLE DIHED IMPRP ELECT VDW BOUNDARY MISC KINETIC TOTAL TEMP POTENTIAL TOTAL3 TEMPAVG PRESSURE GPRESSURE VOLUME PRESSAVG GPRESSAVG
ENERGY: 600000 3.3455 4.0704 10.2878 0.0000 -13096.9797 2125.8595 0.0000 0.0000 1062.2985 -9891.1180 180.6295 -10953.4165 -9888.8332 180.6295 392.4185 468.4036 28881.7284 392.4185 468.4036
ENERGY: 700000 5.0798 2.1893 9.7059 0.0000 -12345.5577 1846.6580 0.0000 0.0000 1215.5049 -9266.4199 206.6801 -10481.9248 -9264.8389 209.7301 -294.7448 -236.2919 28628.3543 5.5368 5.4898
TCL: Running 100000 steps at 240 kelvin.
TCL: Setting parameter langevinTemp to 240
TCL: Running for 100000 steps
ETITLE: TS BOND ANGLE DIHED IMPRP ELECT VDW BOUNDARY MISC KINETIC TOTAL TEMP POTENTIAL TOTAL3 TEMPAVG PRESSURE GPRESSURE VOLUME PRESSAVG GPRESSAVG
ENERGY: 700000 5.0798 2.1893 9.7059 0.0000 -12345.5577 1846.6580 0.0000 0.0000 1214.8900 -9267.0347 206.5756 -10481.9248 -9265.6652 206.5756 -322.5095 -236.5523 28628.3543 -322.5095 -236.5523
ENERGY: 800000 3.6238 2.2378 9.9812 0.0000 -11741.0422 1637.2196 0.0000 0.0000 1385.0250 -8702.9549 235.5047 -10087.9799 -8698.7017 239.4967 -795.7259 -733.7637 29551.6597 2.3454 2.3035
TCL: Running 100000 steps at 270 kelvin.
TCL: Setting parameter langevinTemp to 270
TCL: Running for 100000 steps
ETITLE: TS BOND ANGLE DIHED IMPRP ELECT VDW BOUNDARY MISC KINETIC TOTAL TEMP POTENTIAL TOTAL3 TEMPAVG PRESSURE GPRESSURE VOLUME PRESSAVG GPRESSAVG
ENERGY: 800000 3.6238 2.2378 9.9812 0.0000 -11741.0422 1637.2196 0.0000 0.0000 1384.3698 -8703.6101 235.3933 -10087.9799 -8700.4757 235.3933 -812.6259 -733.9057 29551.6597 -812.6259 -733.9057
ENERGY: 900000 3.1572 4.7677 10.4955 0.0000 -11295.2747 1610.3134 0.0000 0.0000 1562.3903 -8104.1506 265.6633 -9666.5408 -8101.6310 269.8026 544.6768 614.3751 29692.9871 2.4221 2.5628
TCL: Running 1000000 steps at 300 kelvin.
TCL: Setting parameter langevinTemp to 300
TCL: Running for 1000000 steps
ETITLE: TS BOND ANGLE DIHED IMPRP ELECT VDW BOUNDARY MISC KINETIC TOTAL TEMP POTENTIAL TOTAL3 TEMPAVG PRESSURE GPRESSURE VOLUME PRESSAVG GPRESSAVG
ENERGY: 900000 3.1572 4.7677 10.4955 0.0000 -11295.2747 1610.3134 0.0000 0.0000 1561.5895 -8104.9514 265.5271 -9666.5408 -8102.6504 265.5271 540.5821 614.1783 29692.9871 540.5821 614.1783
ENERGY: 1100000 2.5117 4.1621 10.6900 0.0000 -10851.9862 1626.0418 0.0000 0.0000 1754.9813 -7453.5993 298.4108 -9208.5807 -7450.1419 299.5361 1634.4094 1763.6569 30558.1013 2.9307 2.9463
ENERGY: 1300000 10.6812 3.3351 11.7606 0.0000 -10634.1755 1361.1609 0.0000 0.0000 1779.8836 -7467.3540 302.6451 -9247.2377 -7462.1475 300.1033 -727.9465 -652.0356 30605.9807 3.7583 3.8004
ENERGY: 1500000 7.8669 3.6182 10.4892 0.0000 -10446.6283 1299.4914 0.0000 0.0000 1739.6951 -7385.4674 295.8116 -9125.1625 -7381.8032 300.3971 -1100.3685 -977.0835 30826.2735 4.3152 4.2580
ENERGY: 1700000 3.3663 7.5662 11.2475 0.0000 -10608.1720 1366.3713 0.0000 0.0000 1727.8591 -7491.7617 293.7990 -9219.6208 -7487.8851 300.4336 -428.9580 -378.9652 30393.6461 4.2974 4.2142
ENERGY: 1900000 5.1266 5.6660 12.9025 0.0000 -10737.0363 1518.1742 0.0000 0.0000 1741.3625 -7453.8044 296.0951 -9195.1669 -7452.6287 299.7707 1222.2167 1353.4713 29923.9383 3.7490 3.5798
TCL: Exiting due to exit command.
