Info: SIMULATION PARAMETERS:
Info: TIMESTEP               2
Info: NUMBER OF STEPS        0
Info: STEPS PER CYCLE        10
Info: PERIODIC CELL BASIS 1  35.01 0 0
Info: PERIODIC CELL BASIS 2  0 35.267 0
Info: PERIODIC CELL BASIS 3  0 0 35.723
Info: PERIODIC CELL CENTER   0 0 0
Info: WRAPPING WATERS AROUND PERIODIC BOUNDARIES ON OUTPUT.
Info: WRAPPING ALL CLUSTERS AROUND PERIODIC BOUNDARIES ON OUTPUT.
Info: FIRST LDB TIMESTEP     50
Info: LAST LDB TIMESTEP     -1
Info: HOM BACKGROUND SCALING 1
Info: PME BACKGROUND SCALING 1
Info: MIN ATOMS PER PATCH    40
Info: EMPTY PATCH LOAD       40 ATOMS
Info: INITIAL TEMPERATURE    300
Info: CENTER OF MASS MOVING INITIALLY? NO
Info: DIELECTRIC             1
Info: EXCLUDE                SCALED ONE-FOUR
Info: 1-4 ELECTROSTATICS SCALED BY 0.833333
Info: MODIFIED 1-4 VDW PARAMETERS WILL BE USED
Info: DCD FILENAME           mobley_1708457_equil.dcd
Info: DCD FREQUENCY          100000
Info: DCD FIRST STEP         100000
Info: DCD FILE WILL CONTAIN UNIT CELL DATA
Info: XST FILENAME           mobley_1708457_equil.xst
Info: XST FREQUENCY          100000
Info: NO VELOCITY DCD OUTPUT
Info: NO FORCE DCD OUTPUT
Info: OUTPUT FILENAME        mobley_1708457_equil
Info: BINARY OUTPUT FILES WILL BE USED
Info: RESTART FILENAME       mobley_1708457_equil.restart
Info: RESTART FREQUENCY      100000
Info: BINARY RESTART FILES WILL BE USED
Info: CUTOFF                 9
Info: PAIRLIST DISTANCE      11
Info: PAIRLIST SHRINK RATE   0.01
Info: PAIRLIST GROW RATE     0.01
Info: PAIRLIST TRIGGER       0.3
Info: PAIRLISTS PER CYCLE    2
Info: PAIRLISTS ENABLED
Info: MARGIN                 8
Info: HYDROGEN GROUP CUTOFF  2.5
Info: PATCH DIMENSION        21.5
Info: ENERGY OUTPUT STEPS    100000
Info: ENERGY EVALUATION STEPS    100000
Info: OUTPUT ENERGY PRECISION 4
Info: CROSSTERM ENERGY INCLUDED IN DIHEDRAL
Info: TIMING OUTPUT STEPS    1000000
Info: PRESSURE OUTPUT STEPS  100000
Info: LANGEVIN DYNAMICS ACTIVE
Info: LANGEVIN TEMPERATURE   30
Info: LANGEVIN USING BBK INTEGRATOR
Info: LANGEVIN DAMPING COEFFICIENT IS 1 INVERSE PS
Info: LANGEVIN DYNAMICS APPLIED TO HYDROGENS
Info: LANGEVIN PISTON PRESSURE CONTROL ACTIVE
Info:        TARGET PRESSURE IS 1.01325 BAR
Info:     OSCILLATION PERIOD IS 50 FS
Info:             DECAY TIME IS 25 FS
Info:     PISTON TEMPERATURE IS 300 K
Info:       PRESSURE CONTROL IS GROUP-BASED
Info:    INITIAL STRAIN RATE IS 0 0 0
Info:       CELL FLUCTUATION IS ISOTROPIC
Info: PARTICLE MESH EWALD (PME) ACTIVE
Info: PME TOLERANCE               1e-06
Info: PME EWALD COEFFICIENT       0.348832
Info: PME INTERPOLATION ORDER     4
Info: PME GRID DIMENSIONS         36 36 36
Info: PME MAXIMUM GRID SPACING    1
Info: FULL ELECTROSTATIC EVALUATION FREQUENCY      2
Info: USING VERLET I (r-RESPA) MTS SCHEME.
Info: C1 SPLITTING OF LONG RANGE ELECTROSTATICS
Info: PLACING ATOMS IN PATCHES BY HYDROGEN GROUPS
Info: RIGID BONDS TO HYDROGEN : ALL
Info:         ERROR TOLERANCE : 1e-08
Info:          MAX ITERATIONS : 100
Info: RIGID WATER USING SETTLE ALGORITHM
Info: RANDOM NUMBER SEED     1743160939
Info: USE HYDROGEN BONDS?    NO
Info: Using AMBER format force field!
Info: AMBER PARM FILE        mobley_1708457.prmtop
Info: COORDINATE PDB         mobley_1708457.pdb
Info: Exclusions will be read from PARM file!
Info: SCNB (VDW SCALING)     2
Info: USING ARITHMETIC MEAN TO COMBINE L-J SIGMA PARAMETERS
Info: BINARY COORDINATES     mobley_1708457_min.coor
Info: SUMMARY OF PARAMETERS:
Info: 5 BONDS
Info: 5 ANGLES
Info:   5 HARMONIC
Info:   0 COSINE-BASED
Info: 1 DIHEDRAL
Info: 0 IMPROPER
Info: 0 CROSSTERM
Info: 0 VDW
Info: 21 VDW_PAIRS
Info: 0 NBTHOLE_PAIRS
Info: STRUCTURE SUMMARY:
Info: 2981 ATOMS
Info: 2980 BONDS
Info: 18 ANGLES
Info: 18 DIHEDRALS
Info: 0 IMPROPERS
Info: 0 CROSSTERMS
Info: 3016 EXCLUSIONS
Info: 2976 RIGID BONDS
Info: 5967 DEGREES OF FREEDOM
Info: 995 HYDROGEN GROUPS
Info: 4 ATOMS IN LARGEST HYDROGEN GROUP
Info: 995 MIGRATION GROUPS
Info: 4 ATOMS IN LARGEST MIGRATION GROUP
Info: TOTAL MASS = 17930 amu
Info: TOTAL CHARGE = -0.000100002 e
Info: MASS DENSITY = 0.675041 g/cm^3
Info: ATOM DENSITY = 0.0675855 atoms/A^3
Info: ADDED 0 IMPLICIT EXCLUSIONS
Info: NONBONDED TABLE R-SQUARED SPACING: 0.0625
Info: NONBONDED TABLE SIZE: 705 POINTS
Info: REMOVING COM VELOCITY -0.115644 0.214314 0.0382341
TCL: Running for 100000 steps
ETITLE: TS BOND ANGLE DIHED IMPRP ELECT VDW BOUNDARY MISC KINETIC TOTAL TEMP POTENTIAL TOTAL3 TEMPAVG PRESSURE GPRESSURE VOLUME PRESSAVG GPRESSAVG
ENERGY: 0 0.4833 0.7937 0.0541 0.0000 -13954.8825 2451.8493 0.0000 0.0000 1780.9976 -9720.7045 300.3984 -11501.7020 -9720.3761 300.3984 591.5824 630.6963 44107.1049 591.5824 630.6963
ENERGY: 100000 0.7475 1.2091 0.1357 0.0000 -14509.4309 2504.5800 0.0000 0.0000 176.9570 -11825.8015 29.8471 -12002.7586 -11825.1586 31.0075 -171.4693 -96.2201 28941.4645 4.3270 4.3282
TCL: Running 100000 steps at 60 kelvin.
TCL: Setting parameter langevinTemp to 60
TCL: Running for 100000 steps
ETITLE: TS BOND ANGLE DIHED IMPRP ELECT VDW BOUNDARY MISC KINETIC TOTAL TEMP POTENTIAL TOTAL3 TEMPAVG PRESSURE GPRESSURE VOLUME PRESSAVG GPRESSAVG
ENERGY: 100000 0.7475 1.2091 0.1357 0.0000 -14509.4309 2504.5800 0.0000 0.0000 176.8674 -11825.8912 29.8320 -12002.7586 -11825.4981 29.8320 -175.3424 -96.1813 28941.4645 -175.3424 -96.1813
ENERGY: 200000 1.0931 1.5871 0.2281 0.0000 -14574.0917 2656.2939 0.0000 0.0000 358.1676 -11556.7219 60.4116 -11914.8895 -11555.9019 59.9108 1550.4098 1641.2489 28713.2037 4.6869 4.6610
TCL: Running 100000 steps at 90 kelvin.
TCL: Setting parameter langevinTemp to 90
TCL: Running for 100000 steps
ETITLE: TS BOND ANGLE DIHED IMPRP ELECT VDW BOUNDARY MISC KINETIC TOTAL TEMP POTENTIAL TOTAL3 TEMPAVG PRESSURE GPRESSURE VOLUME PRESSAVG GPRESSAVG
ENERGY: 200000 1.0931 1.5871 0.2281 0.0000 -14574.0917 2656.2939 0.0000 0.0000 357.9906 -11556.8989 60.3818 -11914.8895 -11556.2906 60.3818 1580.9316 1641.3614 28713.2037 1580.9316 1641.3614
ENERGY: 300000 2.0018 1.8509 0.1189 0.0000 -14156.8593 2322.6421 0.0000 0.0000 521.3522 -11308.8935 87.9358 -11830.2456 -11307.1813 89.9925 -749.8371 -678.8253 28870.6242 3.1485 3.1287
TCL: Running 100000 steps at 120 kelvin.
TCL: Setting parameter langevinTemp to 120
TCL: Running for 100000 steps
ETITLE: TS BOND ANGLE DIHED IMPRP ELECT VDW BOUNDARY MISC KINETIC TOTAL TEMP POTENTIAL TOTAL3 TEMPAVG PRESSURE GPRESSURE VOLUME PRESSAVG GPRESSAVG
ENERGY: 300000 2.0018 1.8509 0.1189 0.0000 -14156.8593 2322.6421 0.0000 0.0000 521.0851 -11309.1606 87.8907 -11830.2456 -11307.9326 87.8907 -726.7265 -679.4246 28870.6242 -726.7265 -679.4246
ENERGY: 400000 1.4294 2.6633 0.2568 0.0000 -14138.3825 2443.2925 0.0000 0.0000 708.5841 -10982.1564 119.5159 -11690.7405 -10980.0041 120.0642 623.7387 696.8784 29024.5256 3.6184 3.7084
TCL: Running 100000 steps at 150 kelvin.
TCL: Setting parameter langevinTemp to 150
TCL: Running for 100000 steps
ETITLE: TS BOND ANGLE DIHED IMPRP ELECT VDW BOUNDARY MISC KINETIC TOTAL TEMP POTENTIAL TOTAL3 TEMPAVG PRESSURE GPRESSURE VOLUME PRESSAVG GPRESSAVG
ENERGY: 400000 1.4294 2.6633 0.2568 0.0000 -14138.3825 2443.2925 0.0000 0.0000 708.2356 -10982.5049 119.4571 -11690.7405 -10981.0366 119.4571 645.8141 696.9025 29024.5256 645.8141 696.9025
ENERGY: 500000 1.5615 2.8057 1.2787 0.0000 -13732.3808 2194.3383 0.0000 0.0000 884.8293 -10647.5673 149.2430 -11532.3966 -10645.6110 149.8067 -853.5750 -843.2520 29315.9322 4.1400 4.0671
TCL: Running 100000 steps at 180 kelvin.
TCL: Setting parameter langevinTemp to 180
TCL: Running for 100000 steps
ETITLE: TS BOND ANGLE DIHED IMPRP ELECT VDW BOUNDARY MISC KINETIC TOTAL TEMP POTENTIAL TOTAL3 TEMPAVG PRESSURE GPRESSURE VOLUME PRESSAVG GPRESSAVG
ENERGY: 500000 1.5615 2.8057 1.2787 0.0000 -13732.3808 2194.3383 0.0000 0.0000 884.3857 -10648.0109 149.1681 -11532.3966 -10646.0240 149.1681 -894.1241 -844.1508 29315.9322 -894.1241 -844.1508
ENERGY: 600000 1.3193 3.4066 0.5778 0.0000 -13340.3138 2128.3461 0.0000 0.0000 1046.0424 -10160.6215 176.4346 -11206.6640 -10158.7012 179.8329 0.0492 108.9361 28939.7373 4.0853 4.0595
TCL: Running 100000 steps at 210 kelvin.
TCL: Setting parameter langevinTemp to 210
TCL: Running for 100000 steps
ETITLE: TS BOND ANGLE DIHED IMPRP ELECT VDW BOUNDARY MISC KINETIC TOTAL TEMP POTENTIAL TOTAL3 TEMPAVG PRESSURE GPRESSURE VOLUME PRESSAVG GPRESSAVG
ENERGY: 600000 1.3193 3.4066 0.5778 0.0000 -13340.3138 2128.3461 0.0000 0.0000 1045.5083 -10161.1557 176.3445 -11206.6640 -10159.2132 176.3445 32.7986 108.4290 28939.7373 32.7986 108.4290
ENERGY: 700000 3.1179 1.9056 0.5656 0.0000 -12605.6197 1852.0339 0.0000 0.0000 1232.4167 -9515.5799 207.8701 -10747.9967 -9513.1324 209.7383 -896.4239 -757.9381 29317.9398 2.8361 2.7308
TCL: Running 100000 steps at 240 kelvin.
TCL: Setting parameter langevinTemp to 240
TCL: Running for 100000 steps
ETITLE: TS BOND ANGLE DIHED IMPRP ELECT VDW BOUNDARY MISC KINETIC TOTAL TEMP POTENTIAL TOTAL3 TEMPAVG PRESSURE GPRESSURE VOLUME PRESSAVG GPRESSAVG
ENERGY: 700000 3.1179 1.9056 0.5656 0.0000 -12605.6197 1852.0339 0.0000 0.0000 1231.7718 -9516.2249 207.7613 -10747.9967 -9514.2751 207.7613 -830.7666 -759.4262 29317.9398 -830.7666 -759.4262
ENERGY: 800000 2.5644 4.3611 0.4173 0.0000 -11910.6194 1683.1173 0.0000 0.0000 1418.6390 -8801.5203 239.2799 -10220.1593 -8798.3527 240.4801 -327.3486 -199.6906 29520.5682 3.5034 3.5062
TCL: Running 100000 steps at 270 kelvin.
TCL: Setting parameter langevinTemp to 270
TCL: Running for 100000 steps
ETITLE: TS BOND ANGLE DIHED IMPRP ELECT VDW BOUNDARY MISC KINETIC TOTAL TEMP POTENTIAL TOTAL3 TEMPAVG PRESSURE GPRESSURE VOLUME PRESSAVG GPRESSAVG
ENERGY: 800000 2.5644 4.3611 0.4173 0.0000 -11910.6194 1683.1173 0.0000 0.0000 1417.9143 -8802.2451 239.1577 -10220.1593 -8799.8261 239.1577 -313.4115 -199.3163 29520.5682 -313.4115 -199.3163
ENERGY: 900000 1.8158 2.1104 2.0957 0.0000 -11523.9885 1631.1194 0.0000 0.0000 1631.8877 -8254.9594 275.2483 -9886.8471 -8251.1129 269.3534 437.6314 496.3826 29677.1278 3.8018 3.9393
TCL: Running 1000000 steps at 300 kelvin.
TCL: Setting parameter langevinTemp to 300
TCL: Running for 1000000 steps
ETITLE: TS BOND ANGLE DIHED IMPRP ELECT VDW BOUNDARY MISC KINETIC TOTAL TEMP POTENTIAL TOTAL3 TEMPAVG PRESSURE GPRESSURE VOLUME PRESSAVG GPRESSAVG
ENERGY: 900000 1.8158 2.1104 2.0957 0.0000 -11523.9885 1631.1194 0.0000 0.0000 1631.0980 -8255.7491 275.1151 -9886.8471 -8253.4393 275.1151 410.7489 497.2437 29677.1278 410.7489 497.2437
ENERGY: 1100000 1.4354 4.9816 1.4687 0.0000 -10808.0415 1355.1316 0.0000 0.0000 1795.0743 -7649.9499 302.7727 -9445.0242 -7648.7735 300.4635 -669.2500 -556.0946 30565.4810 2.8980 2.9377
ENERGY: 1300000 1.0627 5.2263 1.3051 0.0000 -10893.7325 1427.4728 0.0000 0.0000 1712.2355 -7746.4301 288.8004 -9458.6657 -7742.4987 299.6228 -123.5938 -81.7134 30572.9226 2.7368 2.7442
ENERGY: 1500000 0.3830 5.9131 1.1691 0.0000 -10965.2572 1489.9422 0.0000 0.0000 1761.5480 -7706.3018 297.1179 -9467.8498 -7701.4931 300.8073 34.9801 197.3068 30595.7321 4.1183 4.0751
ENERGY: 1700000 0.5491 9.5761 0.9821 0.0000 -10848.5370 1405.4580 0.0000 0.0000 1784.1674 -7647.8042 300.9331 -9431.9716 -7644.0825 299.9660 -230.4471 -109.0916 30378.7327 4.0335 4.0382
ENERGY: 1900000 1.6595 5.8779 0.5269 0.0000 -10924.7103 1433.2195 0.0000 0.0000 1737.1198 -7746.3067 292.9976 -9483.4265 -7742.8433 300.1301 -233.3636 -166.4449 30747.6900 1.8612 1.8914
TCL: Exiting due to exit command.
