Info: SIMULATION PARAMETERS:
Info: TIMESTEP               2
Info: NUMBER OF STEPS        0
Info: STEPS PER CYCLE        10
Info: PERIODIC CELL BASIS 1  34.986 0 0
Info: PERIODIC CELL BASIS 2  0 34.1 0
Info: PERIODIC CELL BASIS 3  0 0 37.195
Info: PERIODIC CELL CENTER   0 0 0
Info: WRAPPING WATERS AROUND PERIODIC BOUNDARIES ON OUTPUT.
Info: WRAPPING ALL CLUSTERS AROUND PERIODIC BOUNDARIES ON OUTPUT.
Info: FIRST LDB TIMESTEP     50
Info: LAST LDB TIMESTEP     -1
Info: HOM BACKGROUND SCALING 1
Info: PME BACKGROUND SCALING 1
Info: MIN ATOMS PER PATCH    40
Info: EMPTY PATCH LOAD       40 ATOMS
Info: INITIAL TEMPERATURE    300
Info: CENTER OF MASS MOVING INITIALLY? NO
Info: DIELECTRIC             1
Info: EXCLUDE                SCALED ONE-FOUR
Info: 1-4 ELECTROSTATICS SCALED BY 0.833333
Info: MODIFIED 1-4 VDW PARAMETERS WILL BE USED
Info: DCD FILENAME           mobley_6896128_equil.dcd
Info: DCD FREQUENCY          100000
Info: DCD FIRST STEP         100000
Info: DCD FILE WILL CONTAIN UNIT CELL DATA
Info: XST FILENAME           mobley_6896128_equil.xst
Info: XST FREQUENCY          100000
Info: NO VELOCITY DCD OUTPUT
Info: NO FORCE DCD OUTPUT
Info: OUTPUT FILENAME        mobley_6896128_equil
Info: BINARY OUTPUT FILES WILL BE USED
Info: RESTART FILENAME       mobley_6896128_equil.restart
Info: RESTART FREQUENCY      100000
Info: BINARY RESTART FILES WILL BE USED
Info: CUTOFF                 9
Info: PAIRLIST DISTANCE      11
Info: PAIRLIST SHRINK RATE   0.01
Info: PAIRLIST GROW RATE     0.01
Info: PAIRLIST TRIGGER       0.3
Info: PAIRLISTS PER CYCLE    2
Info: PAIRLISTS ENABLED
Info: MARGIN                 8
Info: HYDROGEN GROUP CUTOFF  2.5
Info: PATCH DIMENSION        21.5
Info: ENERGY OUTPUT STEPS    100000
Info: ENERGY EVALUATION STEPS    100000
Info: OUTPUT ENERGY PRECISION 4
Info: CROSSTERM ENERGY INCLUDED IN DIHEDRAL
Info: TIMING OUTPUT STEPS    1000000
Info: PRESSURE OUTPUT STEPS  100000
Info: LANGEVIN DYNAMICS ACTIVE
Info: LANGEVIN TEMPERATURE   30
Info: LANGEVIN USING BBK INTEGRATOR
Info: LANGEVIN DAMPING COEFFICIENT IS 1 INVERSE PS
Info: LANGEVIN DYNAMICS APPLIED TO HYDROGENS
Info: LANGEVIN PISTON PRESSURE CONTROL ACTIVE
Info:        TARGET PRESSURE IS 1.01325 BAR
Info:     OSCILLATION PERIOD IS 50 FS
Info:             DECAY TIME IS 25 FS
Info:     PISTON TEMPERATURE IS 300 K
Info:       PRESSURE CONTROL IS GROUP-BASED
Info:    INITIAL STRAIN RATE IS 0 0 0
Info:       CELL FLUCTUATION IS ISOTROPIC
Info: PARTICLE MESH EWALD (PME) ACTIVE
Info: PME TOLERANCE               1e-06
Info: PME EWALD COEFFICIENT       0.348832
Info: PME INTERPOLATION ORDER     4
Info: PME GRID DIMENSIONS         36 36 40
Info: PME MAXIMUM GRID SPACING    1
Info: FULL ELECTROSTATIC EVALUATION FREQUENCY      2
Info: USING VERLET I (r-RESPA) MTS SCHEME.
Info: C1 SPLITTING OF LONG RANGE ELECTROSTATICS
Info: PLACING ATOMS IN PATCHES BY HYDROGEN GROUPS
Info: RIGID BONDS TO HYDROGEN : ALL
Info:         ERROR TOLERANCE : 1e-08
Info:          MAX ITERATIONS : 100
Info: RIGID WATER USING SETTLE ALGORITHM
Info: RANDOM NUMBER SEED     1743256890
Info: USE HYDROGEN BONDS?    NO
Info: Using AMBER format force field!
Info: AMBER PARM FILE        mobley_6896128.prmtop
Info: COORDINATE PDB         mobley_6896128.pdb
Info: Exclusions will be read from PARM file!
Info: SCNB (VDW SCALING)     2
Info: USING ARITHMETIC MEAN TO COMBINE L-J SIGMA PARAMETERS
Info: BINARY COORDINATES     mobley_6896128_min.coor
Info: SUMMARY OF PARAMETERS:
Info: 4 BONDS
Info: 3 ANGLES
Info:   3 HARMONIC
Info:   0 COSINE-BASED
Info: 5 DIHEDRAL
Info: 0 IMPROPER
Info: 0 CROSSTERM
Info: 0 VDW
Info: 10 VDW_PAIRS
Info: 0 NBTHOLE_PAIRS
Info: STRUCTURE SUMMARY:
Info: 2960 ATOMS
Info: 2959 BONDS
Info: 48 ANGLES
Info: 75 DIHEDRALS
Info: 0 IMPROPERS
Info: 0 CROSSTERMS
Info: 3070 EXCLUSIONS
Info: 2952 RIGID BONDS
Info: 5928 DEGREES OF FREEDOM
Info: 986 HYDROGEN GROUPS
Info: 4 ATOMS IN LARGEST HYDROGEN GROUP
Info: 986 MIGRATION GROUPS
Info: 4 ATOMS IN LARGEST MIGRATION GROUP
Info: TOTAL MASS = 17733.9 amu
Info: TOTAL CHARGE = 0.000100002 e
Info: MASS DENSITY = 0.663635 g/cm^3
Info: ATOM DENSITY = 0.066705 atoms/A^3
Info: ADDED 0 IMPLICIT EXCLUSIONS
Info: NONBONDED TABLE R-SQUARED SPACING: 0.0625
Info: NONBONDED TABLE SIZE: 705 POINTS
Info: REMOVING COM VELOCITY -0.0214808 0.0438922 -0.0166895
TCL: Running for 100000 steps
ETITLE: TS BOND ANGLE DIHED IMPRP ELECT VDW BOUNDARY MISC KINETIC TOTAL TEMP POTENTIAL TOTAL3 TEMPAVG PRESSURE GPRESSURE VOLUME PRESSAVG GPRESSAVG
ENERGY: 0 0.3081 1.0265 2.8599 0.0000 -13615.2379 2407.4192 0.0000 0.0000 1836.5705 -9367.0536 311.8098 -11203.6241 -9366.7015 311.8098 732.9087 768.4855 44374.4756 732.9087 768.4855
ENERGY: 100000 0.8151 2.2849 3.1987 0.0000 -14086.0713 2407.2918 0.0000 0.0000 172.0449 -11500.4358 29.2095 -11672.4807 -11499.9888 30.9636 -507.3055 -429.4066 29561.4879 3.2377 3.2872
TCL: Running 100000 steps at 60 kelvin.
TCL: Setting parameter langevinTemp to 60
TCL: Running for 100000 steps
ETITLE: TS BOND ANGLE DIHED IMPRP ELECT VDW BOUNDARY MISC KINETIC TOTAL TEMP POTENTIAL TOTAL3 TEMPAVG PRESSURE GPRESSURE VOLUME PRESSAVG GPRESSAVG
ENERGY: 100000 0.8151 2.2849 3.1987 0.0000 -14086.0713 2407.2918 0.0000 0.0000 171.9535 -11500.5272 29.1940 -11672.4807 -11500.1233 29.1940 -482.3170 -429.3819 29561.4879 -482.3170 -429.3819
ENERGY: 200000 0.8597 2.5844 3.1634 0.0000 -14097.9967 2421.9258 0.0000 0.0000 360.9131 -11308.5504 61.2752 -11669.4634 -11307.4207 60.1829 -101.8978 -33.4420 29088.1470 4.3357 4.4141
TCL: Running 100000 steps at 90 kelvin.
TCL: Setting parameter langevinTemp to 90
TCL: Running for 100000 steps
ETITLE: TS BOND ANGLE DIHED IMPRP ELECT VDW BOUNDARY MISC KINETIC TOTAL TEMP POTENTIAL TOTAL3 TEMPAVG PRESSURE GPRESSURE VOLUME PRESSAVG GPRESSAVG
ENERGY: 200000 0.8597 2.5844 3.1634 0.0000 -14097.9967 2421.9258 0.0000 0.0000 360.7387 -11308.7247 61.2456 -11669.4635 -11307.9285 61.2456 -79.5216 -33.1519 29088.1470 -79.5216 -33.1519
ENERGY: 300000 0.4668 4.3765 3.5449 0.0000 -13962.4668 2428.4898 0.0000 0.0000 523.4146 -11002.1741 88.8645 -11525.5888 -11000.9027 90.1083 634.1564 675.4283 28804.7045 3.2227 3.2326
TCL: Running 100000 steps at 120 kelvin.
TCL: Setting parameter langevinTemp to 120
TCL: Running for 100000 steps
ETITLE: TS BOND ANGLE DIHED IMPRP ELECT VDW BOUNDARY MISC KINETIC TOTAL TEMP POTENTIAL TOTAL3 TEMPAVG PRESSURE GPRESSURE VOLUME PRESSAVG GPRESSAVG
ENERGY: 300000 0.4668 4.3765 3.5449 0.0000 -13962.4668 2428.4898 0.0000 0.0000 523.1659 -11002.4229 88.8222 -11525.5888 -11001.4671 88.8222 627.7262 675.1309 28804.7045 627.7262 675.1309
ENERGY: 400000 1.4112 3.6579 4.8199 0.0000 -13966.5602 2542.4920 0.0000 0.0000 712.7762 -10701.4030 121.0139 -11414.1792 -10699.1688 120.1031 2013.0175 2050.9143 28327.6311 4.7563 4.7367
TCL: Running 100000 steps at 150 kelvin.
TCL: Setting parameter langevinTemp to 150
TCL: Running for 100000 steps
ETITLE: TS BOND ANGLE DIHED IMPRP ELECT VDW BOUNDARY MISC KINETIC TOTAL TEMP POTENTIAL TOTAL3 TEMPAVG PRESSURE GPRESSURE VOLUME PRESSAVG GPRESSAVG
ENERGY: 400000 1.4112 3.6579 4.8199 0.0000 -13966.5602 2542.4920 0.0000 0.0000 712.4196 -10701.7596 120.9534 -11414.1792 -10700.3151 120.9534 1995.5391 2051.8190 28327.6311 1995.5391 2051.8190
ENERGY: 500000 2.6730 8.6138 3.0079 0.0000 -13661.2367 2355.6846 0.0000 0.0000 905.8933 -10385.3641 153.8010 -11291.2574 -10383.3322 149.9496 686.2538 748.4898 28784.1249 2.9134 3.0868
TCL: Running 100000 steps at 180 kelvin.
TCL: Setting parameter langevinTemp to 180
TCL: Running for 100000 steps
ETITLE: TS BOND ANGLE DIHED IMPRP ELECT VDW BOUNDARY MISC KINETIC TOTAL TEMP POTENTIAL TOTAL3 TEMPAVG PRESSURE GPRESSURE VOLUME PRESSAVG GPRESSAVG
ENERGY: 500000 2.6730 8.6138 3.0079 0.0000 -13661.2367 2355.6846 0.0000 0.0000 905.4613 -10385.7961 153.7277 -11291.2574 -10384.0745 153.7277 699.7383 748.3891 28784.1249 699.7383 748.3891
ENERGY: 600000 0.5074 7.8441 4.5097 0.0000 -13060.6783 2092.6693 0.0000 0.0000 1029.0814 -9926.0663 174.7157 -10955.1477 -9923.6597 179.8524 -274.8913 -246.9915 29187.2359 3.3949 3.3903
TCL: Running 100000 steps at 210 kelvin.
TCL: Setting parameter langevinTemp to 210
TCL: Running for 100000 steps
ETITLE: TS BOND ANGLE DIHED IMPRP ELECT VDW BOUNDARY MISC KINETIC TOTAL TEMP POTENTIAL TOTAL3 TEMPAVG PRESSURE GPRESSURE VOLUME PRESSAVG GPRESSAVG
ENERGY: 600000 0.5074 7.8441 4.5097 0.0000 -13060.6783 2092.6693 0.0000 0.0000 1028.5520 -9926.5958 174.6258 -10955.1477 -9924.7017 174.6258 -305.2752 -246.3171 29187.2359 -305.2752 -246.3171
ENERGY: 700000 1.2907 7.4408 4.1895 0.0000 -12497.2282 1919.0170 0.0000 0.0000 1227.7956 -9337.4947 208.4531 -10565.2903 -9334.7321 209.6137 -59.6912 18.3447 28981.9560 4.6121 4.6350
TCL: Running 100000 steps at 240 kelvin.
TCL: Setting parameter langevinTemp to 240
TCL: Running for 100000 steps
ETITLE: TS BOND ANGLE DIHED IMPRP ELECT VDW BOUNDARY MISC KINETIC TOTAL TEMP POTENTIAL TOTAL3 TEMPAVG PRESSURE GPRESSURE VOLUME PRESSAVG GPRESSAVG
ENERGY: 700000 1.2907 7.4408 4.1895 0.0000 -12497.2282 1919.0170 0.0000 0.0000 1227.1957 -9338.0946 208.3512 -10565.2903 -9336.2100 208.3512 -48.1018 18.2873 28981.9560 -48.1018 18.2873
ENERGY: 800000 0.4485 10.5620 5.8787 0.0000 -11702.8786 1659.8443 0.0000 0.0000 1377.2764 -8648.8689 233.8316 -10026.1453 -8644.6400 239.8439 -416.3933 -265.8496 29193.4961 2.9598 3.0394
TCL: Running 100000 steps at 270 kelvin.
TCL: Setting parameter langevinTemp to 270
TCL: Running for 100000 steps
ETITLE: TS BOND ANGLE DIHED IMPRP ELECT VDW BOUNDARY MISC KINETIC TOTAL TEMP POTENTIAL TOTAL3 TEMPAVG PRESSURE GPRESSURE VOLUME PRESSAVG GPRESSAVG
ENERGY: 800000 0.4485 10.5620 5.8787 0.0000 -11702.8786 1659.8443 0.0000 0.0000 1376.5340 -8649.6113 233.7056 -10026.1453 -8647.3718 233.7056 -361.6230 -265.2792 29193.4961 -361.6230 -265.2792
ENERGY: 900000 1.5422 10.5680 6.2062 0.0000 -11151.2004 1567.3803 0.0000 0.0000 1598.3960 -7967.1077 271.3730 -9565.5038 -7963.8090 269.8478 60.5933 124.9635 30079.0722 4.3521 4.2218
TCL: Running 1000000 steps at 300 kelvin.
TCL: Setting parameter langevinTemp to 300
TCL: Running for 1000000 steps
ETITLE: TS BOND ANGLE DIHED IMPRP ELECT VDW BOUNDARY MISC KINETIC TOTAL TEMP POTENTIAL TOTAL3 TEMPAVG PRESSURE GPRESSURE VOLUME PRESSAVG GPRESSAVG
ENERGY: 900000 1.5422 10.5680 6.2062 0.0000 -11151.2004 1567.3803 0.0000 0.0000 1597.5963 -7967.9075 271.2372 -9565.5038 -7965.4737 271.2372 37.6264 123.7181 30079.0722 37.6264 123.7181
ENERGY: 1100000 1.7052 12.3433 5.6423 0.0000 -10634.4770 1418.7567 0.0000 0.0000 1732.7221 -7463.3074 294.1786 -9196.0295 -7461.5170 299.7610 -185.2472 -58.2641 30764.3269 3.4402 3.5210
ENERGY: 1300000 1.6412 13.2147 5.1309 0.0000 -10699.1259 1424.0712 0.0000 0.0000 1798.2581 -7456.8098 305.3052 -9255.0679 -7454.2763 300.3049 -190.8476 -113.0508 30650.2335 1.6492 1.7211
ENERGY: 1500000 2.4827 17.0799 3.8818 0.0000 -10610.2752 1410.5305 0.0000 0.0000 1758.1025 -7418.1978 298.4877 -9176.3003 -7416.3687 300.5824 -200.6936 -144.0374 30765.4251 3.1619 3.3291
ENERGY: 1700000 3.5493 8.5880 4.8846 0.0000 -10796.6943 1484.4489 0.0000 0.0000 1710.7024 -7584.5212 290.4402 -9295.2236 -7583.2463 299.6929 477.1864 534.2603 29957.4440 3.6713 3.7106
ENERGY: 1900000 4.4790 12.0535 5.5294 0.0000 -10749.4416 1451.4597 0.0000 0.0000 1793.0405 -7482.8796 304.4194 -9275.9201 -7478.0515 299.6586 -222.0954 -96.4776 30410.7824 2.4294 2.4198
TCL: Exiting due to exit command.
