Info: SIMULATION PARAMETERS:
Info: TIMESTEP               2
Info: NUMBER OF STEPS        0
Info: STEPS PER CYCLE        10
Info: PERIODIC CELL BASIS 1  34.986 0 0
Info: PERIODIC CELL BASIS 2  0 35.411 0
Info: PERIODIC CELL BASIS 3  0 0 35.644
Info: PERIODIC CELL CENTER   0 0 0
Info: WRAPPING WATERS AROUND PERIODIC BOUNDARIES ON OUTPUT.
Info: WRAPPING ALL CLUSTERS AROUND PERIODIC BOUNDARIES ON OUTPUT.
Info: FIRST LDB TIMESTEP     50
Info: LAST LDB TIMESTEP     -1
Info: HOM BACKGROUND SCALING 1
Info: PME BACKGROUND SCALING 1
Info: MIN ATOMS PER PATCH    40
Info: EMPTY PATCH LOAD       40 ATOMS
Info: INITIAL TEMPERATURE    300
Info: CENTER OF MASS MOVING INITIALLY? NO
Info: DIELECTRIC             1
Info: EXCLUDE                SCALED ONE-FOUR
Info: 1-4 ELECTROSTATICS SCALED BY 0.833333
Info: MODIFIED 1-4 VDW PARAMETERS WILL BE USED
Info: DCD FILENAME           mobley_2143011_equil.dcd
Info: DCD FREQUENCY          100000
Info: DCD FIRST STEP         100000
Info: DCD FILE WILL CONTAIN UNIT CELL DATA
Info: XST FILENAME           mobley_2143011_equil.xst
Info: XST FREQUENCY          100000
Info: NO VELOCITY DCD OUTPUT
Info: NO FORCE DCD OUTPUT
Info: OUTPUT FILENAME        mobley_2143011_equil
Info: BINARY OUTPUT FILES WILL BE USED
Info: RESTART FILENAME       mobley_2143011_equil.restart
Info: RESTART FREQUENCY      100000
Info: BINARY RESTART FILES WILL BE USED
Info: CUTOFF                 9
Info: PAIRLIST DISTANCE      11
Info: PAIRLIST SHRINK RATE   0.01
Info: PAIRLIST GROW RATE     0.01
Info: PAIRLIST TRIGGER       0.3
Info: PAIRLISTS PER CYCLE    2
Info: PAIRLISTS ENABLED
Info: MARGIN                 8
Info: HYDROGEN GROUP CUTOFF  2.5
Info: PATCH DIMENSION        21.5
Info: ENERGY OUTPUT STEPS    100000
Info: ENERGY EVALUATION STEPS    100000
Info: OUTPUT ENERGY PRECISION 4
Info: CROSSTERM ENERGY INCLUDED IN DIHEDRAL
Info: TIMING OUTPUT STEPS    1000000
Info: PRESSURE OUTPUT STEPS  100000
Info: LANGEVIN DYNAMICS ACTIVE
Info: LANGEVIN TEMPERATURE   30
Info: LANGEVIN USING BBK INTEGRATOR
Info: LANGEVIN DAMPING COEFFICIENT IS 1 INVERSE PS
Info: LANGEVIN DYNAMICS APPLIED TO HYDROGENS
Info: LANGEVIN PISTON PRESSURE CONTROL ACTIVE
Info:        TARGET PRESSURE IS 1.01325 BAR
Info:     OSCILLATION PERIOD IS 50 FS
Info:             DECAY TIME IS 25 FS
Info:     PISTON TEMPERATURE IS 300 K
Info:       PRESSURE CONTROL IS GROUP-BASED
Info:    INITIAL STRAIN RATE IS 0 0 0
Info:       CELL FLUCTUATION IS ISOTROPIC
Info: PARTICLE MESH EWALD (PME) ACTIVE
Info: PME TOLERANCE               1e-06
Info: PME EWALD COEFFICIENT       0.348832
Info: PME INTERPOLATION ORDER     4
Info: PME GRID DIMENSIONS         36 36 36
Info: PME MAXIMUM GRID SPACING    1
Info: FULL ELECTROSTATIC EVALUATION FREQUENCY      2
Info: USING VERLET I (r-RESPA) MTS SCHEME.
Info: C1 SPLITTING OF LONG RANGE ELECTROSTATICS
Info: PLACING ATOMS IN PATCHES BY HYDROGEN GROUPS
Info: RIGID BONDS TO HYDROGEN : ALL
Info:         ERROR TOLERANCE : 1e-08
Info:          MAX ITERATIONS : 100
Info: RIGID WATER USING SETTLE ALGORITHM
Info: RANDOM NUMBER SEED     1743228267
Info: USE HYDROGEN BONDS?    NO
Info: Using AMBER format force field!
Info: AMBER PARM FILE        mobley_2143011.prmtop
Info: COORDINATE PDB         mobley_2143011.pdb
Info: Exclusions will be read from PARM file!
Info: SCNB (VDW SCALING)     2
Info: USING ARITHMETIC MEAN TO COMBINE L-J SIGMA PARAMETERS
Info: BINARY COORDINATES     mobley_2143011_min.coor
Info: SUMMARY OF PARAMETERS:
Info: 7 BONDS
Info: 9 ANGLES
Info:   9 HARMONIC
Info:   0 COSINE-BASED
Info: 8 DIHEDRAL
Info: 0 IMPROPER
Info: 0 CROSSTERM
Info: 0 VDW
Info: 21 VDW_PAIRS
Info: 0 NBTHOLE_PAIRS
Info: STRUCTURE SUMMARY:
Info: 2955 ATOMS
Info: 2954 BONDS
Info: 24 ANGLES
Info: 32 DIHEDRALS
Info: 0 IMPROPERS
Info: 0 CROSSTERMS
Info: 3006 EXCLUSIONS
Info: 2950 RIGID BONDS
Info: 5915 DEGREES OF FREEDOM
Info: 985 HYDROGEN GROUPS
Info: 4 ATOMS IN LARGEST HYDROGEN GROUP
Info: 985 MIGRATION GROUPS
Info: 4 ATOMS IN LARGEST MIGRATION GROUP
Info: TOTAL MASS = 17725.8 amu
Info: TOTAL CHARGE = 0.000199992 e
Info: MASS DENSITY = 0.666571 g/cm^3
Info: ATOM DENSITY = 0.0669173 atoms/A^3
Info: ADDED 0 IMPLICIT EXCLUSIONS
Info: NONBONDED TABLE R-SQUARED SPACING: 0.0625
Info: NONBONDED TABLE SIZE: 705 POINTS
Info: REMOVING COM VELOCITY -0.2288 -0.140053 0.0727841
TCL: Running for 100000 steps
ETITLE: TS BOND ANGLE DIHED IMPRP ELECT VDW BOUNDARY MISC KINETIC TOTAL TEMP POTENTIAL TOTAL3 TEMPAVG PRESSURE GPRESSURE VOLUME PRESSAVG GPRESSAVG
ENERGY: 0 0.0287 0.3380 2.4412 0.0000 -13660.1814 2438.3499 0.0000 0.0000 1770.8784 -9448.1451 301.3175 -11219.0235 -9447.7786 301.3175 723.2763 760.1068 44158.9683 723.2763 760.1068
ENERGY: 100000 0.0108 0.6693 2.5180 0.0000 -14208.1152 2463.2791 0.0000 0.0000 180.7556 -11560.8825 30.7558 -11741.6380 -11560.4651 30.9781 185.4342 237.6829 28283.2399 3.9839 3.9465
TCL: Running 100000 steps at 60 kelvin.
TCL: Setting parameter langevinTemp to 60
TCL: Running for 100000 steps
ETITLE: TS BOND ANGLE DIHED IMPRP ELECT VDW BOUNDARY MISC KINETIC TOTAL TEMP POTENTIAL TOTAL3 TEMPAVG PRESSURE GPRESSURE VOLUME PRESSAVG GPRESSAVG
ENERGY: 100000 0.0108 0.6693 2.5180 0.0000 -14208.1152 2463.2791 0.0000 0.0000 180.6639 -11560.9741 30.7402 -11741.6380 -11560.6243 30.7402 192.1978 237.7523 28283.2399 192.1978 237.7523
ENERGY: 200000 0.2537 1.1184 2.7212 0.0000 -14125.5406 2436.8236 0.0000 0.0000 357.8195 -11326.8042 60.8835 -11684.6237 -11325.9084 59.9036 91.3648 128.8611 28371.4871 4.0756 4.0402
TCL: Running 100000 steps at 90 kelvin.
TCL: Setting parameter langevinTemp to 90
TCL: Running for 100000 steps
ETITLE: TS BOND ANGLE DIHED IMPRP ELECT VDW BOUNDARY MISC KINETIC TOTAL TEMP POTENTIAL TOTAL3 TEMPAVG PRESSURE GPRESSURE VOLUME PRESSAVG GPRESSAVG
ENERGY: 200000 0.2537 1.1184 2.7212 0.0000 -14125.5406 2436.8236 0.0000 0.0000 357.6449 -11326.9789 60.8538 -11684.6237 -11326.1980 60.8538 83.9658 128.6875 28371.4871 83.9658 128.6875
ENERGY: 300000 0.2448 1.4692 0.7880 0.0000 -14033.2623 2422.6654 0.0000 0.0000 519.9418 -11088.1531 88.4689 -11608.0949 -11087.0977 89.8333 334.9970 364.0563 28519.7660 4.0319 4.1388
TCL: Running 100000 steps at 120 kelvin.
TCL: Setting parameter langevinTemp to 120
TCL: Running for 100000 steps
ETITLE: TS BOND ANGLE DIHED IMPRP ELECT VDW BOUNDARY MISC KINETIC TOTAL TEMP POTENTIAL TOTAL3 TEMPAVG PRESSURE GPRESSURE VOLUME PRESSAVG GPRESSAVG
ENERGY: 300000 0.2448 1.4692 0.7880 0.0000 -14033.2623 2422.6654 0.0000 0.0000 519.6795 -11088.4154 88.4242 -11608.0949 -11087.4588 88.4242 321.6481 363.6336 28519.7660 321.6481 363.6336
ENERGY: 400000 0.5918 1.6138 1.5789 0.0000 -13841.8135 2371.0954 0.0000 0.0000 735.5518 -10731.3817 125.1552 -11466.9336 -10729.5072 120.1757 141.3489 276.1996 28596.5771 3.6717 3.6260
TCL: Running 100000 steps at 150 kelvin.
TCL: Setting parameter langevinTemp to 150
TCL: Running for 100000 steps
ETITLE: TS BOND ANGLE DIHED IMPRP ELECT VDW BOUNDARY MISC KINETIC TOTAL TEMP POTENTIAL TOTAL3 TEMPAVG PRESSURE GPRESSURE VOLUME PRESSAVG GPRESSAVG
ENERGY: 400000 0.5918 1.6138 1.5789 0.0000 -13841.8135 2371.0954 0.0000 0.0000 735.1915 -10731.7421 125.0939 -11466.9336 -10730.3929 125.0939 225.8472 276.2099 28596.5771 225.8472 276.2099
ENERGY: 500000 0.2052 2.6351 1.4909 0.0000 -13644.0878 2330.6914 0.0000 0.0000 883.0755 -10425.9897 150.2566 -11309.0652 -10424.9030 150.2632 344.7953 444.1844 29037.1961 4.3441 4.4566
TCL: Running 100000 steps at 180 kelvin.
TCL: Setting parameter langevinTemp to 180
TCL: Running for 100000 steps
ETITLE: TS BOND ANGLE DIHED IMPRP ELECT VDW BOUNDARY MISC KINETIC TOTAL TEMP POTENTIAL TOTAL3 TEMPAVG PRESSURE GPRESSURE VOLUME PRESSAVG GPRESSAVG
ENERGY: 500000 0.2052 2.6351 1.4909 0.0000 -13644.0878 2330.6914 0.0000 0.0000 882.6135 -10426.4517 150.1780 -11309.0652 -10424.3004 150.1780 397.6983 443.2913 29037.1961 397.6983 443.2913
ENERGY: 600000 0.0151 6.2974 1.4645 0.0000 -13189.2035 2204.6758 0.0000 0.0000 1079.0654 -9897.6854 183.6045 -10976.7508 -9895.2954 179.9409 752.8780 814.4778 28884.0112 4.5558 4.6145
TCL: Running 100000 steps at 210 kelvin.
TCL: Setting parameter langevinTemp to 210
TCL: Running for 100000 steps
ETITLE: TS BOND ANGLE DIHED IMPRP ELECT VDW BOUNDARY MISC KINETIC TOTAL TEMP POTENTIAL TOTAL3 TEMPAVG PRESSURE GPRESSURE VOLUME PRESSAVG GPRESSAVG
ENERGY: 600000 0.0151 6.2974 1.4645 0.0000 -13189.2035 2204.6758 0.0000 0.0000 1078.5345 -9898.2163 183.5142 -10976.7508 -9896.1852 183.5142 742.9169 814.1565 28884.0112 742.9169 814.1565
ENERGY: 700000 0.4022 4.3100 4.2618 0.0000 -12449.0066 1964.9561 0.0000 0.0000 1234.3854 -9240.6912 210.0325 -10475.0766 -9238.5697 209.9730 631.2025 712.8882 28694.4328 3.7707 3.6263
TCL: Running 100000 steps at 240 kelvin.
TCL: Setting parameter langevinTemp to 240
TCL: Running for 100000 steps
ETITLE: TS BOND ANGLE DIHED IMPRP ELECT VDW BOUNDARY MISC KINETIC TOTAL TEMP POTENTIAL TOTAL3 TEMPAVG PRESSURE GPRESSURE VOLUME PRESSAVG GPRESSAVG
ENERGY: 700000 0.4022 4.3100 4.2618 0.0000 -12449.0066 1964.9561 0.0000 0.0000 1233.7647 -9241.3120 209.9268 -10475.0766 -9239.3474 209.9268 648.2337 712.1036 28694.4328 648.2337 712.1036
ENERGY: 800000 2.9947 3.7547 1.7389 0.0000 -11824.8388 1706.4347 0.0000 0.0000 1433.1228 -8676.7929 243.8479 -10109.9157 -8672.7451 239.5459 -310.0720 -197.9918 29048.9364 3.9958 4.1739
TCL: Running 100000 steps at 270 kelvin.
TCL: Setting parameter langevinTemp to 270
TCL: Running for 100000 steps
ETITLE: TS BOND ANGLE DIHED IMPRP ELECT VDW BOUNDARY MISC KINETIC TOTAL TEMP POTENTIAL TOTAL3 TEMPAVG PRESSURE GPRESSURE VOLUME PRESSAVG GPRESSAVG
ENERGY: 800000 2.9947 3.7547 1.7389 0.0000 -11824.8388 1706.4347 0.0000 0.0000 1432.4450 -8677.4707 243.7326 -10109.9157 -8675.3212 243.7326 -270.2382 -198.1037 29048.9364 -270.2382 -198.1037
ENERGY: 900000 2.0153 5.1626 1.5750 0.0000 -11168.7260 1518.0306 0.0000 0.0000 1667.3094 -7974.6330 283.6951 -9641.9424 -7971.3073 269.9377 -548.3538 -403.5513 29888.3210 3.0841 3.1609
TCL: Running 1000000 steps at 300 kelvin.
TCL: Setting parameter langevinTemp to 300
TCL: Running for 1000000 steps
ETITLE: TS BOND ANGLE DIHED IMPRP ELECT VDW BOUNDARY MISC KINETIC TOTAL TEMP POTENTIAL TOTAL3 TEMPAVG PRESSURE GPRESSURE VOLUME PRESSAVG GPRESSAVG
ENERGY: 900000 2.0153 5.1626 1.5750 0.0000 -11168.7260 1518.0306 0.0000 0.0000 1666.5070 -7975.4354 283.5586 -9641.9424 -7972.7504 283.5586 -482.5115 -402.5780 29888.3210 -482.5115 -402.5780
ENERGY: 1100000 1.0369 9.2670 2.0810 0.0000 -10458.9467 1340.5645 0.0000 0.0000 1780.6557 -7325.3415 302.9811 -9105.9973 -7321.6084 300.1872 -384.5548 -256.9318 30699.7368 3.2955 3.4907
ENERGY: 1300000 0.4716 8.2085 3.7168 0.0000 -10684.4936 1354.4045 0.0000 0.0000 1725.1238 -7592.5684 293.5323 -9317.6922 -7589.9430 299.9646 -1041.2762 -964.5583 30708.2634 2.6486 2.6276
ENERGY: 1500000 0.2359 6.7334 1.2792 0.0000 -10691.3970 1424.9790 0.0000 0.0000 1801.4920 -7456.6775 306.5265 -9258.1695 -7450.8536 301.3956 -24.1731 14.4513 30542.0662 3.3813 3.3295
ENERGY: 1700000 0.7399 9.0772 4.6897 0.0000 -10743.0166 1443.8255 0.0000 0.0000 1724.3610 -7560.3233 293.4025 -9284.6843 -7555.2578 299.4565 -64.2226 -89.9064 30493.4022 3.0067 3.1790
ENERGY: 1900000 1.8761 5.4725 2.0102 0.0000 -10783.7061 1468.9043 0.0000 0.0000 1731.1171 -7574.3259 294.5521 -9305.4430 -7571.8117 299.9385 111.0985 206.4369 30052.8475 3.1058 3.1006
TCL: Exiting due to exit command.
