Info: SIMULATION PARAMETERS:
Info: TIMESTEP               2
Info: NUMBER OF STEPS        0
Info: STEPS PER CYCLE        10
Info: PERIODIC CELL BASIS 1  30.8463 0 0
Info: PERIODIC CELL BASIS 2  0 31.0941 0
Info: PERIODIC CELL BASIS 3  0 0 31.3136
Info: PERIODIC CELL CENTER   0 0 0
Info: WRAPPING WATERS AROUND PERIODIC BOUNDARIES ON OUTPUT.
Info: WRAPPING ALL CLUSTERS AROUND PERIODIC BOUNDARIES ON OUTPUT.
Info: FIRST LDB TIMESTEP     50
Info: LAST LDB TIMESTEP     -1
Info: HOM BACKGROUND SCALING 1
Info: PME BACKGROUND SCALING 1
Info: MIN ATOMS PER PATCH    40
Info: EMPTY PATCH LOAD       40 ATOMS
Info: VELOCITY FILE          mobley_5631798_equil.vel
Info: CENTER OF MASS MOVING INITIALLY? NO
Info: DIELECTRIC             1
Info: EXCLUDE                SCALED ONE-FOUR
Info: 1-4 ELECTROSTATICS SCALED BY 0.833333
Info: MODIFIED 1-4 VDW PARAMETERS WILL BE USED
Info: DCD FILENAME           mobley_5631798_prod.dcd
Info: DCD FREQUENCY          100000
Info: DCD FIRST STEP         100000
Info: DCD FILE WILL CONTAIN UNIT CELL DATA
Info: XST FILENAME           mobley_5631798_prod.xst
Info: XST FREQUENCY          100000
Info: NO VELOCITY DCD OUTPUT
Info: NO FORCE DCD OUTPUT
Info: OUTPUT FILENAME        mobley_5631798_prod
Info: BINARY OUTPUT FILES WILL BE USED
Info: RESTART FILENAME       mobley_5631798_prod.restart
Info: RESTART FREQUENCY      100000
Info: BINARY RESTART FILES WILL BE USED
Info: CUTOFF                 9
Info: PAIRLIST DISTANCE      11
Info: PAIRLIST SHRINK RATE   0.01
Info: PAIRLIST GROW RATE     0.01
Info: PAIRLIST TRIGGER       0.3
Info: PAIRLISTS PER CYCLE    2
Info: PAIRLISTS ENABLED
Info: MARGIN                 2
Info: HYDROGEN GROUP CUTOFF  2.5
Info: PATCH DIMENSION        15.5
Info: ENERGY OUTPUT STEPS    100000
Info: ENERGY EVALUATION STEPS    100000
Info: OUTPUT ENERGY PRECISION 4
Info: CROSSTERM ENERGY INCLUDED IN DIHEDRAL
Info: TIMING OUTPUT STEPS    1000000
Info: PRESSURE OUTPUT STEPS  100000
Info: ALCHEMICAL FEP ON
Info: FEP CURRENT LAMBDA VALUE     1
Info: FEP COMPARISON LAMBDA VALUE  0.95
Info: FEP INTRA-ALCHEMICAL NON-BONDED INTERACTIONS WILL BE RETAINED
Info: FEP INTRA-ALCHEMICAL BONDED INTERACTIONS WILL BE RETAINED
Info: FEP VDW SHIFTING COEFFICIENT 5
Info: FEP ELEC. ACTIVE FOR ANNIHILATED PARTICLES BETWEEN LAMBDA = 0 AND LAMBDA = 0.5
Info: FEP ELEC. ACTIVE FOR EXNIHILATED PARTICLES BETWEEN LAMBDA = 0.5 AND LAMBDA = 1
Info: FEP VDW ACTIVE FOR ANNIHILATED PARTICLES BETWEEN LAMBDA = 0 AND LAMBDA = 1
Info: FEP VDW ACTIVE FOR EXNIHILATED PARTICLES BETWEEN LAMBDA = 0 AND LAMBDA = 1
Info: FEP BOND ACTIVE FOR ANNIHILATED PARTICLES BETWEEN LAMBDA = 1 AND LAMBDA = 1
Info: FEP BOND ACTIVE FOR EXNIHILATED PARTICLES BETWEEN LAMBDA = 0 AND LAMBDA = 0
Info: LANGEVIN DYNAMICS ACTIVE
Info: LANGEVIN TEMPERATURE   300
Info: LANGEVIN USING BBK INTEGRATOR
Info: LANGEVIN DAMPING COEFFICIENT IS 1 INVERSE PS
Info: LANGEVIN DYNAMICS APPLIED TO HYDROGENS
Info: LANGEVIN PISTON PRESSURE CONTROL ACTIVE
Info:        TARGET PRESSURE IS 1.01325 BAR
Info:     OSCILLATION PERIOD IS 50 FS
Info:             DECAY TIME IS 25 FS
Info:     PISTON TEMPERATURE IS 300 K
Info:       PRESSURE CONTROL IS GROUP-BASED
Info:    INITIAL STRAIN RATE IS 0.000505809 0.000505809 0.000505809
Info:       CELL FLUCTUATION IS ISOTROPIC
Info: PARTICLE MESH EWALD (PME) ACTIVE
Info: PME TOLERANCE               1e-06
Info: PME EWALD COEFFICIENT       0.348832
Info: PME INTERPOLATION ORDER     4
Info: PME GRID DIMENSIONS         32 32 32
Info: PME MAXIMUM GRID SPACING    1
Info: PME CALCULATION WILL BE PERFORMED ON GPU
Info: FULL ELECTROSTATIC EVALUATION FREQUENCY      2
Info: USING VERLET I (r-RESPA) MTS SCHEME.
Info: C1 SPLITTING OF LONG RANGE ELECTROSTATICS
Info: PLACING ATOMS IN PATCHES BY HYDROGEN GROUPS
Info: RIGID BONDS TO HYDROGEN : ALL
Info:         ERROR TOLERANCE : 1e-08
Info:          MAX ITERATIONS : 100
Info: RIGID WATER USING SETTLE ALGORITHM
Info: RANDOM NUMBER SEED     1743470927
Info: USE HYDROGEN BONDS?    NO
Info: Using AMBER format force field!
Info: AMBER PARM FILE        mobley_5631798.prmtop
Info: COORDINATE PDB         mobley_5631798.pdb
Info: Exclusions will be read from PARM file!
Info: SCNB (VDW SCALING)     2
Info: USING ARITHMETIC MEAN TO COMBINE L-J SIGMA PARAMETERS
Info: BINARY COORDINATES     mobley_5631798_equil.coor
Info: SUMMARY OF PARAMETERS:
Info: 3 BONDS
Info: 1 ANGLES
Info:   1 HARMONIC
Info:   0 COSINE-BASED
Info: 0 DIHEDRAL
Info: 0 IMPROPER
Info: 0 CROSSTERM
Info: 0 VDW
Info: 10 VDW_PAIRS
Info: 0 NBTHOLE_PAIRS
Info: To read alchdata from file: mobley_5631798.pdb
Info: To read alchflag data from column: 5
Info: STRUCTURE SUMMARY:
Info: 2932 ATOMS
Info: 2931 BONDS
Info: 3 ANGLES
Info: 0 DIHEDRALS
Info: 0 IMPROPERS
Info: 0 CROSSTERMS
Info: 2934 EXCLUSIONS
Info: 2931 RIGID BONDS
Info: ALCH: 0 ATOMS TO DISAPPEAR IN FINAL STATE
Info: ALCH: 4 ATOMS TO APPEAR IN FINAL STATE
Info: 5865 DEGREES OF FREEDOM
Info: 977 HYDROGEN GROUPS
Info: 4 ATOMS IN LARGEST HYDROGEN GROUP
Info: 977 MIGRATION GROUPS
Info: 4 ATOMS IN LARGEST MIGRATION GROUP
Info: TOTAL MASS = 17600.7 amu
Info: TOTAL CHARGE = 9.99868e-05 e
Info: MASS DENSITY = 0.973135 g/cm^3
Info: ATOM DENSITY = 0.0976223 atoms/A^3
Info: ADDED 0 IMPLICIT EXCLUSIONS
Info: NONBONDED TABLE R-SQUARED SPACING: 0.0625
Info: NONBONDED TABLE SIZE: 705 POINTS
Info: REMOVING COM VELOCITY -0.088458 0.229982 0.22525
Info: Use 3D box decompostion in PME FFT.
Info: Updated CUDA force table with 4096 elements.
Info: Updated CUDA LJ table with 4 x 4 elements.
Info: Found 7 unique exclusion lists needing 8 bytes
TCL: Running for 1500000 steps
ETITLE: TS BOND ANGLE DIHED IMPRP ELECT VDW BOUNDARY MISC KINETIC TOTAL TEMP POTENTIAL TOTALAVG TEMPAVG PRESSURE GPRESSURE VOLUME PRESSAVG GPRESSAVG
ENERGY: 0 0.0000 0.6816 0.0000 0.0000 -10711.0943 1491.1382 0.0000 0.0000 1799.8549 -7419.4196 308.8587 -9219.2745 -7419.4196 308.8587 519.1351 598.7930 30034.1188 519.1351 598.7930
ENERGY: 300000 0.0000 1.5789 0.0000 0.0000 -10704.1486 1462.7233 0.0000 0.0000 1724.4825 -7515.3639 295.9247 -9239.8464 -7493.8181 296.9431 160.2375 272.2263 30107.2438 198.1109 290.8171
ENERGY: 600000 0.0000 0.6013 0.0000 0.0000 -10768.2764 1512.9965 0.0000 0.0000 1769.3048 -7485.3738 303.6163 -9254.6786 -7471.4675 300.6341 703.6940 757.1687 29906.7829 71.0677 146.3241
ENERGY: 900000 0.0000 2.6719 0.0000 0.0000 -10696.7701 1408.7914 0.0000 0.0000 1724.4220 -7560.8848 295.9143 -9285.3067 -7488.7480 299.3962 -384.3647 -289.4382 30099.8849 144.0556 213.2235
ENERGY: 1200000 0.0000 0.3419 0.0000 0.0000 -10675.4587 1478.5957 0.0000 0.0000 1732.0951 -7464.4259 297.2310 -9196.5210 -7483.8719 299.1584 728.4798 768.5969 29700.1278 66.0804 131.2434
ENERGY: 1500000 0.0000 0.8487 0.0000 0.0000 -10670.9384 1464.6669 0.0000 0.0000 1721.3236 -7484.0992 295.3826 -9205.4228 -7484.8206 299.7885 283.1921 375.6196 30096.7775 93.2605 160.5356
TCL: Running FEP window   2: Lambda1 0.95   Lambda2 0.8999999999999999 [dLambda -0.050000000000000044]
TCL: Setting parameter firsttimestep to 0
TCL: Setting parameter alchLambda to 0.95
Info: NONBONDED TABLE R-SQUARED SPACING: 0.0625
Info: NONBONDED TABLE SIZE: 705 POINTS
TCL: Setting parameter alchLambda2 to 0.8999999999999999
Info: NONBONDED TABLE R-SQUARED SPACING: 0.0625
Info: NONBONDED TABLE SIZE: 705 POINTS
TCL: Running for 1500000 steps
ETITLE: TS BOND ANGLE DIHED IMPRP ELECT VDW BOUNDARY MISC KINETIC TOTAL TEMP POTENTIAL TOTALAVG TEMPAVG PRESSURE GPRESSURE VOLUME PRESSAVG GPRESSAVG
ENERGY: 0 0.0000 0.8487 0.0000 0.0000 -10669.0366 1463.8321 0.0000 0.0000 1720.4890 -7483.8667 295.2394 -9204.3558 -7483.8667 295.2394 270.9378 368.4983 30096.7775 270.9378 368.4983
ENERGY: 300000 0.0000 0.2662 0.0000 0.0000 -10684.8667 1485.4765 0.0000 0.0000 1747.2757 -7451.8483 299.8360 -9199.1240 -7437.2821 302.2988 522.2153 587.6253 30056.5877 11.6630 91.1530
ENERGY: 600000 0.0000 0.5860 0.0000 0.0000 -10830.1295 1499.4766 0.0000 0.0000 1711.5412 -7618.5256 293.7039 -9330.0668 -7469.5836 302.8095 322.0535 382.8365 29759.5037 251.7684 332.2249
ENERGY: 900000 0.0000 4.6486 0.0000 0.0000 -10711.7756 1491.5406 0.0000 0.0000 1780.1966 -7435.3898 305.4853 -9215.5864 -7463.8188 302.3564 342.4412 320.2836 30538.9142 197.9312 265.3465
ENERGY: 1200000 0.0000 0.9314 0.0000 0.0000 -10674.5252 1452.6210 0.0000 0.0000 1782.5770 -7438.3958 305.8938 -9220.9728 -7462.9816 301.8685 158.0958 240.6778 30125.9359 199.7938 262.8580
ENERGY: 1500000 0.0000 0.8578 0.0000 0.0000 -10571.0847 1375.9174 0.0000 0.0000 1784.1967 -7410.1127 306.1717 -9194.3094 -7456.2702 302.3544 -310.6981 -248.5043 30025.1741 149.9006 215.7025
TCL: Running FEP window   3: Lambda1 0.8999999999999999 Lambda2 0.8499999999999999 [dLambda -0.050000000000000044]
TCL: Setting parameter firsttimestep to 0
TCL: Setting parameter alchLambda to 0.8999999999999999
Info: NONBONDED TABLE R-SQUARED SPACING: 0.0625
Info: NONBONDED TABLE SIZE: 705 POINTS
TCL: Setting parameter alchLambda2 to 0.8499999999999999
Info: NONBONDED TABLE R-SQUARED SPACING: 0.0625
Info: NONBONDED TABLE SIZE: 705 POINTS
TCL: Running for 1500000 steps
ETITLE: TS BOND ANGLE DIHED IMPRP ELECT VDW BOUNDARY MISC KINETIC TOTAL TEMP POTENTIAL TOTALAVG TEMPAVG PRESSURE GPRESSURE VOLUME PRESSAVG GPRESSAVG
ENERGY: 0 0.0000 0.8578 0.0000 0.0000 -10569.6900 1375.1028 0.0000 0.0000 1783.3040 -7410.4254 306.0186 -9193.7294 -7410.4254 306.0186 -347.2409 -258.3677 30025.1741 -347.2409 -258.3677
ENERGY: 300000 0.0000 0.6824 0.0000 0.0000 -10707.4556 1392.0031 0.0000 0.0000 1779.1445 -7535.6256 305.3048 -9314.7701 -7479.9079 302.7958 -616.7746 -599.1188 30391.7565 -236.4429 -190.2450
ENERGY: 600000 0.0000 0.4010 0.0000 0.0000 -10723.1174 1456.3810 0.0000 0.0000 1776.2957 -7490.0397 304.8159 -9266.3354 -7502.7540 301.3530 81.4885 169.5455 30134.6416 -20.2878 43.2469
ENERGY: 900000 0.0000 1.9494 0.0000 0.0000 -10677.7324 1428.8746 0.0000 0.0000 1801.0570 -7445.8514 309.0650 -9246.9084 -7492.2936 303.2199 102.5588 161.9747 29972.3430 -118.3164 -56.1215
ENERGY: 1200000 0.0000 0.8049 0.0000 0.0000 -10584.3024 1377.3073 0.0000 0.0000 1763.9511 -7442.2392 302.6975 -9206.1902 -7490.5060 302.2248 -488.5637 -427.2924 30405.6754 -169.1734 -104.3174
ENERGY: 1500000 0.0000 1.2085 0.0000 0.0000 -10795.7974 1491.4022 0.0000 0.0000 1770.4321 -7532.7546 303.8097 -9303.1866 -7487.5953 303.2429 145.6951 229.8059 30130.9829 -141.5439 -75.4479
TCL: Running FEP window   4: Lambda1 0.8499999999999999 Lambda2 0.7999999999999998 [dLambda -0.050000000000000044]
TCL: Setting parameter firsttimestep to 0
TCL: Setting parameter alchLambda to 0.8499999999999999
Info: NONBONDED TABLE R-SQUARED SPACING: 0.0625
Info: NONBONDED TABLE SIZE: 705 POINTS
TCL: Setting parameter alchLambda2 to 0.7999999999999998
Info: NONBONDED TABLE R-SQUARED SPACING: 0.0625
Info: NONBONDED TABLE SIZE: 705 POINTS
TCL: Running for 1500000 steps
ETITLE: TS BOND ANGLE DIHED IMPRP ELECT VDW BOUNDARY MISC KINETIC TOTAL TEMP POTENTIAL TOTALAVG TEMPAVG PRESSURE GPRESSURE VOLUME PRESSAVG GPRESSAVG
ENERGY: 0 0.0000 1.2085 0.0000 0.0000 -10794.5668 1490.7273 0.0000 0.0000 1769.5706 -7533.0604 303.6619 -9302.6310 -7533.0604 303.6619 139.4026 226.6356 30130.9829 139.4026 226.6356
ENERGY: 300000 0.0000 0.5995 0.0000 0.0000 -10548.9891 1314.6577 0.0000 0.0000 1728.7804 -7504.9515 296.6622 -9233.7319 -7527.8834 296.6222 -959.0260 -932.2208 30482.8775 12.0117 27.0962
ENERGY: 600000 0.0000 0.2494 0.0000 0.0000 -10505.0861 1285.6992 0.0000 0.0000 1713.2237 -7505.9138 293.9926 -9219.1375 -7509.2378 297.0489 -1287.4802 -1277.5714 30278.1194 -155.4022 -134.7210
ENERGY: 900000 0.0000 0.6064 0.0000 0.0000 -10799.6390 1478.4992 0.0000 0.0000 1713.9661 -7606.5672 294.1200 -9320.5333 -7499.9712 296.5444 210.8039 285.0985 29845.1986 -151.0513 -115.7013
ENERGY: 1200000 0.0000 0.0372 0.0000 0.0000 -10637.3694 1433.9244 0.0000 0.0000 1783.7603 -7419.6475 306.0969 -9203.4078 -7479.1518 298.2520 35.1651 158.5010 30161.0831 -233.7708 -179.3223
ENERGY: 1500000 0.0000 1.0033 0.0000 0.0000 -10714.5417 1445.6227 0.0000 0.0000 1709.8873 -7558.0284 293.4201 -9267.9157 -7471.2220 299.3402 30.8521 105.8314 29692.1893 -185.4506 -128.2582
TCL: Running FEP window   5: Lambda1 0.7999999999999998 Lambda2 0.7499999999999998 [dLambda -0.050000000000000044]
TCL: Setting parameter firsttimestep to 0
TCL: Setting parameter alchLambda to 0.7999999999999998
Info: NONBONDED TABLE R-SQUARED SPACING: 0.0625
Info: NONBONDED TABLE SIZE: 705 POINTS
TCL: Setting parameter alchLambda2 to 0.7499999999999998
Info: NONBONDED TABLE R-SQUARED SPACING: 0.0625
Info: NONBONDED TABLE SIZE: 705 POINTS
TCL: Running for 1500000 steps
ETITLE: TS BOND ANGLE DIHED IMPRP ELECT VDW BOUNDARY MISC KINETIC TOTAL TEMP POTENTIAL TOTALAVG TEMPAVG PRESSURE GPRESSURE VOLUME PRESSAVG GPRESSAVG
ENERGY: 0 0.0000 1.0033 0.0000 0.0000 -10712.7601 1444.4210 0.0000 0.0000 1709.0322 -7558.3037 293.2734 -9267.3358 -7558.3037 293.2734 21.7782 95.7104 29692.1893 21.7782 95.7104
ENERGY: 300000 0.0000 0.9485 0.0000 0.0000 -10693.9915 1446.5391 0.0000 0.0000 1719.8100 -7526.6938 295.1229 -9246.5038 -7513.9912 298.3299 -105.6616 25.3579 30297.8187 16.4861 90.5487
ENERGY: 600000 0.0000 1.2241 0.0000 0.0000 -10646.9133 1377.1483 0.0000 0.0000 1708.5787 -7559.9622 293.1955 -9268.5409 -7500.5384 298.6616 -732.2772 -687.0748 30590.9385 -171.1048 -102.5762
ENERGY: 900000 0.0000 0.4517 0.0000 0.0000 -10624.2964 1416.6477 0.0000 0.0000 1772.4848 -7434.7122 304.1620 -9207.1970 -7496.7777 300.1188 -191.4201 -72.8891 30475.1610 -114.1151 -34.0578
ENERGY: 1200000 0.0000 0.9465 0.0000 0.0000 -10652.7337 1431.9136 0.0000 0.0000 1695.9149 -7523.9587 291.0224 -9219.8736 -7491.0278 300.4408 -129.6904 -58.8906 30342.4102 -184.7797 -109.7115
ENERGY: 1500000 0.0000 0.6653 0.0000 0.0000 -10679.7612 1440.1446 0.0000 0.0000 1732.4509 -7506.5004 297.2920 -9238.9513 -7481.2977 300.9918 629.4305 621.1977 29243.8606 -137.6967 -69.6176
TCL: Running FEP window   6: Lambda1 0.7499999999999998 Lambda2 0.6999999999999997 [dLambda -0.050000000000000044]
TCL: Setting parameter firsttimestep to 0
TCL: Setting parameter alchLambda to 0.7499999999999998
Info: NONBONDED TABLE R-SQUARED SPACING: 0.0625
Info: NONBONDED TABLE SIZE: 705 POINTS
TCL: Setting parameter alchLambda2 to 0.6999999999999997
Info: NONBONDED TABLE R-SQUARED SPACING: 0.0625
Info: NONBONDED TABLE SIZE: 705 POINTS
TCL: Running for 1500000 steps
ETITLE: TS BOND ANGLE DIHED IMPRP ELECT VDW BOUNDARY MISC KINETIC TOTAL TEMP POTENTIAL TOTALAVG TEMPAVG PRESSURE GPRESSURE VOLUME PRESSAVG GPRESSAVG
ENERGY: 0 0.0000 0.6653 0.0000 0.0000 -10678.0814 1439.7231 0.0000 0.0000 1731.5650 -7506.1280 297.1400 -9237.6930 -7506.1280 297.1400 537.2423 621.2402 29243.8606 537.2423 621.2402
ENERGY: 300000 0.0000 1.5387 0.0000 0.0000 -10683.9448 1503.3787 0.0000 0.0000 1766.1287 -7412.8988 303.0712 -9179.0275 -7467.5915 302.3106 504.4320 583.7211 30448.4941 326.4164 390.7183
ENERGY: 600000 0.0000 1.1872 0.0000 0.0000 -10640.9151 1450.1243 0.0000 0.0000 1762.7204 -7426.8831 302.4864 -9189.6035 -7470.7331 303.2801 -91.6306 23.9078 30329.6730 167.3346 238.8304
ENERGY: 900000 0.0000 0.7502 0.0000 0.0000 -10653.9615 1408.3651 0.0000 0.0000 1717.4364 -7527.4098 294.7155 -9244.8462 -7480.9605 301.5109 -280.7241 -174.5983 29938.1232 8.0575 84.2428
ENERGY: 1200000 0.0000 0.4609 0.0000 0.0000 -10544.0401 1408.8522 0.0000 0.0000 1734.0456 -7400.6814 297.5657 -9134.7270 -7461.3225 302.1311 -16.7316 105.3763 30120.2677 116.4436 193.2233
ENERGY: 1500000 0.0000 0.4787 0.0000 0.0000 -10452.1934 1324.8675 0.0000 0.0000 1771.3440 -7355.5031 303.9662 -9126.8472 -7460.1121 302.2159 -685.5956 -581.1798 30569.8235 59.0741 138.2241
TCL: Running FEP window   7: Lambda1 0.6999999999999997 Lambda2 0.6499999999999997 [dLambda -0.050000000000000044]
TCL: Setting parameter firsttimestep to 0
TCL: Setting parameter alchLambda to 0.6999999999999997
Info: NONBONDED TABLE R-SQUARED SPACING: 0.0625
Info: NONBONDED TABLE SIZE: 705 POINTS
TCL: Setting parameter alchLambda2 to 0.6499999999999997
Info: NONBONDED TABLE R-SQUARED SPACING: 0.0625
Info: NONBONDED TABLE SIZE: 705 POINTS
TCL: Running for 1500000 steps
ETITLE: TS BOND ANGLE DIHED IMPRP ELECT VDW BOUNDARY MISC KINETIC TOTAL TEMP POTENTIAL TOTALAVG TEMPAVG PRESSURE GPRESSURE VOLUME PRESSAVG GPRESSAVG
ENERGY: 0 0.0000 0.4787 0.0000 0.0000 -10451.8105 1324.7435 0.0000 0.0000 1770.4248 -7356.1635 303.8084 -9126.5883 -7356.1635 303.8084 -681.0685 -582.8772 30569.8235 -681.0685 -582.8772
ENERGY: 300000 0.0000 1.3770 0.0000 0.0000 -10773.2191 1533.6642 0.0000 0.0000 1718.1551 -7520.0227 294.8389 -9238.1779 -7486.1955 301.6728 462.2268 581.4234 30375.2292 103.3461 179.5391
ENERGY: 600000 0.0000 1.6929 0.0000 0.0000 -10696.6686 1452.4126 0.0000 0.0000 1744.7632 -7497.7999 299.4049 -9242.5631 -7487.9583 300.9129 76.8845 64.3478 30336.4922 -10.6478 43.7525
ENERGY: 900000 0.0000 0.2962 0.0000 0.0000 -10452.1301 1305.7207 0.0000 0.0000 1709.8048 -7436.3084 293.4059 -9146.1132 -7480.9658 299.9730 -1054.8201 -951.5042 30603.9818 -88.1652 -26.1429
ENERGY: 1200000 0.0000 1.1931 0.0000 0.0000 -10686.8698 1447.2025 0.0000 0.0000 1757.2716 -7481.2027 301.5513 -9238.4743 -7468.6811 300.8808 49.8019 45.6609 30363.4264 -73.1860 -14.0703
ENERGY: 1500000 0.0000 1.6006 0.0000 0.0000 -10671.1760 1475.0032 0.0000 0.0000 1768.3014 -7426.2708 303.4441 -9194.5722 -7469.2753 300.7991 141.0538 211.9603 30601.1923 -42.0686 16.9819
TCL: Running FEP window   8: Lambda1 0.6499999999999997 Lambda2 0.5999999999999996 [dLambda -0.050000000000000044]
TCL: Setting parameter firsttimestep to 0
TCL: Setting parameter alchLambda to 0.6499999999999997
Info: NONBONDED TABLE R-SQUARED SPACING: 0.0625
Info: NONBONDED TABLE SIZE: 705 POINTS
TCL: Setting parameter alchLambda2 to 0.5999999999999996
Info: NONBONDED TABLE R-SQUARED SPACING: 0.0625
Info: NONBONDED TABLE SIZE: 705 POINTS
TCL: Running for 1500000 steps
ETITLE: TS BOND ANGLE DIHED IMPRP ELECT VDW BOUNDARY MISC KINETIC TOTAL TEMP POTENTIAL TOTALAVG TEMPAVG PRESSURE GPRESSURE VOLUME PRESSAVG GPRESSAVG
ENERGY: 0 0.0000 1.6006 0.0000 0.0000 -10669.1190 1474.0803 0.0000 0.0000 1767.4624 -7425.9757 303.3001 -9193.4381 -7425.9757 303.3001 109.6057 211.0967 30601.1923 109.6057 211.0967
ENERGY: 300000 0.0000 0.9888 0.0000 0.0000 -10662.0045 1460.0580 0.0000 0.0000 1740.1250 -7460.8328 298.6089 -9200.9578 -7490.3544 299.6389 319.2864 353.9327 30102.3636 144.2093 217.2559
ENERGY: 600000 0.0000 1.9768 0.0000 0.0000 -10747.4811 1466.7616 0.0000 0.0000 1686.9559 -7591.7869 289.4850 -9278.7427 -7506.0765 297.8616 -261.2167 -203.9736 30562.5014 -75.6878 -1.9048
ENERGY: 900000 0.0000 0.8421 0.0000 0.0000 -10723.2028 1469.4269 0.0000 0.0000 1745.9681 -7506.9657 299.6116 -9252.9338 -7483.9807 299.5646 36.0198 125.5155 30189.9696 -98.7630 -25.2662
ENERGY: 1200000 0.0000 0.1750 0.0000 0.0000 -10715.3993 1505.6405 0.0000 0.0000 1719.1016 -7490.4822 295.0013 -9209.5838 -7482.1868 298.8576 342.6335 432.8685 30588.0471 -42.4793 27.0406
ENERGY: 1500000 0.0000 0.9360 0.0000 0.0000 -10601.3500 1409.2833 0.0000 0.0000 1837.6156 -7353.5151 315.3385 -9191.1306 -7474.3959 300.4224 -96.5005 -6.8378 30030.3547 42.2711 108.8101
TCL: Running FEP window   9: Lambda1 0.5999999999999996 Lambda2 0.5499999999999996 [dLambda -0.050000000000000044]
TCL: Setting parameter firsttimestep to 0
TCL: Setting parameter alchLambda to 0.5999999999999996
Info: NONBONDED TABLE R-SQUARED SPACING: 0.0625
Info: NONBONDED TABLE SIZE: 705 POINTS
TCL: Setting parameter alchLambda2 to 0.5499999999999996
Info: NONBONDED TABLE R-SQUARED SPACING: 0.0625
Info: NONBONDED TABLE SIZE: 705 POINTS
TCL: Running for 1500000 steps
ETITLE: TS BOND ANGLE DIHED IMPRP ELECT VDW BOUNDARY MISC KINETIC TOTAL TEMP POTENTIAL TOTALAVG TEMPAVG PRESSURE GPRESSURE VOLUME PRESSAVG GPRESSAVG
ENERGY: 0 0.0000 0.9360 0.0000 0.0000 -10600.6156 1409.2757 0.0000 0.0000 1836.7573 -7353.6466 315.1912 -9190.4039 -7353.6466 315.1912 -88.8735 -7.5676 30030.3547 -88.8735 -7.5676
ENERGY: 300000 0.0000 0.4016 0.0000 0.0000 -10758.0581 1496.1026 0.0000 0.0000 1744.1559 -7517.3979 299.3007 -9261.5538 -7471.7417 302.3294 538.0188 650.7838 29672.0141 44.1414 122.6928
ENERGY: 600000 0.0000 0.4416 0.0000 0.0000 -10663.3822 1363.3008 0.0000 0.0000 1746.0041 -7553.6357 299.6178 -9299.6399 -7496.6748 300.2957 -684.4586 -628.1640 30045.8257 -157.5487 -88.8018
ENERGY: 900000 0.0000 1.0881 0.0000 0.0000 -10504.4681 1284.5393 0.0000 0.0000 1672.4849 -7546.3558 287.0018 -9218.8407 -7500.0035 299.1517 -1259.8511 -1218.0714 30405.0719 -277.2951 -213.3831
ENERGY: 1200000 0.0000 0.8515 0.0000 0.0000 -10746.3327 1494.1649 0.0000 0.0000 1732.2807 -7519.0356 297.2628 -9251.3163 -7494.0829 299.1018 392.7274 457.1351 30114.5841 -271.5032 -202.2979
ENERGY: 1500000 0.0000 0.1065 0.0000 0.0000 -10597.8889 1383.0910 0.0000 0.0000 1754.3761 -7460.3153 301.0545 -9214.6914 -7482.1703 299.6527 -147.0723 -26.8603 29618.7492 -236.4412 -159.8165
TCL: Running FEP window  10: Lambda1 0.5499999999999996 Lambda2 0.4999999999999996 [dLambda -0.04999999999999999]
TCL: Setting parameter firsttimestep to 0
TCL: Setting parameter alchLambda to 0.5499999999999996
Info: NONBONDED TABLE R-SQUARED SPACING: 0.0625
Info: NONBONDED TABLE SIZE: 705 POINTS
TCL: Setting parameter alchLambda2 to 0.4999999999999996
Info: NONBONDED TABLE R-SQUARED SPACING: 0.0625
Info: NONBONDED TABLE SIZE: 705 POINTS
TCL: Running for 1500000 steps
ETITLE: TS BOND ANGLE DIHED IMPRP ELECT VDW BOUNDARY MISC KINETIC TOTAL TEMP POTENTIAL TOTALAVG TEMPAVG PRESSURE GPRESSURE VOLUME PRESSAVG GPRESSAVG
ENERGY: 0 0.0000 0.1065 0.0000 0.0000 -10597.7134 1382.8853 0.0000 0.0000 1753.4789 -7461.2426 300.9005 -9214.7215 -7461.2426 300.9005 -126.9816 -27.9826 29618.7492 -126.9816 -27.9826
ENERGY: 300000 0.0000 0.1584 0.0000 0.0000 -10598.7214 1341.4994 0.0000 0.0000 1765.7146 -7491.3489 303.0002 -9257.0636 -7510.3815 296.2520 -745.1071 -740.0199 30161.2526 -338.2103 -277.6072
ENERGY: 600000 0.0000 2.3706 0.0000 0.0000 -10819.6920 1486.0580 0.0000 0.0000 1729.7603 -7601.5031 296.8303 -9331.2634 -7525.5827 296.6775 225.4041 262.3983 29724.3175 8.7414 71.2656
ENERGY: 900000 0.0000 0.4884 0.0000 0.0000 -10558.5870 1341.9631 0.0000 0.0000 1743.6397 -7472.4958 299.2121 -9216.1355 -7491.4636 298.4657 -662.1515 -610.5032 30119.3456 -60.2494 -13.4123
ENERGY: 1200000 0.0000 0.5183 0.0000 0.0000 -10590.2350 1366.1759 0.0000 0.0000 1731.1255 -7492.4152 297.0646 -9223.5407 -7480.7613 298.9444 -592.1097 -558.4538 30368.2318 -61.2253 -9.7224
ENERGY: 1500000 0.0000 1.7335 0.0000 0.0000 -10574.4486 1421.8701 0.0000 0.0000 1793.7090 -7357.1359 307.8041 -9150.8449 -7469.9857 299.7447 -123.0849 -69.3714 30700.3417 -121.3201 -60.0332
TCL: Running FEP window  11: Lambda1 0.4999999999999996 Lambda2 0.4499999999999996 [dLambda -0.04999999999999999]
TCL: Setting parameter firsttimestep to 0
TCL: Setting parameter alchLambda to 0.4999999999999996
Info: NONBONDED TABLE R-SQUARED SPACING: 0.0625
Info: NONBONDED TABLE SIZE: 705 POINTS
TCL: Setting parameter alchLambda2 to 0.4499999999999996
Info: NONBONDED TABLE R-SQUARED SPACING: 0.0625
Info: NONBONDED TABLE SIZE: 705 POINTS
TCL: Running for 1500000 steps
ETITLE: TS BOND ANGLE DIHED IMPRP ELECT VDW BOUNDARY MISC KINETIC TOTAL TEMP POTENTIAL TOTALAVG TEMPAVG PRESSURE GPRESSURE VOLUME PRESSAVG GPRESSAVG
ENERGY: 0 0.0000 1.7335 0.0000 0.0000 -10574.4275 1421.8820 0.0000 0.0000 1792.8086 -7358.0034 307.6496 -9150.8120 -7358.0034 307.6496 -156.4707 -68.6466 30700.3417 -156.4707 -68.6466
ENERGY: 300000 0.0000 0.2234 0.0000 0.0000 -10576.8797 1367.2068 0.0000 0.0000 1758.0260 -7451.4235 301.6808 -9209.4494 -7438.1366 299.4570 -580.2394 -511.2676 30411.3174 -581.6024 -505.2059
ENERGY: 600000 0.0000 0.8111 0.0000 0.0000 -10619.2360 1453.0332 0.0000 0.0000 1710.3954 -7454.9964 293.5073 -9165.3917 -7441.4691 299.3819 325.2658 363.7682 29941.2809 -442.0495 -391.1723
ENERGY: 900000 0.0000 3.0033 0.0000 0.0000 -10497.8921 1321.8324 0.0000 0.0000 1741.3979 -7431.6584 298.8274 -9173.0563 -7449.4714 300.3047 -969.8610 -909.7766 30803.0703 -545.4147 -492.4012
ENERGY: 1200000 0.0000 0.6629 0.0000 0.0000 -10761.4462 1473.3143 0.0000 0.0000 1812.8465 -7474.6226 311.0881 -9287.4691 -7461.0039 301.1387 7.5690 46.5623 30384.2746 -429.9713 -377.0914
ENERGY: 1500000 0.0000 0.3032 0.0000 0.0000 -10630.7843 1423.1540 0.0000 0.0000 1768.1198 -7439.2074 303.4129 -9207.3271 -7463.9041 301.2669 204.2865 257.7013 29708.4396 -375.5741 -318.1777
TCL: Running FEP window  12: Lambda1 0.4499999999999996 Lambda2 0.39999999999999963 [dLambda -0.04999999999999999]
TCL: Setting parameter firsttimestep to 0
TCL: Setting parameter alchLambda to 0.4499999999999996
Info: NONBONDED TABLE R-SQUARED SPACING: 0.0625
Info: NONBONDED TABLE SIZE: 705 POINTS
TCL: Setting parameter alchLambda2 to 0.39999999999999963
Info: NONBONDED TABLE R-SQUARED SPACING: 0.0625
Info: NONBONDED TABLE SIZE: 705 POINTS
TCL: Running for 1500000 steps
ETITLE: TS BOND ANGLE DIHED IMPRP ELECT VDW BOUNDARY MISC KINETIC TOTAL TEMP POTENTIAL TOTALAVG TEMPAVG PRESSURE GPRESSURE VOLUME PRESSAVG GPRESSAVG
ENERGY: 0 0.0000 0.3032 0.0000 0.0000 -10630.7840 1423.2025 0.0000 0.0000 1767.2542 -7440.0241 303.2644 -9207.2783 -7440.0241 303.2644 180.9672 258.0864 29708.4396 180.9672 258.0864
ENERGY: 300000 0.0000 1.2927 0.0000 0.0000 -10647.8929 1352.7015 0.0000 0.0000 1753.8301 -7540.0685 300.9608 -9293.8986 -7470.1718 301.9932 -1048.2249 -1006.7970 30501.1313 -91.1023 -46.7544
ENERGY: 600000 0.0000 2.5174 0.0000 0.0000 -10661.1018 1412.6538 0.0000 0.0000 1762.7950 -7483.1356 302.4992 -9245.9305 -7458.6439 303.3060 14.0990 63.5770 29789.0776 22.9982 74.5006
ENERGY: 900000 0.0000 0.5259 0.0000 0.0000 -10672.8632 1491.5137 0.0000 0.0000 1774.0570 -7406.7666 304.4317 -9180.8236 -7461.1406 302.7308 647.5813 727.2332 29888.2708 184.5276 239.7154
ENERGY: 1200000 0.0000 0.5269 0.0000 0.0000 -10669.0014 1397.6815 0.0000 0.0000 1782.5647 -7488.2283 305.8917 -9270.7930 -7474.1279 302.9988 -463.0479 -411.9140 30433.2067 157.5882 200.1895
ENERGY: 1500000 0.0000 0.5557 0.0000 0.0000 -10665.6583 1430.5187 0.0000 0.0000 1812.2116 -7422.3724 310.9791 -9234.5840 -7471.0135 302.9534 -58.1950 -37.5660 30111.7788 78.0222 117.5505
TCL: Running FEP window  13: Lambda1 0.39999999999999963 Lambda2 0.34999999999999964 [dLambda -0.04999999999999999]
TCL: Setting parameter firsttimestep to 0
TCL: Setting parameter alchLambda to 0.39999999999999963
Info: NONBONDED TABLE R-SQUARED SPACING: 0.0625
Info: NONBONDED TABLE SIZE: 705 POINTS
TCL: Setting parameter alchLambda2 to 0.34999999999999964
Info: NONBONDED TABLE R-SQUARED SPACING: 0.0625
Info: NONBONDED TABLE SIZE: 705 POINTS
TCL: Running for 1500000 steps
ETITLE: TS BOND ANGLE DIHED IMPRP ELECT VDW BOUNDARY MISC KINETIC TOTAL TEMP POTENTIAL TOTALAVG TEMPAVG PRESSURE GPRESSURE VOLUME PRESSAVG GPRESSAVG
ENERGY: 0 0.0000 0.5557 0.0000 0.0000 -10665.6589 1429.7900 0.0000 0.0000 1811.3211 -7423.9922 310.8263 -9235.3132 -7423.9922 310.8263 -114.2286 -42.3412 30111.7788 -114.2286 -42.3412
ENERGY: 300000 0.0000 0.8423 0.0000 0.0000 -10596.8517 1434.9109 0.0000 0.0000 1791.6291 -7369.4695 307.4472 -9161.0986 -7395.3594 304.7237 -42.4407 44.1921 30495.8873 56.2386 129.4095
ENERGY: 600000 0.0000 0.1038 0.0000 0.0000 -10656.3873 1421.2404 0.0000 0.0000 1774.3739 -7460.6692 304.4861 -9235.0430 -7408.0134 304.5766 -273.1958 -201.7502 30360.8947 -11.7085 46.3010
ENERGY: 900000 0.0000 0.0151 0.0000 0.0000 -10565.8280 1424.0582 0.0000 0.0000 1726.3668 -7415.3878 296.2480 -9141.7546 -7427.1519 304.0606 80.6729 165.5570 30035.6809 9.0300 74.5836
ENERGY: 1200000 0.0000 3.3461 0.0000 0.0000 -10512.3796 1337.9550 0.0000 0.0000 1782.3158 -7388.7627 305.8490 -9171.0785 -7424.6365 304.2336 -689.1459 -665.7283 30689.9320 -53.8267 4.6503
ENERGY: 1500000 0.0000 0.0989 0.0000 0.0000 -10679.3568 1403.6462 0.0000 0.0000 1713.8270 -7561.7847 294.0961 -9275.6116 -7444.0649 303.2367 -555.3822 -432.7011 30438.1167 -64.9170 -3.1100
TCL: Running FEP window  14: Lambda1 0.34999999999999964 Lambda2 0.29999999999999966 [dLambda -0.04999999999999999]
TCL: Setting parameter firsttimestep to 0
TCL: Setting parameter alchLambda to 0.34999999999999964
Info: NONBONDED TABLE R-SQUARED SPACING: 0.0625
Info: NONBONDED TABLE SIZE: 705 POINTS
TCL: Setting parameter alchLambda2 to 0.29999999999999966
Info: NONBONDED TABLE R-SQUARED SPACING: 0.0625
Info: NONBONDED TABLE SIZE: 705 POINTS
TCL: Running for 1500000 steps
ETITLE: TS BOND ANGLE DIHED IMPRP ELECT VDW BOUNDARY MISC KINETIC TOTAL TEMP POTENTIAL TOTALAVG TEMPAVG PRESSURE GPRESSURE VOLUME PRESSAVG GPRESSAVG
ENERGY: 0 0.0000 0.0989 0.0000 0.0000 -10679.3569 1403.7205 0.0000 0.0000 1712.9423 -7562.5953 293.9443 -9275.5376 -7562.5953 293.9443 -517.4975 -434.2824 30438.1167 -517.4975 -434.2824
ENERGY: 300000 0.0000 1.4463 0.0000 0.0000 -10655.4360 1387.2322 0.0000 0.0000 1713.6433 -7553.1142 294.0646 -9266.7575 -7513.4414 296.3641 -429.3546 -416.8783 30096.7113 -422.5036 -375.5013
ENERGY: 600000 0.0000 1.2928 0.0000 0.0000 -10553.3011 1356.0938 0.0000 0.0000 1792.1665 -7403.7480 307.5394 -9195.9145 -7481.2406 297.8601 -621.8397 -540.6637 30178.9374 -372.3998 -328.2124
ENERGY: 900000 0.0000 0.3149 0.0000 0.0000 -10715.9405 1480.2516 0.0000 0.0000 1775.5769 -7459.7971 304.6926 -9235.3740 -7475.4211 299.5481 256.6110 314.2219 30266.2080 -229.4266 -192.5286
ENERGY: 1200000 0.0000 1.8695 0.0000 0.0000 -10787.8225 1518.4359 0.0000 0.0000 1822.2335 -7445.2837 312.6989 -9267.5171 -7476.5736 301.7705 599.6009 668.5981 30025.4470 -93.0942 -58.7053
ENERGY: 1500000 0.0000 0.3033 0.0000 0.0000 -10616.4341 1405.5682 0.0000 0.0000 1750.7774 -7459.7852 300.4369 -9210.5626 -7476.0265 301.3038 -92.7466 -7.3867 29938.4086 -100.5461 -60.6456
TCL: Running FEP window  15: Lambda1 0.29999999999999966 Lambda2 0.24999999999999967 [dLambda -0.04999999999999999]
TCL: Setting parameter firsttimestep to 0
TCL: Setting parameter alchLambda to 0.29999999999999966
Info: NONBONDED TABLE R-SQUARED SPACING: 0.0625
Info: NONBONDED TABLE SIZE: 705 POINTS
TCL: Setting parameter alchLambda2 to 0.24999999999999967
Info: NONBONDED TABLE R-SQUARED SPACING: 0.0625
Info: NONBONDED TABLE SIZE: 705 POINTS
TCL: Running for 1500000 steps
ETITLE: TS BOND ANGLE DIHED IMPRP ELECT VDW BOUNDARY MISC KINETIC TOTAL TEMP POTENTIAL TOTALAVG TEMPAVG PRESSURE GPRESSURE VOLUME PRESSAVG GPRESSAVG
ENERGY: 0 0.0000 0.3033 0.0000 0.0000 -10616.4346 1405.5726 0.0000 0.0000 1749.9105 -7460.6483 300.2882 -9210.5588 -7460.6483 300.2882 -86.7843 -7.5106 29938.4086 -86.7843 -7.5106
ENERGY: 300000 0.0000 0.2066 0.0000 0.0000 -10703.3185 1468.9106 0.0000 0.0000 1837.3062 -7396.8950 315.2854 -9234.2012 -7459.8881 302.1226 183.8676 265.2261 30345.5360 -302.5671 -217.8789
ENERGY: 600000 0.0000 1.0638 0.0000 0.0000 -10574.8144 1411.6930 0.0000 0.0000 1756.9087 -7405.1490 301.4891 -9162.0577 -7466.5912 300.2530 210.2716 264.2534 29844.4507 -76.8161 2.2277
ENERGY: 900000 0.0000 1.5035 0.0000 0.0000 -10661.5999 1425.4244 0.0000 0.0000 1756.6191 -7478.0529 301.4394 -9234.6721 -7469.2347 301.3931 -0.7516 -18.6446 30069.1762 -125.7243 -55.1493
ENERGY: 1200000 0.0000 0.8466 0.0000 0.0000 -10813.5340 1528.4367 0.0000 0.0000 1715.5899 -7568.6608 294.3987 -9284.2507 -7473.6587 300.4123 269.7160 384.2295 30319.5755 -76.8616 0.2837
ENERGY: 1500000 0.0000 0.2207 0.0000 0.0000 -10585.3519 1421.0482 0.0000 0.0000 1723.6650 -7440.4179 295.7844 -9164.0829 -7466.5048 299.8998 51.2496 82.6559 30110.3493 -72.5987 -3.9530
TCL: Running FEP window  16: Lambda1 0.24999999999999967 Lambda2 0.19999999999999968 [dLambda -0.04999999999999999]
TCL: Setting parameter firsttimestep to 0
TCL: Setting parameter alchLambda to 0.24999999999999967
Info: NONBONDED TABLE R-SQUARED SPACING: 0.0625
Info: NONBONDED TABLE SIZE: 705 POINTS
TCL: Setting parameter alchLambda2 to 0.19999999999999968
Info: NONBONDED TABLE R-SQUARED SPACING: 0.0625
Info: NONBONDED TABLE SIZE: 705 POINTS
TCL: Running for 1500000 steps
ETITLE: TS BOND ANGLE DIHED IMPRP ELECT VDW BOUNDARY MISC KINETIC TOTAL TEMP POTENTIAL TOTALAVG TEMPAVG PRESSURE GPRESSURE VOLUME PRESSAVG GPRESSAVG
ENERGY: 0 0.0000 0.2207 0.0000 0.0000 -10585.3503 1420.6952 0.0000 0.0000 1722.8211 -7441.6132 295.6396 -9164.4343 -7441.6132 295.6396 3.0219 81.8630 30110.3493 3.0219 81.8630
ENERGY: 300000 0.0000 0.1148 0.0000 0.0000 -10608.2100 1401.1630 0.0000 0.0000 1794.5827 -7412.3496 307.9540 -9206.9322 -7457.8779 300.1917 -112.7698 -16.7593 29802.7076 261.7378 352.3236
ENERGY: 600000 0.0000 0.3992 0.0000 0.0000 -10575.3988 1374.1163 0.0000 0.0000 1777.7469 -7423.1363 305.0649 -9200.8832 -7431.5064 301.1798 -607.4730 -479.3199 30454.7314 186.3619 256.3216
ENERGY: 900000 0.0000 0.1812 0.0000 0.0000 -10640.8197 1410.4328 0.0000 0.0000 1748.8139 -7481.3918 300.1000 -9230.2058 -7439.5091 301.3535 -184.1217 -60.4130 29967.0744 137.0027 206.4837
ENERGY: 1200000 0.0000 0.6912 0.0000 0.0000 -10710.3983 1447.6430 0.0000 0.0000 1795.8055 -7466.2586 308.1638 -9262.0641 -7454.1819 300.9644 34.0774 121.7410 29700.8284 131.7624 196.2504
ENERGY: 1500000 0.0000 0.1950 0.0000 0.0000 -10623.8215 1401.6300 0.0000 0.0000 1717.0924 -7504.9042 294.6565 -9221.9965 -7454.4558 300.9756 -471.8259 -402.0807 30462.2648 35.3157 98.5370
TCL: Running FEP window  17: Lambda1 0.19999999999999968 Lambda2 0.1499999999999997 [dLambda -0.04999999999999999]
TCL: Setting parameter firsttimestep to 0
TCL: Setting parameter alchLambda to 0.19999999999999968
Info: NONBONDED TABLE R-SQUARED SPACING: 0.0625
Info: NONBONDED TABLE SIZE: 705 POINTS
TCL: Setting parameter alchLambda2 to 0.1499999999999997
Info: NONBONDED TABLE R-SQUARED SPACING: 0.0625
Info: NONBONDED TABLE SIZE: 705 POINTS
TCL: Running for 1500000 steps
ETITLE: TS BOND ANGLE DIHED IMPRP ELECT VDW BOUNDARY MISC KINETIC TOTAL TEMP POTENTIAL TOTALAVG TEMPAVG PRESSURE GPRESSURE VOLUME PRESSAVG GPRESSAVG
ENERGY: 0 0.0000 0.1950 0.0000 0.0000 -10623.8227 1401.6419 0.0000 0.0000 1716.2028 -7505.7829 294.5039 -9221.9858 -7505.7829 294.5039 -496.1772 -401.8702 30462.2648 -496.1772 -401.8702
ENERGY: 300000 0.0000 0.1527 0.0000 0.0000 -10744.4290 1496.1230 0.0000 0.0000 1765.0464 -7483.1069 302.8855 -9248.1533 -7498.1250 299.1547 449.7660 452.0681 30031.5893 373.3729 437.5655
ENERGY: 600000 0.0000 1.0673 0.0000 0.0000 -10759.3770 1489.9469 0.0000 0.0000 1830.3685 -7437.9943 314.0949 -9268.3628 -7488.2891 301.5171 338.1131 465.6272 30047.6781 331.9221 410.2563
ENERGY: 900000 0.0000 0.3197 0.0000 0.0000 -10681.8910 1431.6270 0.0000 0.0000 1718.5764 -7531.3679 294.9112 -9249.9443 -7474.2182 301.1928 -85.1870 -18.0042 29980.3057 203.9933 281.5614
ENERGY: 1200000 0.0000 0.7860 0.0000 0.0000 -10554.9161 1417.3647 0.0000 0.0000 1764.0370 -7372.7284 302.7123 -9136.7654 -7470.7599 299.9971 -20.8024 29.3560 30422.2756 127.5383 200.4110
ENERGY: 1500000 0.0000 0.9129 0.0000 0.0000 -10766.7346 1491.0032 0.0000 0.0000 1751.1158 -7523.7026 300.4950 -9274.8185 -7476.4543 299.8009 390.6854 469.4953 29812.5644 212.5713 289.2242
TCL: Running FEP window  18: Lambda1 0.1499999999999997 Lambda2 0.09999999999999969 [dLambda -0.05 ]
TCL: Setting parameter firsttimestep to 0
TCL: Setting parameter alchLambda to 0.1499999999999997
Info: NONBONDED TABLE R-SQUARED SPACING: 0.0625
Info: NONBONDED TABLE SIZE: 705 POINTS
TCL: Setting parameter alchLambda2 to 0.09999999999999969
Info: NONBONDED TABLE R-SQUARED SPACING: 0.0625
Info: NONBONDED TABLE SIZE: 705 POINTS
TCL: Running for 1500000 steps
ETITLE: TS BOND ANGLE DIHED IMPRP ELECT VDW BOUNDARY MISC KINETIC TOTAL TEMP POTENTIAL TOTALAVG TEMPAVG PRESSURE GPRESSURE VOLUME PRESSAVG GPRESSAVG
ENERGY: 0 0.0000 0.9129 0.0000 0.0000 -10766.7354 1490.4756 0.0000 0.0000 1750.2643 -7525.0827 300.3489 -9275.3470 -7525.0827 300.3489 408.3953 466.4975 29812.5644 408.3953 466.4975
ENERGY: 300000 0.0000 0.0849 0.0000 0.0000 -10697.7830 1467.2547 0.0000 0.0000 1752.5800 -7477.8634 300.7462 -9230.4434 -7497.9222 300.0101 186.3820 272.6375 30031.1868 45.7742 108.2975
ENERGY: 600000 0.0000 1.4726 0.0000 0.0000 -10741.2800 1488.4351 0.0000 0.0000 1692.9640 -7558.4083 290.5160 -9251.3723 -7508.2195 298.4193 340.1551 356.5998 30154.1606 5.2230 62.9028
ENERGY: 900000 0.0000 0.7848 0.0000 0.0000 -10662.2670 1408.3611 0.0000 0.0000 1813.4056 -7439.7155 311.1840 -9253.1211 -7480.6475 299.0256 -217.1917 -190.1163 30117.8040 -89.8135 -34.0559
ENERGY: 1200000 0.0000 1.0643 0.0000 0.0000 -10776.3403 1515.3626 0.0000 0.0000 1742.2581 -7517.6553 298.9750 -9259.9134 -7488.4535 299.0137 507.8770 568.8725 30017.6130 -59.8509 -2.9158
ENERGY: 1500000 0.0000 0.7165 0.0000 0.0000 -10763.1684 1506.6679 0.0000 0.0000 1748.3811 -7507.4030 300.0257 -9255.7841 -7495.5521 298.6503 609.5827 708.6737 29744.8520 21.3364 78.5018
TCL: Running FEP window  19: Lambda1 0.09999999999999969 Lambda2 0.049999999999999684 [dLambda -0.05 ]
TCL: Setting parameter firsttimestep to 0
TCL: Setting parameter alchLambda to 0.09999999999999969
Info: NONBONDED TABLE R-SQUARED SPACING: 0.0625
Info: NONBONDED TABLE SIZE: 705 POINTS
TCL: Setting parameter alchLambda2 to 0.049999999999999684
Info: NONBONDED TABLE R-SQUARED SPACING: 0.0625
Info: NONBONDED TABLE SIZE: 705 POINTS
TCL: Running for 1500000 steps
ETITLE: TS BOND ANGLE DIHED IMPRP ELECT VDW BOUNDARY MISC KINETIC TOTAL TEMP POTENTIAL TOTALAVG TEMPAVG PRESSURE GPRESSURE VOLUME PRESSAVG GPRESSAVG
ENERGY: 0 0.0000 0.7165 0.0000 0.0000 -10763.1676 1506.4471 0.0000 0.0000 1747.4382 -7508.5658 299.8639 -9256.0040 -7508.5658 299.8639 630.0615 708.6521 29744.8520 630.0615 708.6521
ENERGY: 300000 0.0000 0.4909 0.0000 0.0000 -10583.5371 1381.1637 0.0000 0.0000 1724.9181 -7476.9644 295.9994 -9201.8825 -7457.5237 298.4881 -332.2773 -310.6284 30123.3811 -11.6926 51.3736
ENERGY: 600000 0.0000 0.7295 0.0000 0.0000 -10651.7232 1443.5637 0.0000 0.0000 1757.0070 -7450.4230 301.5059 -9207.4300 -7475.8561 298.5710 332.5598 300.0086 30008.0188 -46.1372 11.1754
ENERGY: 900000 0.0000 0.1457 0.0000 0.0000 -10620.1664 1415.8955 0.0000 0.0000 1795.1495 -7408.9758 308.0513 -9204.1253 -7462.4558 298.5909 -141.9460 -64.6174 30361.0276 -136.8089 -71.7596
ENERGY: 1200000 0.0000 1.8210 0.0000 0.0000 -10690.4871 1459.6752 0.0000 0.0000 1769.7834 -7459.2075 303.6984 -9228.9909 -7465.6105 299.4153 86.8962 188.8695 30175.5645 -70.8978 -9.4649
ENERGY: 1500000 0.0000 0.1506 0.0000 0.0000 -10623.8951 1393.1344 0.0000 0.0000 1729.2238 -7501.3863 296.7383 -9230.6101 -7471.4339 299.0283 -493.7403 -455.9854 30512.6212 -137.8533 -70.7888
TCL: Running FEP window  20: Lambda1 0.049999999999999684 Lambda2 0.0    [dLambda -0.049999999999999684]
TCL: Setting parameter firsttimestep to 0
TCL: Setting parameter alchLambda to 0.049999999999999684
Info: NONBONDED TABLE R-SQUARED SPACING: 0.0625
Info: NONBONDED TABLE SIZE: 705 POINTS
TCL: Setting parameter alchLambda2 to 0.0
Info: NONBONDED TABLE R-SQUARED SPACING: 0.0625
Info: NONBONDED TABLE SIZE: 705 POINTS
TCL: Running for 1500000 steps
ETITLE: TS BOND ANGLE DIHED IMPRP ELECT VDW BOUNDARY MISC KINETIC TOTAL TEMP POTENTIAL TOTALAVG TEMPAVG PRESSURE GPRESSURE VOLUME PRESSAVG GPRESSAVG
ENERGY: 0 0.0000 0.1506 0.0000 0.0000 -10623.8949 1392.8866 0.0000 0.0000 1728.3854 -7502.4722 296.5944 -9230.8577 -7502.4722 296.5944 -540.1141 -456.3406 30512.6212 -540.1141 -456.3406
ENERGY: 300000 0.0000 0.9254 0.0000 0.0000 -10764.5903 1511.0812 0.0000 0.0000 1713.8139 -7538.7699 294.0939 -9252.5837 -7485.8445 298.3669 912.4709 987.0465 29344.3139 178.6724 246.9884
ENERGY: 600000 0.0000 0.6256 0.0000 0.0000 -10539.5610 1355.7540 0.0000 0.0000 1715.4323 -7467.7492 294.3716 -9183.1815 -7481.9844 298.0260 -507.4159 -481.8311 30197.5064 4.1436 58.2965
ENERGY: 900000 0.0000 1.1017 0.0000 0.0000 -10470.7237 1329.4802 0.0000 0.0000 1717.0220 -7423.1198 294.6444 -9140.1418 -7466.8954 299.2869 -695.6507 -649.9239 30567.8112 1.3339 66.3975
ENERGY: 1200000 0.0000 2.0268 0.0000 0.0000 -10522.2654 1386.3918 0.0000 0.0000 1768.1480 -7365.6987 303.4178 -9133.8468 -7461.0225 300.0327 -268.4000 -192.3846 30488.3975 -22.5816 42.6310
ENERGY: 1500000 0.0000 1.1846 0.0000 0.0000 -10563.2787 1349.0579 0.0000 0.0000 1740.9841 -7472.0521 298.7564 -9213.0362 -7463.1811 300.2073 -544.4209 -428.7722 29775.0609 -36.7168 30.8630
TCL: Exiting due to exit command.
