Info: SIMULATION PARAMETERS:
Info: TIMESTEP               2
Info: NUMBER OF STEPS        0
Info: STEPS PER CYCLE        10
Info: PERIODIC CELL BASIS 1  36.005 0 0
Info: PERIODIC CELL BASIS 2  0 35.267 0
Info: PERIODIC CELL BASIS 3  0 0 34.954
Info: PERIODIC CELL CENTER   0 0 0
Info: WRAPPING WATERS AROUND PERIODIC BOUNDARIES ON OUTPUT.
Info: WRAPPING ALL CLUSTERS AROUND PERIODIC BOUNDARIES ON OUTPUT.
Info: FIRST LDB TIMESTEP     50
Info: LAST LDB TIMESTEP     -1
Info: HOM BACKGROUND SCALING 1
Info: PME BACKGROUND SCALING 1
Info: MIN ATOMS PER PATCH    40
Info: EMPTY PATCH LOAD       40 ATOMS
Info: INITIAL TEMPERATURE    300
Info: CENTER OF MASS MOVING INITIALLY? NO
Info: DIELECTRIC             1
Info: EXCLUDE                SCALED ONE-FOUR
Info: 1-4 ELECTROSTATICS SCALED BY 0.833333
Info: MODIFIED 1-4 VDW PARAMETERS WILL BE USED
Info: DCD FILENAME           mobley_36119_equil.dcd
Info: DCD FREQUENCY          100000
Info: DCD FIRST STEP         100000
Info: DCD FILE WILL CONTAIN UNIT CELL DATA
Info: XST FILENAME           mobley_36119_equil.xst
Info: XST FREQUENCY          100000
Info: NO VELOCITY DCD OUTPUT
Info: NO FORCE DCD OUTPUT
Info: OUTPUT FILENAME        mobley_36119_equil
Info: BINARY OUTPUT FILES WILL BE USED
Info: RESTART FILENAME       mobley_36119_equil.restart
Info: RESTART FREQUENCY      100000
Info: BINARY RESTART FILES WILL BE USED
Info: CUTOFF                 9
Info: PAIRLIST DISTANCE      11
Info: PAIRLIST SHRINK RATE   0.01
Info: PAIRLIST GROW RATE     0.01
Info: PAIRLIST TRIGGER       0.3
Info: PAIRLISTS PER CYCLE    2
Info: PAIRLISTS ENABLED
Info: MARGIN                 8
Info: HYDROGEN GROUP CUTOFF  2.5
Info: PATCH DIMENSION        21.5
Info: ENERGY OUTPUT STEPS    100000
Info: ENERGY EVALUATION STEPS    100000
Info: OUTPUT ENERGY PRECISION 4
Info: CROSSTERM ENERGY INCLUDED IN DIHEDRAL
Info: TIMING OUTPUT STEPS    1000000
Info: PRESSURE OUTPUT STEPS  100000
Info: LANGEVIN DYNAMICS ACTIVE
Info: LANGEVIN TEMPERATURE   30
Info: LANGEVIN USING BBK INTEGRATOR
Info: LANGEVIN DAMPING COEFFICIENT IS 1 INVERSE PS
Info: LANGEVIN DYNAMICS APPLIED TO HYDROGENS
Info: LANGEVIN PISTON PRESSURE CONTROL ACTIVE
Info:        TARGET PRESSURE IS 1.01325 BAR
Info:     OSCILLATION PERIOD IS 50 FS
Info:             DECAY TIME IS 25 FS
Info:     PISTON TEMPERATURE IS 300 K
Info:       PRESSURE CONTROL IS GROUP-BASED
Info:    INITIAL STRAIN RATE IS 0 0 0
Info:       CELL FLUCTUATION IS ISOTROPIC
Info: PARTICLE MESH EWALD (PME) ACTIVE
Info: PME TOLERANCE               1e-06
Info: PME EWALD COEFFICIENT       0.348832
Info: PME INTERPOLATION ORDER     4
Info: PME GRID DIMENSIONS         40 36 36
Info: PME MAXIMUM GRID SPACING    1
Info: FULL ELECTROSTATIC EVALUATION FREQUENCY      2
Info: USING VERLET I (r-RESPA) MTS SCHEME.
Info: C1 SPLITTING OF LONG RANGE ELECTROSTATICS
Info: PLACING ATOMS IN PATCHES BY HYDROGEN GROUPS
Info: RIGID BONDS TO HYDROGEN : ALL
Info:         ERROR TOLERANCE : 1e-08
Info:          MAX ITERATIONS : 100
Info: RIGID WATER USING SETTLE ALGORITHM
Info: RANDOM NUMBER SEED     1743261638
Info: USE HYDROGEN BONDS?    NO
Info: Using AMBER format force field!
Info: AMBER PARM FILE        mobley_36119.prmtop
Info: COORDINATE PDB         mobley_36119.pdb
Info: Exclusions will be read from PARM file!
Info: SCNB (VDW SCALING)     2
Info: USING ARITHMETIC MEAN TO COMBINE L-J SIGMA PARAMETERS
Info: BINARY COORDINATES     mobley_36119_min.coor
Info: SUMMARY OF PARAMETERS:
Info: 7 BONDS
Info: 8 ANGLES
Info:   8 HARMONIC
Info:   0 COSINE-BASED
Info: 9 DIHEDRAL
Info: 0 IMPROPER
Info: 0 CROSSTERM
Info: 0 VDW
Info: 21 VDW_PAIRS
Info: 0 NBTHOLE_PAIRS
Info: STRUCTURE SUMMARY:
Info: 2916 ATOMS
Info: 2915 BONDS
Info: 49 ANGLES
Info: 79 DIHEDRALS
Info: 0 IMPROPERS
Info: 0 CROSSTERMS
Info: 3030 EXCLUSIONS
Info: 2907 RIGID BONDS
Info: 5841 DEGREES OF FREEDOM
Info: 972 HYDROGEN GROUPS
Info: 4 ATOMS IN LARGEST HYDROGEN GROUP
Info: 972 MIGRATION GROUPS
Info: 4 ATOMS IN LARGEST MIGRATION GROUP
Info: TOTAL MASS = 17479.6 amu
Info: TOTAL CHARGE = -1.49012e-08 e
Info: MASS DENSITY = 0.653978 g/cm^3
Info: ATOM DENSITY = 0.0656991 atoms/A^3
Info: ADDED 0 IMPLICIT EXCLUSIONS
Info: NONBONDED TABLE R-SQUARED SPACING: 0.0625
Info: NONBONDED TABLE SIZE: 705 POINTS
Info: REMOVING COM VELOCITY -0.098578 -0.05438 -0.141266
TCL: Running for 100000 steps
ETITLE: TS BOND ANGLE DIHED IMPRP ELECT VDW BOUNDARY MISC KINETIC TOTAL TEMP POTENTIAL TOTAL3 TEMPAVG PRESSURE GPRESSURE VOLUME PRESSAVG GPRESSAVG
ENERGY: 0 0.1237 0.2290 3.6218 0.0000 -13440.8873 2403.1872 0.0000 0.0000 1788.4004 -9245.3253 308.1541 -11033.7257 -9244.9506 308.1541 545.5590 575.2607 44384.1815 545.5590 575.2607
ENERGY: 100000 0.3394 0.8761 3.6224 0.0000 -14040.3647 2531.0652 0.0000 0.0000 179.4054 -11325.0562 30.9128 -11504.4616 -11324.6130 30.9308 860.4869 920.6886 29134.9723 4.1860 4.2399
TCL: Running 100000 steps at 60 kelvin.
TCL: Setting parameter langevinTemp to 60
TCL: Running for 100000 steps
ETITLE: TS BOND ANGLE DIHED IMPRP ELECT VDW BOUNDARY MISC KINETIC TOTAL TEMP POTENTIAL TOTAL3 TEMPAVG PRESSURE GPRESSURE VOLUME PRESSAVG GPRESSAVG
ENERGY: 100000 0.3394 0.8761 3.6224 0.0000 -14040.3647 2531.0652 0.0000 0.0000 179.3168 -11325.1448 30.8976 -11504.4616 -11324.8469 30.8976 864.5561 920.7561 29134.9723 864.5561 920.7561
ENERGY: 200000 0.3479 2.9417 3.5324 0.0000 -13999.5152 2569.7717 0.0000 0.0000 345.3499 -11077.5716 59.5062 -11422.9216 -11077.1220 59.9222 1506.4679 1551.5402 28972.6498 3.3166 3.3145
TCL: Running 100000 steps at 90 kelvin.
TCL: Setting parameter langevinTemp to 90
TCL: Running for 100000 steps
ETITLE: TS BOND ANGLE DIHED IMPRP ELECT VDW BOUNDARY MISC KINETIC TOTAL TEMP POTENTIAL TOTAL3 TEMPAVG PRESSURE GPRESSURE VOLUME PRESSAVG GPRESSAVG
ENERGY: 200000 0.3479 2.9417 3.5324 0.0000 -13999.5152 2569.7717 0.0000 0.0000 345.1751 -11077.7464 59.4761 -11422.9216 -11077.1494 59.4761 1493.3669 1551.1100 28972.6498 1493.3669 1551.1100
ENERGY: 300000 1.6452 3.2329 5.2048 0.0000 -13590.2273 2214.8641 0.0000 0.0000 530.7227 -10834.5576 91.4473 -11365.2803 -10832.9012 89.8634 -1308.7377 -1221.7452 28933.4900 4.0305 4.0990
TCL: Running 100000 steps at 120 kelvin.
TCL: Setting parameter langevinTemp to 120
TCL: Running for 100000 steps
ETITLE: TS BOND ANGLE DIHED IMPRP ELECT VDW BOUNDARY MISC KINETIC TOTAL TEMP POTENTIAL TOTAL3 TEMPAVG PRESSURE GPRESSURE VOLUME PRESSAVG GPRESSAVG
ENERGY: 300000 1.6452 3.2329 5.2048 0.0000 -13590.2273 2214.8641 0.0000 0.0000 530.4696 -10834.8107 91.4037 -11365.2803 -10833.4651 91.4037 -1263.4501 -1220.8091 28933.4900 -1263.4501 -1220.8091
ENERGY: 400000 2.8808 4.7229 3.3936 0.0000 -13513.7097 2263.2587 0.0000 0.0000 709.8192 -10529.6344 122.3069 -11239.4536 -10527.9580 120.1515 -332.9791 -295.9941 28761.7708 3.5783 3.5250
TCL: Running 100000 steps at 150 kelvin.
TCL: Setting parameter langevinTemp to 150
TCL: Running for 100000 steps
ETITLE: TS BOND ANGLE DIHED IMPRP ELECT VDW BOUNDARY MISC KINETIC TOTAL TEMP POTENTIAL TOTAL3 TEMPAVG PRESSURE GPRESSURE VOLUME PRESSAVG GPRESSAVG
ENERGY: 400000 2.8808 4.7229 3.3936 0.0000 -13513.7097 2263.2587 0.0000 0.0000 709.4786 -10529.9750 122.2482 -11239.4536 -10528.4269 122.2482 -344.0796 -296.4103 28761.7708 -344.0796 -296.4103
ENERGY: 500000 0.3546 6.9905 4.0620 0.0000 -13387.9282 2263.2796 0.0000 0.0000 878.1229 -10235.1185 151.3068 -11113.2415 -10232.1687 150.0602 220.4156 247.5521 28775.9749 3.4157 3.3713
TCL: Running 100000 steps at 180 kelvin.
TCL: Setting parameter langevinTemp to 180
TCL: Running for 100000 steps
ETITLE: TS BOND ANGLE DIHED IMPRP ELECT VDW BOUNDARY MISC KINETIC TOTAL TEMP POTENTIAL TOTAL3 TEMPAVG PRESSURE GPRESSURE VOLUME PRESSAVG GPRESSAVG
ENERGY: 500000 0.3546 6.9905 4.0620 0.0000 -13387.9282 2263.2796 0.0000 0.0000 877.6971 -10235.5444 151.2334 -11113.2415 -10233.6605 151.2334 194.8381 248.3475 28775.9749 194.8381 248.3475
ENERGY: 600000 1.0011 8.8984 4.0558 0.0000 -12984.1904 2102.0162 0.0000 0.0000 1069.2474 -9798.9714 184.2389 -10868.2188 -9795.6444 179.8485 -108.1631 -64.8701 28671.4940 2.7984 2.8481
TCL: Running 100000 steps at 210 kelvin.
TCL: Setting parameter langevinTemp to 210
TCL: Running for 100000 steps
ETITLE: TS BOND ANGLE DIHED IMPRP ELECT VDW BOUNDARY MISC KINETIC TOTAL TEMP POTENTIAL TOTAL3 TEMPAVG PRESSURE GPRESSURE VOLUME PRESSAVG GPRESSAVG
ENERGY: 600000 1.0011 8.8984 4.0558 0.0000 -12984.1904 2102.0162 0.0000 0.0000 1068.7395 -9799.4793 184.1514 -10868.2188 -9797.5663 184.1514 -119.4142 -64.4510 28671.4940 -119.4142 -64.4510
ENERGY: 700000 1.7274 11.9966 4.9767 0.0000 -12134.5907 1835.0489 0.0000 0.0000 1210.9094 -9069.9317 208.6483 -10280.8411 -9066.6663 209.8474 50.2692 180.5370 28243.9535 3.4232 3.4762
TCL: Running 100000 steps at 240 kelvin.
TCL: Setting parameter langevinTemp to 240
TCL: Running for 100000 steps
ETITLE: TS BOND ANGLE DIHED IMPRP ELECT VDW BOUNDARY MISC KINETIC TOTAL TEMP POTENTIAL TOTAL3 TEMPAVG PRESSURE GPRESSURE VOLUME PRESSAVG GPRESSAVG
ENERGY: 700000 1.7274 11.9966 4.9767 0.0000 -12134.5907 1835.0489 0.0000 0.0000 1210.2833 -9070.5578 208.5404 -10280.8411 -9068.7893 208.5404 110.3723 180.3997 28243.9535 110.3723 180.3997
ENERGY: 800000 1.8747 8.0071 6.1927 0.0000 -11697.3529 1784.2529 0.0000 0.0000 1382.7953 -8514.2302 238.2654 -9897.0255 -8511.1584 239.9674 1047.1765 1087.2119 28242.7910 3.8656 3.9010
TCL: Running 100000 steps at 270 kelvin.
TCL: Setting parameter langevinTemp to 270
TCL: Running for 100000 steps
ETITLE: TS BOND ANGLE DIHED IMPRP ELECT VDW BOUNDARY MISC KINETIC TOTAL TEMP POTENTIAL TOTAL3 TEMPAVG PRESSURE GPRESSURE VOLUME PRESSAVG GPRESSAVG
ENERGY: 800000 1.8747 8.0071 6.1927 0.0000 -11697.3529 1784.2529 0.0000 0.0000 1382.0929 -8514.9325 238.1444 -9897.0255 -8512.4279 238.1444 1001.6307 1087.2352 28242.7910 1001.6307 1087.2352
ENERGY: 900000 4.1558 7.8910 5.9929 0.0000 -11137.4705 1602.8456 0.0000 0.0000 1555.0384 -7961.5467 267.9442 -9516.5851 -7959.2672 270.2531 398.1374 509.7101 29227.1537 1.9683 2.1020
TCL: Running 1000000 steps at 300 kelvin.
TCL: Setting parameter langevinTemp to 300
TCL: Running for 1000000 steps
ETITLE: TS BOND ANGLE DIHED IMPRP ELECT VDW BOUNDARY MISC KINETIC TOTAL TEMP POTENTIAL TOTAL3 TEMPAVG PRESSURE GPRESSURE VOLUME PRESSAVG GPRESSAVG
ENERGY: 900000 4.1558 7.8910 5.9929 0.0000 -11137.4705 1602.8456 0.0000 0.0000 1554.2560 -7962.3291 267.8093 -9516.5851 -7961.1347 267.8093 420.0601 510.8877 29227.1537 420.0601 510.8877
ENERGY: 1100000 5.9567 14.3548 5.4206 0.0000 -10479.7251 1393.2150 0.0000 0.0000 1708.4089 -7352.3690 294.3710 -9060.7779 -7349.7603 300.1812 -274.7258 -179.9093 30226.3025 3.8407 4.0746
ENERGY: 1300000 1.0228 13.3032 6.3148 0.0000 -10590.4335 1535.2127 0.0000 0.0000 1755.0017 -7279.5782 302.3993 -9034.5800 -7276.2454 299.8556 1421.8587 1475.3028 29586.0759 3.1596 3.3162
ENERGY: 1500000 0.6890 12.7308 5.6014 0.0000 -10525.7908 1420.1769 0.0000 0.0000 1779.1438 -7307.4489 306.5591 -9086.5928 -7302.8024 300.8413 -264.4822 -91.3746 30382.7777 2.6812 2.6704
ENERGY: 1700000 2.9132 9.6390 5.6513 0.0000 -10608.8002 1448.1535 0.0000 0.0000 1734.9926 -7407.4506 298.9515 -9142.4432 -7403.4038 299.8856 183.9957 292.0147 29928.1320 3.9725 3.7940
ENERGY: 1900000 2.8667 8.8658 5.7019 0.0000 -10528.1870 1466.6125 0.0000 0.0000 1777.9349 -7266.2052 306.3508 -9044.1401 -7261.9002 300.8582 486.0208 574.2783 30148.2692 4.1537 4.1749
TCL: Exiting due to exit command.
