Info: SIMULATION PARAMETERS:
Info: TIMESTEP               2
Info: NUMBER OF STEPS        0
Info: STEPS PER CYCLE        10
Info: PERIODIC CELL BASIS 1  36.592 0 0
Info: PERIODIC CELL BASIS 2  0 34.26 0
Info: PERIODIC CELL BASIS 3  0 0 35.723
Info: PERIODIC CELL CENTER   0 0 0
Info: WRAPPING WATERS AROUND PERIODIC BOUNDARIES ON OUTPUT.
Info: WRAPPING ALL CLUSTERS AROUND PERIODIC BOUNDARIES ON OUTPUT.
Info: FIRST LDB TIMESTEP     50
Info: LAST LDB TIMESTEP     -1
Info: HOM BACKGROUND SCALING 1
Info: PME BACKGROUND SCALING 1
Info: MIN ATOMS PER PATCH    40
Info: EMPTY PATCH LOAD       40 ATOMS
Info: INITIAL TEMPERATURE    300
Info: CENTER OF MASS MOVING INITIALLY? NO
Info: DIELECTRIC             1
Info: EXCLUDE                SCALED ONE-FOUR
Info: 1-4 ELECTROSTATICS SCALED BY 0.833333
Info: MODIFIED 1-4 VDW PARAMETERS WILL BE USED
Info: DCD FILENAME           mobley_6804509_equil.dcd
Info: DCD FREQUENCY          100000
Info: DCD FIRST STEP         100000
Info: DCD FILE WILL CONTAIN UNIT CELL DATA
Info: XST FILENAME           mobley_6804509_equil.xst
Info: XST FREQUENCY          100000
Info: NO VELOCITY DCD OUTPUT
Info: NO FORCE DCD OUTPUT
Info: OUTPUT FILENAME        mobley_6804509_equil
Info: BINARY OUTPUT FILES WILL BE USED
Info: RESTART FILENAME       mobley_6804509_equil.restart
Info: RESTART FREQUENCY      100000
Info: BINARY RESTART FILES WILL BE USED
Info: CUTOFF                 9
Info: PAIRLIST DISTANCE      11
Info: PAIRLIST SHRINK RATE   0.01
Info: PAIRLIST GROW RATE     0.01
Info: PAIRLIST TRIGGER       0.3
Info: PAIRLISTS PER CYCLE    2
Info: PAIRLISTS ENABLED
Info: MARGIN                 8
Info: HYDROGEN GROUP CUTOFF  2.5
Info: PATCH DIMENSION        21.5
Info: ENERGY OUTPUT STEPS    100000
Info: ENERGY EVALUATION STEPS    100000
Info: OUTPUT ENERGY PRECISION 4
Info: CROSSTERM ENERGY INCLUDED IN DIHEDRAL
Info: TIMING OUTPUT STEPS    1000000
Info: PRESSURE OUTPUT STEPS  100000
Info: LANGEVIN DYNAMICS ACTIVE
Info: LANGEVIN TEMPERATURE   30
Info: LANGEVIN USING BBK INTEGRATOR
Info: LANGEVIN DAMPING COEFFICIENT IS 1 INVERSE PS
Info: LANGEVIN DYNAMICS APPLIED TO HYDROGENS
Info: LANGEVIN PISTON PRESSURE CONTROL ACTIVE
Info:        TARGET PRESSURE IS 1.01325 BAR
Info:     OSCILLATION PERIOD IS 50 FS
Info:             DECAY TIME IS 25 FS
Info:     PISTON TEMPERATURE IS 300 K
Info:       PRESSURE CONTROL IS GROUP-BASED
Info:    INITIAL STRAIN RATE IS 0 0 0
Info:       CELL FLUCTUATION IS ISOTROPIC
Info: PARTICLE MESH EWALD (PME) ACTIVE
Info: PME TOLERANCE               1e-06
Info: PME EWALD COEFFICIENT       0.348832
Info: PME INTERPOLATION ORDER     4
Info: PME GRID DIMENSIONS         40 36 36
Info: PME MAXIMUM GRID SPACING    1
Info: FULL ELECTROSTATIC EVALUATION FREQUENCY      2
Info: USING VERLET I (r-RESPA) MTS SCHEME.
Info: C1 SPLITTING OF LONG RANGE ELECTROSTATICS
Info: PLACING ATOMS IN PATCHES BY HYDROGEN GROUPS
Info: RIGID BONDS TO HYDROGEN : ALL
Info:         ERROR TOLERANCE : 1e-08
Info:          MAX ITERATIONS : 100
Info: RIGID WATER USING SETTLE ALGORITHM
Info: RANDOM NUMBER SEED     1743164069
Info: USE HYDROGEN BONDS?    NO
Info: Using AMBER format force field!
Info: AMBER PARM FILE        mobley_6804509.prmtop
Info: COORDINATE PDB         mobley_6804509.pdb
Info: Exclusions will be read from PARM file!
Info: SCNB (VDW SCALING)     2
Info: USING ARITHMETIC MEAN TO COMBINE L-J SIGMA PARAMETERS
Info: BINARY COORDINATES     mobley_6804509_min.coor
Info: SUMMARY OF PARAMETERS:
Info: 5 BONDS
Info: 3 ANGLES
Info:   3 HARMONIC
Info:   0 COSINE-BASED
Info: 2 DIHEDRAL
Info: 0 IMPROPER
Info: 0 CROSSTERM
Info: 0 VDW
Info: 15 VDW_PAIRS
Info: 0 NBTHOLE_PAIRS
Info: STRUCTURE SUMMARY:
Info: 2964 ATOMS
Info: 2964 BONDS
Info: 18 ANGLES
Info: 30 DIHEDRALS
Info: 0 IMPROPERS
Info: 0 CROSSTERMS
Info: 3003 EXCLUSIONS
Info: 2954 RIGID BONDS
Info: 5938 DEGREES OF FREEDOM
Info: 994 HYDROGEN GROUPS
Info: 3 ATOMS IN LARGEST HYDROGEN GROUP
Info: 994 MIGRATION GROUPS
Info: 3 ATOMS IN LARGEST MIGRATION GROUP
Info: TOTAL MASS = 17943.6 amu
Info: TOTAL CHARGE = -9.99942e-05 e
Info: MASS DENSITY = 0.665347 g/cm^3
Info: ATOM DENSITY = 0.0661846 atoms/A^3
Info: ADDED 0 IMPLICIT EXCLUSIONS
Info: NONBONDED TABLE R-SQUARED SPACING: 0.0625
Info: NONBONDED TABLE SIZE: 705 POINTS
Info: REMOVING COM VELOCITY -0.0761778 0.0722206 -0.0634905
TCL: Running for 100000 steps
ETITLE: TS BOND ANGLE DIHED IMPRP ELECT VDW BOUNDARY MISC KINETIC TOTAL TEMP POTENTIAL TOTAL3 TEMPAVG PRESSURE GPRESSURE VOLUME PRESSAVG GPRESSAVG
ENERGY: 0 0.1764 0.2719 0.0082 0.0000 -13595.3800 2341.0373 0.0000 0.0000 1743.6316 -9510.2545 295.5323 -11253.8861 -9509.9296 295.5323 170.4005 204.0230 44783.8503 170.4005 204.0230
ENERGY: 100000 0.2489 0.6412 0.0935 0.0000 -14315.7232 2575.5511 0.0000 0.0000 177.6879 -11561.5006 30.1168 -11739.1886 -11561.2337 30.9330 753.0290 816.3641 29670.4980 3.7926 3.8172
TCL: Running 100000 steps at 60 kelvin.
TCL: Setting parameter langevinTemp to 60
TCL: Running for 100000 steps
ETITLE: TS BOND ANGLE DIHED IMPRP ELECT VDW BOUNDARY MISC KINETIC TOTAL TEMP POTENTIAL TOTAL3 TEMPAVG PRESSURE GPRESSURE VOLUME PRESSAVG GPRESSAVG
ENERGY: 100000 0.2489 0.6412 0.0935 0.0000 -14315.7232 2575.5511 0.0000 0.0000 177.6000 -11561.5885 30.1019 -11739.1886 -11561.2486 30.1019 750.2165 816.2070 29670.4980 750.2165 816.2070
ENERGY: 200000 0.3333 0.7329 0.6069 0.0000 -14109.1242 2414.1082 0.0000 0.0000 365.6168 -11327.7261 61.9693 -11693.3429 -11326.5879 60.1107 -165.3694 -114.6074 29404.1913 4.0619 4.0852
TCL: Running 100000 steps at 90 kelvin.
TCL: Setting parameter langevinTemp to 90
TCL: Running for 100000 steps
ETITLE: TS BOND ANGLE DIHED IMPRP ELECT VDW BOUNDARY MISC KINETIC TOTAL TEMP POTENTIAL TOTAL3 TEMPAVG PRESSURE GPRESSURE VOLUME PRESSAVG GPRESSAVG
ENERGY: 200000 0.3333 0.7329 0.6069 0.0000 -14109.1242 2414.1082 0.0000 0.0000 365.4451 -11327.8978 61.9402 -11693.3429 -11327.0498 61.9402 -182.7390 -114.8235 29404.1913 -182.7390 -114.8235
ENERGY: 300000 0.7680 0.5949 1.0260 0.0000 -14032.2482 2415.4582 0.0000 0.0000 539.0242 -11075.3770 91.3605 -11614.4012 -11073.9743 89.8996 362.1330 442.4432 29042.1552 4.8722 4.7743
TCL: Running 100000 steps at 120 kelvin.
TCL: Setting parameter langevinTemp to 120
TCL: Running for 100000 steps
ETITLE: TS BOND ANGLE DIHED IMPRP ELECT VDW BOUNDARY MISC KINETIC TOTAL TEMP POTENTIAL TOTAL3 TEMPAVG PRESSURE GPRESSURE VOLUME PRESSAVG GPRESSAVG
ENERGY: 300000 0.7680 0.5949 1.0260 0.0000 -14032.2482 2415.4582 0.0000 0.0000 538.7573 -11075.6439 91.3153 -11614.4012 -11074.6155 91.3153 382.7874 442.1626 29042.1552 382.7874 442.1626
ENERGY: 400000 2.4402 3.3419 0.8678 0.0000 -13784.6496 2309.9205 0.0000 0.0000 699.8151 -10768.2640 118.6133 -11468.0791 -10767.0483 119.8789 -135.3003 -88.6356 29023.7479 5.2562 5.2616
TCL: Running 100000 steps at 150 kelvin.
TCL: Setting parameter langevinTemp to 150
TCL: Running for 100000 steps
ETITLE: TS BOND ANGLE DIHED IMPRP ELECT VDW BOUNDARY MISC KINETIC TOTAL TEMP POTENTIAL TOTAL3 TEMPAVG PRESSURE GPRESSURE VOLUME PRESSAVG GPRESSAVG
ENERGY: 400000 2.4402 3.3419 0.8678 0.0000 -13784.6496 2309.9205 0.0000 0.0000 699.4520 -10768.6272 118.5518 -11468.0791 -10767.5603 118.5518 -142.8013 -88.3288 29023.7479 -142.8013 -88.3288
ENERGY: 500000 2.7434 1.6896 0.9508 0.0000 -13443.9158 2117.7483 0.0000 0.0000 859.2236 -10461.5601 145.6319 -11320.7837 -10460.1456 149.9897 -1172.5561 -1116.0366 29135.1596 4.6764 4.6182
TCL: Running 100000 steps at 180 kelvin.
TCL: Setting parameter langevinTemp to 180
TCL: Running for 100000 steps
ETITLE: TS BOND ANGLE DIHED IMPRP ELECT VDW BOUNDARY MISC KINETIC TOTAL TEMP POTENTIAL TOTAL3 TEMPAVG PRESSURE GPRESSURE VOLUME PRESSAVG GPRESSAVG
ENERGY: 500000 2.7434 1.6896 0.9508 0.0000 -13443.9158 2117.7483 0.0000 0.0000 858.7657 -10462.0180 145.5542 -11320.7837 -10460.3658 145.5542 -1157.3186 -1116.2336 29135.1596 -1157.3186 -1116.2336
ENERGY: 600000 1.6669 1.6983 1.8079 0.0000 -13110.9492 2056.5638 0.0000 0.0000 1028.5715 -10020.6409 174.3350 -11049.2125 -10017.7419 179.7600 -495.9966 -407.8563 28953.5701 3.3155 3.3296
TCL: Running 100000 steps at 210 kelvin.
TCL: Setting parameter langevinTemp to 210
TCL: Running for 100000 steps
ETITLE: TS BOND ANGLE DIHED IMPRP ELECT VDW BOUNDARY MISC KINETIC TOTAL TEMP POTENTIAL TOTAL3 TEMPAVG PRESSURE GPRESSURE VOLUME PRESSAVG GPRESSAVG
ENERGY: 600000 1.6669 1.6983 1.8079 0.0000 -13110.9492 2056.5638 0.0000 0.0000 1028.0599 -10021.1526 174.2483 -11049.2125 -10019.2802 174.2483 -479.2039 -407.2849 28953.5701 -479.2039 -407.2849
ENERGY: 700000 3.3482 0.7292 2.5758 0.0000 -12578.4131 1956.3186 0.0000 0.0000 1232.3799 -9383.0614 208.8790 -10615.4414 -9380.5591 209.8224 215.7258 314.0304 28995.5896 3.3015 3.2582
TCL: Running 100000 steps at 240 kelvin.
TCL: Setting parameter langevinTemp to 240
TCL: Running for 100000 steps
ETITLE: TS BOND ANGLE DIHED IMPRP ELECT VDW BOUNDARY MISC KINETIC TOTAL TEMP POTENTIAL TOTAL3 TEMPAVG PRESSURE GPRESSURE VOLUME PRESSAVG GPRESSAVG
ENERGY: 700000 3.3482 0.7292 2.5758 0.0000 -12578.4131 1956.3186 0.0000 0.0000 1231.7692 -9383.6722 208.7755 -10615.4414 -9381.5746 208.7755 234.8531 315.3497 28995.5896 234.8531 315.3497
ENERGY: 800000 4.4983 1.8763 1.8340 0.0000 -11869.2446 1746.7174 0.0000 0.0000 1441.2822 -8673.0365 244.2864 -10114.3187 -8671.0575 239.6924 221.7269 302.2088 29268.8324 3.5954 3.7240
TCL: Running 100000 steps at 270 kelvin.
TCL: Setting parameter langevinTemp to 270
TCL: Running for 100000 steps
ETITLE: TS BOND ANGLE DIHED IMPRP ELECT VDW BOUNDARY MISC KINETIC TOTAL TEMP POTENTIAL TOTAL3 TEMPAVG PRESSURE GPRESSURE VOLUME PRESSAVG GPRESSAVG
ENERGY: 800000 4.4983 1.8763 1.8340 0.0000 -11869.2446 1746.7174 0.0000 0.0000 1440.5760 -8673.7427 244.1667 -10114.3187 -8671.7212 244.1667 206.0339 301.7660 29268.8324 206.0339 301.7660
ENERGY: 900000 3.3498 0.9667 2.1459 0.0000 -11435.5662 1653.8081 0.0000 0.0000 1628.7216 -8146.5741 276.0559 -9775.2957 -8142.8392 270.0784 515.2490 620.1608 29479.6154 3.4498 3.4969
TCL: Running 1000000 steps at 300 kelvin.
TCL: Setting parameter langevinTemp to 300
TCL: Running for 1000000 steps
ETITLE: TS BOND ANGLE DIHED IMPRP ELECT VDW BOUNDARY MISC KINETIC TOTAL TEMP POTENTIAL TOTAL3 TEMPAVG PRESSURE GPRESSURE VOLUME PRESSAVG GPRESSAVG
ENERGY: 900000 3.3498 0.9667 2.1459 0.0000 -11435.5662 1653.8081 0.0000 0.0000 1627.9007 -8147.3950 275.9168 -9775.2957 -8145.1487 275.9168 538.8937 620.3055 29479.6154 538.8937 620.3055
ENERGY: 1100000 3.0697 1.6608 3.1295 0.0000 -10632.1163 1379.2084 0.0000 0.0000 1791.0621 -7453.9858 303.5714 -9245.0479 -7452.3515 299.9281 -666.3685 -535.7710 31281.2748 3.3673 3.3766
ENERGY: 1300000 4.8451 6.2788 4.3546 0.0000 -10755.5098 1418.5616 0.0000 0.0000 1770.3802 -7551.0895 300.0660 -9321.4696 -7549.3970 299.8781 -559.6260 -425.9603 30661.8348 2.8820 2.9164
ENERGY: 1500000 5.4402 4.0355 1.7758 0.0000 -10805.7547 1477.1485 0.0000 0.0000 1798.0049 -7519.3498 304.7481 -9317.3547 -7515.8715 299.6988 -115.8421 12.5386 31031.0000 4.2292 4.2796
ENERGY: 1700000 3.2168 2.2321 1.4728 0.0000 -10820.1994 1447.2452 0.0000 0.0000 1789.3296 -7576.7028 303.2777 -9366.0325 -7572.3748 300.2288 -241.1428 -175.3960 30824.1705 4.3716 4.3543
ENERGY: 1900000 7.7084 5.0950 4.4687 0.0000 -10713.7336 1367.9449 0.0000 0.0000 1832.6549 -7495.8618 310.6210 -9328.5166 -7493.5148 300.4208 -966.0040 -841.3627 30918.0526 3.2925 3.2951
TCL: Exiting due to exit command.
