Info: SIMULATION PARAMETERS:
Info: TIMESTEP               2
Info: NUMBER OF STEPS        0
Info: STEPS PER CYCLE        10
Info: PERIODIC CELL BASIS 1  35.436 0 0
Info: PERIODIC CELL BASIS 2  0 35.411 0
Info: PERIODIC CELL BASIS 3  0 0 35.723
Info: PERIODIC CELL CENTER   0 0 0
Info: WRAPPING WATERS AROUND PERIODIC BOUNDARIES ON OUTPUT.
Info: WRAPPING ALL CLUSTERS AROUND PERIODIC BOUNDARIES ON OUTPUT.
Info: FIRST LDB TIMESTEP     50
Info: LAST LDB TIMESTEP     -1
Info: HOM BACKGROUND SCALING 1
Info: PME BACKGROUND SCALING 1
Info: MIN ATOMS PER PATCH    40
Info: EMPTY PATCH LOAD       40 ATOMS
Info: INITIAL TEMPERATURE    300
Info: CENTER OF MASS MOVING INITIALLY? NO
Info: DIELECTRIC             1
Info: EXCLUDE                SCALED ONE-FOUR
Info: 1-4 ELECTROSTATICS SCALED BY 0.833333
Info: MODIFIED 1-4 VDW PARAMETERS WILL BE USED
Info: DCD FILENAME           mobley_1896013_equil.dcd
Info: DCD FREQUENCY          100000
Info: DCD FIRST STEP         100000
Info: DCD FILE WILL CONTAIN UNIT CELL DATA
Info: XST FILENAME           mobley_1896013_equil.xst
Info: XST FREQUENCY          100000
Info: NO VELOCITY DCD OUTPUT
Info: NO FORCE DCD OUTPUT
Info: OUTPUT FILENAME        mobley_1896013_equil
Info: BINARY OUTPUT FILES WILL BE USED
Info: RESTART FILENAME       mobley_1896013_equil.restart
Info: RESTART FREQUENCY      100000
Info: BINARY RESTART FILES WILL BE USED
Info: CUTOFF                 9
Info: PAIRLIST DISTANCE      11
Info: PAIRLIST SHRINK RATE   0.01
Info: PAIRLIST GROW RATE     0.01
Info: PAIRLIST TRIGGER       0.3
Info: PAIRLISTS PER CYCLE    2
Info: PAIRLISTS ENABLED
Info: MARGIN                 8
Info: HYDROGEN GROUP CUTOFF  2.5
Info: PATCH DIMENSION        21.5
Info: ENERGY OUTPUT STEPS    100000
Info: ENERGY EVALUATION STEPS    100000
Info: OUTPUT ENERGY PRECISION 4
Info: CROSSTERM ENERGY INCLUDED IN DIHEDRAL
Info: TIMING OUTPUT STEPS    1000000
Info: PRESSURE OUTPUT STEPS  100000
Info: LANGEVIN DYNAMICS ACTIVE
Info: LANGEVIN TEMPERATURE   30
Info: LANGEVIN USING BBK INTEGRATOR
Info: LANGEVIN DAMPING COEFFICIENT IS 1 INVERSE PS
Info: LANGEVIN DYNAMICS APPLIED TO HYDROGENS
Info: LANGEVIN PISTON PRESSURE CONTROL ACTIVE
Info:        TARGET PRESSURE IS 1.01325 BAR
Info:     OSCILLATION PERIOD IS 50 FS
Info:             DECAY TIME IS 25 FS
Info:     PISTON TEMPERATURE IS 300 K
Info:       PRESSURE CONTROL IS GROUP-BASED
Info:    INITIAL STRAIN RATE IS 0 0 0
Info:       CELL FLUCTUATION IS ISOTROPIC
Info: PARTICLE MESH EWALD (PME) ACTIVE
Info: PME TOLERANCE               1e-06
Info: PME EWALD COEFFICIENT       0.348832
Info: PME INTERPOLATION ORDER     4
Info: PME GRID DIMENSIONS         36 36 36
Info: PME MAXIMUM GRID SPACING    1
Info: FULL ELECTROSTATIC EVALUATION FREQUENCY      2
Info: USING VERLET I (r-RESPA) MTS SCHEME.
Info: C1 SPLITTING OF LONG RANGE ELECTROSTATICS
Info: PLACING ATOMS IN PATCHES BY HYDROGEN GROUPS
Info: RIGID BONDS TO HYDROGEN : ALL
Info:         ERROR TOLERANCE : 1e-08
Info:          MAX ITERATIONS : 100
Info: RIGID WATER USING SETTLE ALGORITHM
Info: RANDOM NUMBER SEED     1743217589
Info: USE HYDROGEN BONDS?    NO
Info: Using AMBER format force field!
Info: AMBER PARM FILE        mobley_1896013.prmtop
Info: COORDINATE PDB         mobley_1896013.pdb
Info: Exclusions will be read from PARM file!
Info: SCNB (VDW SCALING)     2
Info: USING ARITHMETIC MEAN TO COMBINE L-J SIGMA PARAMETERS
Info: BINARY COORDINATES     mobley_1896013_min.coor
Info: SUMMARY OF PARAMETERS:
Info: 8 BONDS
Info: 13 ANGLES
Info:   13 HARMONIC
Info:   0 COSINE-BASED
Info: 13 DIHEDRAL
Info: 0 IMPROPER
Info: 0 CROSSTERM
Info: 0 VDW
Info: 28 VDW_PAIRS
Info: 0 NBTHOLE_PAIRS
Info: STRUCTURE SUMMARY:
Info: 2990 ATOMS
Info: 2990 BONDS
Info: 35 ANGLES
Info: 81 DIHEDRALS
Info: 0 IMPROPERS
Info: 0 CROSSTERMS
Info: 3076 EXCLUSIONS
Info: 2980 RIGID BONDS
Info: 5990 DEGREES OF FREEDOM
Info: 1000 HYDROGEN GROUPS
Info: 3 ATOMS IN LARGEST HYDROGEN GROUP
Info: 1000 MIGRATION GROUPS
Info: 3 ATOMS IN LARGEST MIGRATION GROUP
Info: TOTAL MASS = 17986 amu
Info: TOTAL CHARGE = -9.9957e-05 e
Info: MASS DENSITY = 0.666288 g/cm^3
Info: ATOM DENSITY = 0.0667022 atoms/A^3
Info: ADDED 0 IMPLICIT EXCLUSIONS
Info: NONBONDED TABLE R-SQUARED SPACING: 0.0625
Info: NONBONDED TABLE SIZE: 705 POINTS
Info: REMOVING COM VELOCITY -0.0989925 -0.087704 -0.146919
TCL: Running for 100000 steps
ETITLE: TS BOND ANGLE DIHED IMPRP ELECT VDW BOUNDARY MISC KINETIC TOTAL TEMP POTENTIAL TOTAL3 TEMPAVG PRESSURE GPRESSURE VOLUME PRESSAVG GPRESSAVG
ENERGY: 0 0.5778 1.2958 14.1720 0.0000 -13854.2471 2481.0468 0.0000 0.0000 1806.6662 -9550.4885 303.5579 -11357.1547 -9550.1616 303.5579 668.8046 704.4277 44826.0848 668.8046 704.4277
ENERGY: 100000 0.7809 1.7674 13.0105 0.0000 -14333.4377 2430.7617 0.0000 0.0000 178.6731 -11708.4441 30.0208 -11887.1172 -11707.6508 30.9886 -669.3658 -603.5148 29257.2862 4.4835 4.5552
TCL: Running 100000 steps at 60 kelvin.
TCL: Setting parameter langevinTemp to 60
TCL: Running for 100000 steps
ETITLE: TS BOND ANGLE DIHED IMPRP ELECT VDW BOUNDARY MISC KINETIC TOTAL TEMP POTENTIAL TOTAL3 TEMPAVG PRESSURE GPRESSURE VOLUME PRESSAVG GPRESSAVG
ENERGY: 100000 0.7809 1.7674 13.0105 0.0000 -14333.4377 2430.7617 0.0000 0.0000 178.5828 -11708.5344 30.0057 -11887.1172 -11708.0593 30.0057 -656.8589 -603.4343 29257.2862 -656.8589 -603.4343
ENERGY: 200000 1.1825 2.5447 13.8592 0.0000 -14271.9675 2453.5780 0.0000 0.0000 356.0116 -11444.7916 59.8174 -11800.8032 -11443.4274 59.8908 -93.4697 -27.6040 29024.9808 3.9264 3.9077
TCL: Running 100000 steps at 90 kelvin.
TCL: Setting parameter langevinTemp to 90
TCL: Running for 100000 steps
ETITLE: TS BOND ANGLE DIHED IMPRP ELECT VDW BOUNDARY MISC KINETIC TOTAL TEMP POTENTIAL TOTAL3 TEMPAVG PRESSURE GPRESSURE VOLUME PRESSAVG GPRESSAVG
ENERGY: 200000 1.1825 2.5447 13.8592 0.0000 -14271.9675 2453.5780 0.0000 0.0000 355.8317 -11444.9715 59.7872 -11800.8032 -11444.1232 59.7872 -80.4073 -27.7318 29024.9808 -80.4073 -27.7318
ENERGY: 300000 1.1196 3.0307 13.4311 0.0000 -14000.7777 2281.4338 0.0000 0.0000 535.9583 -11165.8043 90.0522 -11701.7625 -11164.3391 89.8809 -1013.9874 -937.0494 28890.4696 3.2896 3.2780
TCL: Running 100000 steps at 120 kelvin.
TCL: Setting parameter langevinTemp to 120
TCL: Running for 100000 steps
ETITLE: TS BOND ANGLE DIHED IMPRP ELECT VDW BOUNDARY MISC KINETIC TOTAL TEMP POTENTIAL TOTAL3 TEMPAVG PRESSURE GPRESSURE VOLUME PRESSAVG GPRESSAVG
ENERGY: 300000 1.1196 3.0307 13.4311 0.0000 -14000.7777 2281.4338 0.0000 0.0000 535.6840 -11166.0785 90.0062 -11701.7625 -11164.9677 90.0062 -1002.7416 -936.9987 28890.4696 -1002.7416 -936.9987
ENERGY: 400000 1.4712 2.8088 13.2256 0.0000 -13932.3481 2377.1361 0.0000 0.0000 705.3492 -10832.3571 118.5135 -11537.7064 -10831.1563 120.1167 264.5405 377.9866 28984.0493 4.3364 4.2374
TCL: Running 100000 steps at 150 kelvin.
TCL: Setting parameter langevinTemp to 150
TCL: Running for 100000 steps
ETITLE: TS BOND ANGLE DIHED IMPRP ELECT VDW BOUNDARY MISC KINETIC TOTAL TEMP POTENTIAL TOTAL3 TEMPAVG PRESSURE GPRESSURE VOLUME PRESSAVG GPRESSAVG
ENERGY: 400000 1.4712 2.8088 13.2256 0.0000 -13932.3481 2377.1361 0.0000 0.0000 705.0068 -10832.6995 118.4559 -11537.7064 -10831.1358 118.4559 307.2376 377.3091 28984.0493 307.2376 377.3091
ENERGY: 500000 2.1648 2.4641 12.6189 0.0000 -13609.9853 2241.8908 0.0000 0.0000 864.2639 -10486.5827 145.2145 -11350.8466 -10484.3733 149.8597 -121.9483 -14.2837 29066.0276 3.9656 3.9885
TCL: Running 100000 steps at 180 kelvin.
TCL: Setting parameter langevinTemp to 180
TCL: Running for 100000 steps
ETITLE: TS BOND ANGLE DIHED IMPRP ELECT VDW BOUNDARY MISC KINETIC TOTAL TEMP POTENTIAL TOTAL3 TEMPAVG PRESSURE GPRESSURE VOLUME PRESSAVG GPRESSAVG
ENERGY: 500000 2.1648 2.4641 12.6189 0.0000 -13609.9853 2241.8908 0.0000 0.0000 863.8188 -10487.0278 145.1397 -11350.8466 -10485.0616 145.1397 -80.2861 -13.5290 29066.0276 -80.2861 -13.5290
ENERGY: 600000 4.1829 6.9321 13.0045 0.0000 -13113.1949 2036.7883 0.0000 0.0000 1060.9472 -9991.3399 178.2614 -11052.2871 -9988.1837 180.4763 -446.6769 -371.3621 28981.4464 3.0618 3.1676
TCL: Running 100000 steps at 210 kelvin.
TCL: Setting parameter langevinTemp to 210
TCL: Running for 100000 steps
ETITLE: TS BOND ANGLE DIHED IMPRP ELECT VDW BOUNDARY MISC KINETIC TOTAL TEMP POTENTIAL TOTAL3 TEMPAVG PRESSURE GPRESSURE VOLUME PRESSAVG GPRESSAVG
ENERGY: 600000 4.1829 6.9321 13.0045 0.0000 -13113.1949 2036.7883 0.0000 0.0000 1060.4337 -9991.8534 178.1751 -11052.2871 -9990.0209 178.1751 -442.6921 -369.8783 28981.4464 -442.6921 -369.8783
ENERGY: 700000 2.9593 6.6217 12.6916 0.0000 -12681.5655 1975.4268 0.0000 0.0000 1242.2911 -9441.5751 208.7310 -10683.8662 -9438.9610 210.1206 420.9351 550.1258 28907.9316 3.9986 4.0835
TCL: Running 100000 steps at 240 kelvin.
TCL: Setting parameter langevinTemp to 240
TCL: Running for 100000 steps
ETITLE: TS BOND ANGLE DIHED IMPRP ELECT VDW BOUNDARY MISC KINETIC TOTAL TEMP POTENTIAL TOTAL3 TEMPAVG PRESSURE GPRESSURE VOLUME PRESSAVG GPRESSAVG
ENERGY: 700000 2.9593 6.6217 12.6916 0.0000 -12681.5655 1975.4268 0.0000 0.0000 1241.6680 -9442.1982 208.6263 -10683.8662 -9440.8386 208.6263 467.3544 550.4764 28907.9316 467.3544 550.4764
ENERGY: 800000 1.9195 5.4676 13.8989 0.0000 -11891.9288 1686.7639 0.0000 0.0000 1417.6539 -8766.2250 238.1956 -10183.8789 -8762.2777 240.2445 -258.0550 -202.5554 29205.1212 4.0927 3.9311
TCL: Running 100000 steps at 270 kelvin.
TCL: Setting parameter langevinTemp to 270
TCL: Running for 100000 steps
ETITLE: TS BOND ANGLE DIHED IMPRP ELECT VDW BOUNDARY MISC KINETIC TOTAL TEMP POTENTIAL TOTAL3 TEMPAVG PRESSURE GPRESSURE VOLUME PRESSAVG GPRESSAVG
ENERGY: 800000 1.9195 5.4676 13.8989 0.0000 -11891.9288 1686.7639 0.0000 0.0000 1416.9024 -8766.9765 238.0694 -10183.8789 -8764.0852 238.0694 -287.1547 -202.8600 29205.1212 -287.1547 -202.8600
ENERGY: 900000 5.4628 10.9542 13.7976 0.0000 -11313.4665 1530.1944 0.0000 0.0000 1590.2790 -8162.7786 267.2003 -9753.0577 -8161.2786 269.9016 -469.3846 -349.7608 29498.1033 3.7995 3.7964
TCL: Running 1000000 steps at 300 kelvin.
TCL: Setting parameter langevinTemp to 300
TCL: Running for 1000000 steps
ETITLE: TS BOND ANGLE DIHED IMPRP ELECT VDW BOUNDARY MISC KINETIC TOTAL TEMP POTENTIAL TOTAL3 TEMPAVG PRESSURE GPRESSURE VOLUME PRESSAVG GPRESSAVG
ENERGY: 900000 5.4628 10.9542 13.7976 0.0000 -11313.4665 1530.1944 0.0000 0.0000 1589.5001 -8163.5575 267.0694 -9753.0577 -8160.9024 267.0694 -430.0643 -351.5302 29498.1033 -430.0643 -351.5302
ENERGY: 1100000 4.0381 8.4373 12.8959 0.0000 -10840.4542 1449.6718 0.0000 0.0000 1749.8953 -7615.5157 294.0192 -9365.4110 -7611.5829 300.2862 -336.2445 -271.5301 30687.8325 3.9298 4.0259
ENERGY: 1300000 1.9116 8.6507 12.9957 0.0000 -10801.5635 1418.5587 0.0000 0.0000 1715.2353 -7644.2115 288.1955 -9359.4467 -7642.6717 300.8953 -272.8048 -253.4554 30831.5346 2.3468 2.3044
ENERGY: 1500000 2.7158 14.4641 15.0582 0.0000 -10810.1591 1431.2052 0.0000 0.0000 1769.3641 -7577.3517 297.2903 -9346.7158 -7574.0151 299.5350 -181.6450 -140.0777 30542.9651 3.2769 3.3141
ENERGY: 1700000 4.2504 9.7593 14.3746 0.0000 -10679.8661 1352.4645 0.0000 0.0000 1851.3817 -7447.6356 311.0710 -9299.0173 -7443.9368 299.8332 -862.5919 -795.5815 30943.8130 3.5380 3.4726
ENERGY: 1900000 2.4046 8.0875 13.8383 0.0000 -10837.2378 1446.4779 0.0000 0.0000 1756.2958 -7610.1337 295.0946 -9366.4295 -7606.5044 300.1405 -281.8331 -180.8556 31038.2148 4.3472 4.2421
TCL: Exiting due to exit command.
