Info: SIMULATION PARAMETERS:
Info: TIMESTEP               2
Info: NUMBER OF STEPS        0
Info: STEPS PER CYCLE        10
Info: PERIODIC CELL BASIS 1  36.592 0 0
Info: PERIODIC CELL BASIS 2  0 36.762 0
Info: PERIODIC CELL BASIS 3  0 0 33.27
Info: PERIODIC CELL CENTER   0 0 0
Info: WRAPPING WATERS AROUND PERIODIC BOUNDARIES ON OUTPUT.
Info: WRAPPING ALL CLUSTERS AROUND PERIODIC BOUNDARIES ON OUTPUT.
Info: FIRST LDB TIMESTEP     50
Info: LAST LDB TIMESTEP     -1
Info: HOM BACKGROUND SCALING 1
Info: PME BACKGROUND SCALING 1
Info: MIN ATOMS PER PATCH    40
Info: EMPTY PATCH LOAD       40 ATOMS
Info: INITIAL TEMPERATURE    300
Info: CENTER OF MASS MOVING INITIALLY? NO
Info: DIELECTRIC             1
Info: EXCLUDE                SCALED ONE-FOUR
Info: 1-4 ELECTROSTATICS SCALED BY 0.833333
Info: MODIFIED 1-4 VDW PARAMETERS WILL BE USED
Info: DCD FILENAME           mobley_5952846_equil.dcd
Info: DCD FREQUENCY          100000
Info: DCD FIRST STEP         100000
Info: DCD FILE WILL CONTAIN UNIT CELL DATA
Info: XST FILENAME           mobley_5952846_equil.xst
Info: XST FREQUENCY          100000
Info: NO VELOCITY DCD OUTPUT
Info: NO FORCE DCD OUTPUT
Info: OUTPUT FILENAME        mobley_5952846_equil
Info: BINARY OUTPUT FILES WILL BE USED
Info: RESTART FILENAME       mobley_5952846_equil.restart
Info: RESTART FREQUENCY      100000
Info: BINARY RESTART FILES WILL BE USED
Info: CUTOFF                 9
Info: PAIRLIST DISTANCE      11
Info: PAIRLIST SHRINK RATE   0.01
Info: PAIRLIST GROW RATE     0.01
Info: PAIRLIST TRIGGER       0.3
Info: PAIRLISTS PER CYCLE    2
Info: PAIRLISTS ENABLED
Info: MARGIN                 8
Info: HYDROGEN GROUP CUTOFF  2.5
Info: PATCH DIMENSION        21.5
Info: ENERGY OUTPUT STEPS    100000
Info: ENERGY EVALUATION STEPS    100000
Info: OUTPUT ENERGY PRECISION 4
Info: CROSSTERM ENERGY INCLUDED IN DIHEDRAL
Info: TIMING OUTPUT STEPS    1000000
Info: PRESSURE OUTPUT STEPS  100000
Info: LANGEVIN DYNAMICS ACTIVE
Info: LANGEVIN TEMPERATURE   30
Info: LANGEVIN USING BBK INTEGRATOR
Info: LANGEVIN DAMPING COEFFICIENT IS 1 INVERSE PS
Info: LANGEVIN DYNAMICS APPLIED TO HYDROGENS
Info: LANGEVIN PISTON PRESSURE CONTROL ACTIVE
Info:        TARGET PRESSURE IS 1.01325 BAR
Info:     OSCILLATION PERIOD IS 50 FS
Info:             DECAY TIME IS 25 FS
Info:     PISTON TEMPERATURE IS 300 K
Info:       PRESSURE CONTROL IS GROUP-BASED
Info:    INITIAL STRAIN RATE IS 0 0 0
Info:       CELL FLUCTUATION IS ISOTROPIC
Info: PARTICLE MESH EWALD (PME) ACTIVE
Info: PME TOLERANCE               1e-06
Info: PME EWALD COEFFICIENT       0.348832
Info: PME INTERPOLATION ORDER     4
Info: PME GRID DIMENSIONS         40 40 36
Info: PME MAXIMUM GRID SPACING    1
Info: FULL ELECTROSTATIC EVALUATION FREQUENCY      2
Info: USING VERLET I (r-RESPA) MTS SCHEME.
Info: C1 SPLITTING OF LONG RANGE ELECTROSTATICS
Info: PLACING ATOMS IN PATCHES BY HYDROGEN GROUPS
Info: RIGID BONDS TO HYDROGEN : ALL
Info:         ERROR TOLERANCE : 1e-08
Info:          MAX ITERATIONS : 100
Info: RIGID WATER USING SETTLE ALGORITHM
Info: RANDOM NUMBER SEED     1743155904
Info: USE HYDROGEN BONDS?    NO
Info: Using AMBER format force field!
Info: AMBER PARM FILE        mobley_5952846.prmtop
Info: COORDINATE PDB         mobley_5952846.pdb
Info: Exclusions will be read from PARM file!
Info: SCNB (VDW SCALING)     2
Info: USING ARITHMETIC MEAN TO COMBINE L-J SIGMA PARAMETERS
Info: BINARY COORDINATES     mobley_5952846_min.coor
Info: SUMMARY OF PARAMETERS:
Info: 4 BONDS
Info: 2 ANGLES
Info:   2 HARMONIC
Info:   0 COSINE-BASED
Info: 2 DIHEDRAL
Info: 0 IMPROPER
Info: 0 CROSSTERM
Info: 0 VDW
Info: 10 VDW_PAIRS
Info: 0 NBTHOLE_PAIRS
Info: STRUCTURE SUMMARY:
Info: 2997 ATOMS
Info: 2996 BONDS
Info: 6 ANGLES
Info: 6 DIHEDRALS
Info: 0 IMPROPERS
Info: 0 CROSSTERMS
Info: 3006 EXCLUSIONS
Info: 2991 RIGID BONDS
Info: 6000 DEGREES OF FREEDOM
Info: 1003 HYDROGEN GROUPS
Info: 3 ATOMS IN LARGEST HYDROGEN GROUP
Info: 1003 MIGRATION GROUPS
Info: 3 ATOMS IN LARGEST MIGRATION GROUP
Info: TOTAL MASS = 18127.8 amu
Info: TOTAL CHARGE = -0.000200003 e
Info: MASS DENSITY = 0.672614 g/cm^3
Info: ATOM DENSITY = 0.0669651 atoms/A^3
Info: ADDED 0 IMPLICIT EXCLUSIONS
Info: NONBONDED TABLE R-SQUARED SPACING: 0.0625
Info: NONBONDED TABLE SIZE: 705 POINTS
Info: REMOVING COM VELOCITY 0.0460045 -0.00474641 0.119521
TCL: Running for 100000 steps
ETITLE: TS BOND ANGLE DIHED IMPRP ELECT VDW BOUNDARY MISC KINETIC TOTAL TEMP POTENTIAL TOTAL3 TEMPAVG PRESSURE GPRESSURE VOLUME PRESSAVG GPRESSAVG
ENERGY: 0 0.0072 0.0890 0.0016 0.0000 -13866.9838 2461.0434 0.0000 0.0000 1790.7850 -9615.0576 300.3880 -11405.8426 -9614.6754 300.3880 584.9471 613.1613 44754.6411 584.9471 613.1613
ENERGY: 100000 0.1261 0.1661 0.0524 0.0000 -14344.4847 2396.9975 0.0000 0.0000 177.1122 -11770.0305 29.7090 -11947.1427 -11769.3695 30.9653 -783.6362 -760.4607 29280.4343 3.2930 3.3210
TCL: Running 100000 steps at 60 kelvin.
TCL: Setting parameter langevinTemp to 60
TCL: Running for 100000 steps
ETITLE: TS BOND ANGLE DIHED IMPRP ELECT VDW BOUNDARY MISC KINETIC TOTAL TEMP POTENTIAL TOTAL3 TEMPAVG PRESSURE GPRESSURE VOLUME PRESSAVG GPRESSAVG
ENERGY: 100000 0.1261 0.1661 0.0524 0.0000 -14344.4847 2396.9975 0.0000 0.0000 177.0276 -11770.1151 29.6948 -11947.1427 -11769.6506 29.6948 -809.7776 -760.4045 29280.4343 -809.7776 -760.4045
ENERGY: 200000 0.6976 0.2369 0.0673 0.0000 -14395.9884 2486.4052 0.0000 0.0000 369.9841 -11538.5973 62.0615 -11908.5814 -11537.4857 59.9998 -99.6557 -49.6887 29231.6087 4.3933 4.3650
TCL: Running 100000 steps at 90 kelvin.
TCL: Setting parameter langevinTemp to 90
TCL: Running for 100000 steps
ETITLE: TS BOND ANGLE DIHED IMPRP ELECT VDW BOUNDARY MISC KINETIC TOTAL TEMP POTENTIAL TOTAL3 TEMPAVG PRESSURE GPRESSURE VOLUME PRESSAVG GPRESSAVG
ENERGY: 200000 0.6976 0.2369 0.0673 0.0000 -14395.9884 2486.4052 0.0000 0.0000 369.8035 -11538.7779 62.0312 -11908.5814 -11537.9366 62.0312 -100.2563 -49.8606 29231.6087 -100.2563 -49.8606
ENERGY: 300000 0.1771 0.1575 0.1453 0.0000 -14123.3767 2323.9922 0.0000 0.0000 533.1323 -11265.7723 89.4281 -11798.9046 -11264.7178 90.0142 -881.5702 -853.8298 29482.8234 3.3848 3.2606
TCL: Running 100000 steps at 120 kelvin.
TCL: Setting parameter langevinTemp to 120
TCL: Running for 100000 steps
ETITLE: TS BOND ANGLE DIHED IMPRP ELECT VDW BOUNDARY MISC KINETIC TOTAL TEMP POTENTIAL TOTAL3 TEMPAVG PRESSURE GPRESSURE VOLUME PRESSAVG GPRESSAVG
ENERGY: 300000 0.1771 0.1575 0.1453 0.0000 -14123.3767 2323.9922 0.0000 0.0000 532.8759 -11266.0288 89.3851 -11798.9046 -11264.9774 89.3851 -914.9531 -853.7263 29482.8234 -914.9531 -853.7263
ENERGY: 400000 0.9878 0.4184 0.4098 0.0000 -14079.0372 2377.2089 0.0000 0.0000 700.8059 -10999.2064 117.5539 -11700.0123 -10997.2843 120.0306 -261.9858 -230.4018 29535.6377 4.2301 4.1653
TCL: Running 100000 steps at 150 kelvin.
TCL: Setting parameter langevinTemp to 150
TCL: Running for 100000 steps
ETITLE: TS BOND ANGLE DIHED IMPRP ELECT VDW BOUNDARY MISC KINETIC TOTAL TEMP POTENTIAL TOTAL3 TEMPAVG PRESSURE GPRESSURE VOLUME PRESSAVG GPRESSAVG
ENERGY: 400000 0.9878 0.4184 0.4098 0.0000 -14079.0372 2377.2089 0.0000 0.0000 700.4396 -10999.5727 117.4924 -11700.0123 -10998.1109 117.4924 -291.5293 -230.4833 29535.6377 -291.5293 -230.4833
ENERGY: 500000 0.6386 0.1703 0.2808 0.0000 -13821.2657 2295.7717 0.0000 0.0000 919.0040 -10605.4003 154.1546 -11524.4043 -10603.0812 150.1680 -155.2670 -108.9159 29412.9907 3.9815 4.0156
TCL: Running 100000 steps at 180 kelvin.
TCL: Setting parameter langevinTemp to 180
TCL: Running for 100000 steps
ETITLE: TS BOND ANGLE DIHED IMPRP ELECT VDW BOUNDARY MISC KINETIC TOTAL TEMP POTENTIAL TOTAL3 TEMPAVG PRESSURE GPRESSURE VOLUME PRESSAVG GPRESSAVG
ENERGY: 500000 0.6386 0.1703 0.2808 0.0000 -13821.2657 2295.7717 0.0000 0.0000 918.5450 -10605.8593 154.0776 -11524.4043 -10603.6978 154.0776 -157.8370 -109.4745 29412.9907 -157.8370 -109.4745
ENERGY: 600000 1.9498 0.4149 0.1389 0.0000 -13361.6073 2203.7799 0.0000 0.0000 1055.3524 -10099.9715 177.0258 -11155.3239 -10098.2415 179.6458 448.2702 540.9720 29537.1090 3.4846 3.3938
TCL: Running 100000 steps at 210 kelvin.
TCL: Setting parameter langevinTemp to 210
TCL: Running for 100000 steps
ETITLE: TS BOND ANGLE DIHED IMPRP ELECT VDW BOUNDARY MISC KINETIC TOTAL TEMP POTENTIAL TOTAL3 TEMPAVG PRESSURE GPRESSURE VOLUME PRESSAVG GPRESSAVG
ENERGY: 600000 1.9498 0.4149 0.1389 0.0000 -13361.6073 2203.7799 0.0000 0.0000 1054.7925 -10100.5314 176.9319 -11155.3239 -10098.5886 176.9319 484.5808 541.2094 29537.1090 484.5808 541.2094
ENERGY: 700000 1.5732 0.3437 0.6458 0.0000 -12572.8945 1902.4116 0.0000 0.0000 1284.9918 -9382.9285 215.5458 -10667.9203 -9379.4235 209.8946 -148.2682 -131.9251 29528.8981 3.2483 3.3167
TCL: Running 100000 steps at 240 kelvin.
TCL: Setting parameter langevinTemp to 240
TCL: Running for 100000 steps
ETITLE: TS BOND ANGLE DIHED IMPRP ELECT VDW BOUNDARY MISC KINETIC TOTAL TEMP POTENTIAL TOTAL3 TEMPAVG PRESSURE GPRESSURE VOLUME PRESSAVG GPRESSAVG
ENERGY: 700000 1.5732 0.3437 0.6458 0.0000 -12572.8945 1902.4116 0.0000 0.0000 1284.3681 -9383.5522 215.4411 -10667.9203 -9381.4806 215.4411 -212.4285 -132.5366 29528.8981 -212.4285 -132.5366
ENERGY: 800000 1.4668 0.5354 1.4293 0.0000 -12158.8449 1874.1874 0.0000 0.0000 1381.9965 -8899.2295 231.8174 -10281.2260 -8894.5051 239.4411 1100.6278 1210.4187 29177.9318 3.5499 3.5559
TCL: Running 100000 steps at 270 kelvin.
TCL: Setting parameter langevinTemp to 270
TCL: Running for 100000 steps
ETITLE: TS BOND ANGLE DIHED IMPRP ELECT VDW BOUNDARY MISC KINETIC TOTAL TEMP POTENTIAL TOTAL3 TEMPAVG PRESSURE GPRESSURE VOLUME PRESSAVG GPRESSAVG
ENERGY: 800000 1.4668 0.5354 1.4293 0.0000 -12158.8449 1874.1874 0.0000 0.0000 1381.2831 -8899.9429 231.6978 -10281.2260 -8898.0716 231.6978 1122.3655 1212.7733 29177.9318 1122.3655 1212.7733
ENERGY: 900000 2.5069 0.9320 2.1674 0.0000 -11416.9441 1577.5904 0.0000 0.0000 1563.2841 -8270.4632 262.2268 -9833.7473 -8265.8341 270.1292 -11.4383 99.9908 30120.4159 3.1928 3.1621
TCL: Running 1000000 steps at 300 kelvin.
TCL: Setting parameter langevinTemp to 300
TCL: Running for 1000000 steps
ETITLE: TS BOND ANGLE DIHED IMPRP ELECT VDW BOUNDARY MISC KINETIC TOTAL TEMP POTENTIAL TOTAL3 TEMPAVG PRESSURE GPRESSURE VOLUME PRESSAVG GPRESSAVG
ENERGY: 900000 2.5069 0.9320 2.1674 0.0000 -11416.9441 1577.5904 0.0000 0.0000 1562.4719 -8271.2754 262.0905 -9833.7473 -8268.4284 262.0905 16.5260 100.6069 30120.4159 16.5260 100.6069
ENERGY: 1100000 1.2953 1.9495 0.7878 0.0000 -10836.2410 1442.1215 0.0000 0.0000 1743.8556 -7646.2313 292.5160 -9390.0869 -7641.8243 301.0129 -93.6649 -37.7946 31014.8205 3.8338 3.9542
ENERGY: 1300000 0.3700 0.6743 0.8761 0.0000 -10955.5815 1410.0291 0.0000 0.0000 1779.0197 -7764.6123 298.4145 -9543.6320 -7760.0222 299.9899 -612.1049 -594.6325 30769.0504 4.5912 4.4854
ENERGY: 1500000 3.7048 0.5075 0.5533 0.0000 -10891.6922 1489.8531 0.0000 0.0000 1874.0639 -7523.0095 314.3573 -9397.0735 -7520.3264 300.8123 313.0005 420.3128 30873.3104 3.2979 3.5978
ENERGY: 1700000 0.6117 0.4225 2.7304 0.0000 -10864.9343 1373.8612 0.0000 0.0000 1734.5551 -7752.7534 290.9559 -9487.3085 -7748.0684 300.5673 -755.7901 -642.1548 30587.9916 1.8460 1.9651
ENERGY: 1900000 0.3945 1.4955 0.2546 0.0000 -11050.5984 1551.4938 0.0000 0.0000 1823.5948 -7673.3651 305.8916 -9496.9600 -7670.2692 299.5888 536.4002 669.0885 30680.2373 2.6061 2.5334
TCL: Exiting due to exit command.
