Info: SIMULATION PARAMETERS:
Info: TIMESTEP               2
Info: NUMBER OF STEPS        0
Info: STEPS PER CYCLE        10
Info: PERIODIC CELL BASIS 1  36.005 0 0
Info: PERIODIC CELL BASIS 2  0 34.26 0
Info: PERIODIC CELL BASIS 3  0 0 35.723
Info: PERIODIC CELL CENTER   0 0 0
Info: WRAPPING WATERS AROUND PERIODIC BOUNDARIES ON OUTPUT.
Info: WRAPPING ALL CLUSTERS AROUND PERIODIC BOUNDARIES ON OUTPUT.
Info: FIRST LDB TIMESTEP     50
Info: LAST LDB TIMESTEP     -1
Info: HOM BACKGROUND SCALING 1
Info: PME BACKGROUND SCALING 1
Info: MIN ATOMS PER PATCH    40
Info: EMPTY PATCH LOAD       40 ATOMS
Info: INITIAL TEMPERATURE    300
Info: CENTER OF MASS MOVING INITIALLY? NO
Info: DIELECTRIC             1
Info: EXCLUDE                SCALED ONE-FOUR
Info: 1-4 ELECTROSTATICS SCALED BY 0.833333
Info: MODIFIED 1-4 VDW PARAMETERS WILL BE USED
Info: DCD FILENAME           mobley_8525830_equil.dcd
Info: DCD FREQUENCY          100000
Info: DCD FIRST STEP         100000
Info: DCD FILE WILL CONTAIN UNIT CELL DATA
Info: XST FILENAME           mobley_8525830_equil.xst
Info: XST FREQUENCY          100000
Info: NO VELOCITY DCD OUTPUT
Info: NO FORCE DCD OUTPUT
Info: OUTPUT FILENAME        mobley_8525830_equil
Info: BINARY OUTPUT FILES WILL BE USED
Info: RESTART FILENAME       mobley_8525830_equil.restart
Info: RESTART FREQUENCY      100000
Info: BINARY RESTART FILES WILL BE USED
Info: CUTOFF                 9
Info: PAIRLIST DISTANCE      11
Info: PAIRLIST SHRINK RATE   0.01
Info: PAIRLIST GROW RATE     0.01
Info: PAIRLIST TRIGGER       0.3
Info: PAIRLISTS PER CYCLE    2
Info: PAIRLISTS ENABLED
Info: MARGIN                 8
Info: HYDROGEN GROUP CUTOFF  2.5
Info: PATCH DIMENSION        21.5
Info: ENERGY OUTPUT STEPS    100000
Info: ENERGY EVALUATION STEPS    100000
Info: OUTPUT ENERGY PRECISION 4
Info: CROSSTERM ENERGY INCLUDED IN DIHEDRAL
Info: TIMING OUTPUT STEPS    1000000
Info: PRESSURE OUTPUT STEPS  100000
Info: LANGEVIN DYNAMICS ACTIVE
Info: LANGEVIN TEMPERATURE   30
Info: LANGEVIN USING BBK INTEGRATOR
Info: LANGEVIN DAMPING COEFFICIENT IS 1 INVERSE PS
Info: LANGEVIN DYNAMICS APPLIED TO HYDROGENS
Info: LANGEVIN PISTON PRESSURE CONTROL ACTIVE
Info:        TARGET PRESSURE IS 1.01325 BAR
Info:     OSCILLATION PERIOD IS 50 FS
Info:             DECAY TIME IS 25 FS
Info:     PISTON TEMPERATURE IS 300 K
Info:       PRESSURE CONTROL IS GROUP-BASED
Info:    INITIAL STRAIN RATE IS 0 0 0
Info:       CELL FLUCTUATION IS ISOTROPIC
Info: PARTICLE MESH EWALD (PME) ACTIVE
Info: PME TOLERANCE               1e-06
Info: PME EWALD COEFFICIENT       0.348832
Info: PME INTERPOLATION ORDER     4
Info: PME GRID DIMENSIONS         40 36 36
Info: PME MAXIMUM GRID SPACING    1
Info: FULL ELECTROSTATIC EVALUATION FREQUENCY      2
Info: USING VERLET I (r-RESPA) MTS SCHEME.
Info: C1 SPLITTING OF LONG RANGE ELECTROSTATICS
Info: PLACING ATOMS IN PATCHES BY HYDROGEN GROUPS
Info: RIGID BONDS TO HYDROGEN : ALL
Info:         ERROR TOLERANCE : 1e-08
Info:          MAX ITERATIONS : 100
Info: RIGID WATER USING SETTLE ALGORITHM
Info: RANDOM NUMBER SEED     1743249336
Info: USE HYDROGEN BONDS?    NO
Info: Using AMBER format force field!
Info: AMBER PARM FILE        mobley_8525830.prmtop
Info: COORDINATE PDB         mobley_8525830.pdb
Info: Exclusions will be read from PARM file!
Info: SCNB (VDW SCALING)     2
Info: USING ARITHMETIC MEAN TO COMBINE L-J SIGMA PARAMETERS
Info: BINARY COORDINATES     mobley_8525830_min.coor
Info: SUMMARY OF PARAMETERS:
Info: 6 BONDS
Info: 7 ANGLES
Info: 6 DIHEDRAL
Info: 0 IMPROPER
Info: 0 CROSSTERM
Info: 0 VDW
Info: 21 VDW_PAIRS
Info: 0 NBTHOLE_PAIRS
Info: STRUCTURE SUMMARY:
Info: 2906 ATOMS
Info: 2905 BONDS
Info: 30 ANGLES
Info: 40 DIHEDRALS
Info: 0 IMPROPERS
Info: 0 CROSSTERMS
Info: 2971 EXCLUSIONS
Info: 2900 RIGID BONDS
Info: 5818 DEGREES OF FREEDOM
Info: 969 HYDROGEN GROUPS
Info: 4 ATOMS IN LARGEST HYDROGEN GROUP
Info: 969 MIGRATION GROUPS
Info: 4 ATOMS IN LARGEST MIGRATION GROUP
Info: TOTAL MASS = 17547.4 amu
Info: TOTAL CHARGE = 0.000299998 e
Info: MASS DENSITY = 0.661264 g/cm^3
Info: ATOM DENSITY = 0.0659474 atoms/A^3
Info: ADDED 0 IMPLICIT EXCLUSIONS
Info: NONBONDED TABLE R-SQUARED SPACING: 0.0625
Info: NONBONDED TABLE SIZE: 705 POINTS
Info: REMOVING COM VELOCITY 0.0219891 -0.325313 -0.00405424
TCL: Running for 100000 steps
ETITLE: TS BOND ANGLE DIHED IMPRP ELECT VDW BOUNDARY MISC KINETIC TOTAL TEMP POTENTIAL TOTAL3 TEMPAVG PRESSURE GPRESSURE VOLUME PRESSAVG GPRESSAVG
ENERGY: 0 0.0262 0.2586 0.8980 0.0000 -13366.7420 2334.0057 0.0000 0.0000 1765.1068 -9266.4467 305.3428 -11031.5534 -9266.1091 305.3428 408.7316 443.7724 44065.4386 408.7316 443.7724
ENERGY: 100000 0.0555 1.4807 1.1874 0.0000 -13966.3604 2418.0896 0.0000 0.0000 170.8716 -11374.6756 29.5588 -11545.5471 -11373.9821 30.9425 -198.8980 -165.4493 28746.1106 5.1358 5.0829
TCL: Running 100000 steps at 60 kelvin.
TCL: Setting parameter langevinTemp to 60
TCL: Running for 100000 steps
ETITLE: TS BOND ANGLE DIHED IMPRP ELECT VDW BOUNDARY MISC KINETIC TOTAL TEMP POTENTIAL TOTAL3 TEMPAVG PRESSURE GPRESSURE VOLUME PRESSAVG GPRESSAVG
ENERGY: 100000 0.0555 1.4807 1.1874 0.0000 -13966.3604 2418.0896 0.0000 0.0000 170.7817 -11374.7654 29.5432 -11545.5471 -11374.3969 29.5432 -213.9066 -165.4843 28746.1106 -213.9066 -165.4843
ENERGY: 200000 0.9671 1.6257 1.0686 0.0000 -13796.3048 2305.9078 0.0000 0.0000 353.9252 -11132.8104 61.2249 -11486.7356 -11131.7059 60.0180 -736.0050 -689.6769 28622.8696 4.1743 4.1566
TCL: Running 100000 steps at 90 kelvin.
TCL: Setting parameter langevinTemp to 90
TCL: Running for 100000 steps
ETITLE: TS BOND ANGLE DIHED IMPRP ELECT VDW BOUNDARY MISC KINETIC TOTAL TEMP POTENTIAL TOTAL3 TEMPAVG PRESSURE GPRESSURE VOLUME PRESSAVG GPRESSAVG
ENERGY: 200000 0.9671 1.6257 1.0686 0.0000 -13796.3048 2305.9078 0.0000 0.0000 353.7582 -11132.9774 61.1960 -11486.7356 -11132.3106 61.1960 -748.5702 -689.3180 28622.8696 -748.5702 -689.3180
ENERGY: 300000 1.0037 3.0330 0.8961 0.0000 -13762.8353 2401.5004 0.0000 0.0000 514.0146 -10842.3876 88.9185 -11356.4022 -10841.2964 89.8396 616.4799 636.4824 28484.5522 3.4694 3.2994
TCL: Running 100000 steps at 120 kelvin.
TCL: Setting parameter langevinTemp to 120
TCL: Running for 100000 steps
ETITLE: TS BOND ANGLE DIHED IMPRP ELECT VDW BOUNDARY MISC KINETIC TOTAL TEMP POTENTIAL TOTAL3 TEMPAVG PRESSURE GPRESSURE VOLUME PRESSAVG GPRESSAVG
ENERGY: 300000 1.0037 3.0330 0.8961 0.0000 -13762.8353 2401.5004 0.0000 0.0000 513.7571 -10842.6450 88.8740 -11356.4022 -10841.9059 88.8740 587.2527 636.2624 28484.5522 587.2527 636.2624
ENERGY: 400000 0.4113 3.4472 1.5543 0.0000 -13511.4125 2272.2842 0.0000 0.0000 677.3306 -10556.3848 117.1703 -11233.7154 -10554.0854 120.2127 -54.3799 36.3715 28468.4640 4.1834 4.2042
TCL: Running 100000 steps at 150 kelvin.
TCL: Setting parameter langevinTemp to 150
TCL: Running for 100000 steps
ETITLE: TS BOND ANGLE DIHED IMPRP ELECT VDW BOUNDARY MISC KINETIC TOTAL TEMP POTENTIAL TOTAL3 TEMPAVG PRESSURE GPRESSURE VOLUME PRESSAVG GPRESSAVG
ENERGY: 400000 0.4113 3.4472 1.5543 0.0000 -13511.4125 2272.2842 0.0000 0.0000 676.9830 -10556.7324 117.1101 -11233.7154 -10555.4375 117.1101 -12.7300 37.2782 28468.4640 -12.7300 37.2782
ENERGY: 500000 1.1829 3.1713 2.5323 0.0000 -13205.3556 2098.4120 0.0000 0.0000 871.9846 -10228.0725 150.8431 -11100.0571 -10225.1266 149.9452 -1108.6886 -1038.3043 28569.3874 2.7286 2.8228
TCL: Running 100000 steps at 180 kelvin.
TCL: Setting parameter langevinTemp to 180
TCL: Running for 100000 steps
ETITLE: TS BOND ANGLE DIHED IMPRP ELECT VDW BOUNDARY MISC KINETIC TOTAL TEMP POTENTIAL TOTAL3 TEMPAVG PRESSURE GPRESSURE VOLUME PRESSAVG GPRESSAVG
ENERGY: 500000 1.1829 3.1713 2.5323 0.0000 -13205.3556 2098.4120 0.0000 0.0000 871.5529 -10228.5042 150.7684 -11100.0571 -10226.6353 150.7684 -1087.6286 -1037.7536 28569.3874 -1087.6286 -1037.7536
ENERGY: 600000 1.7805 4.3714 1.3585 0.0000 -12831.6985 2025.4503 0.0000 0.0000 1045.1768 -9753.5609 180.8033 -10798.7378 -9749.8802 179.9750 -686.9247 -559.2607 28915.0328 3.6632 3.5459
TCL: Running 100000 steps at 210 kelvin.
TCL: Setting parameter langevinTemp to 210
TCL: Running for 100000 steps
ETITLE: TS BOND ANGLE DIHED IMPRP ELECT VDW BOUNDARY MISC KINETIC TOTAL TEMP POTENTIAL TOTAL3 TEMPAVG PRESSURE GPRESSURE VOLUME PRESSAVG GPRESSAVG
ENERGY: 600000 1.7805 4.3714 1.3585 0.0000 -12831.6985 2025.4503 0.0000 0.0000 1044.6518 -9754.0860 180.7125 -10798.7378 -9752.1083 180.7125 -613.4065 -557.7488 28915.0328 -613.4065 -557.7488
ENERGY: 700000 0.8498 7.4018 1.9086 0.0000 -12172.9029 1746.2365 0.0000 0.0000 1225.5356 -9190.9705 212.0033 -10416.5062 -9189.5969 209.7416 -1023.8851 -1012.0777 28355.4754 4.6198 4.3945
TCL: Running 100000 steps at 240 kelvin.
TCL: Setting parameter langevinTemp to 240
TCL: Running for 100000 steps
ETITLE: TS BOND ANGLE DIHED IMPRP ELECT VDW BOUNDARY MISC KINETIC TOTAL TEMP POTENTIAL TOTAL3 TEMPAVG PRESSURE GPRESSURE VOLUME PRESSAVG GPRESSAVG
ENERGY: 700000 0.8498 7.4018 1.9086 0.0000 -12172.9029 1746.2365 0.0000 0.0000 1224.9156 -9191.5906 211.8960 -10416.5062 -9189.0740 211.8960 -1080.4579 -1013.9435 28355.4754 -1080.4579 -1013.9435
ENERGY: 800000 1.9310 4.5030 1.3413 0.0000 -11656.8971 1715.7770 0.0000 0.0000 1384.3999 -8548.9449 239.4849 -9933.3448 -8546.9643 239.3160 76.5055 162.2125 28466.1968 2.7401 2.6860
TCL: Running 100000 steps at 270 kelvin.
TCL: Setting parameter langevinTemp to 270
TCL: Running for 100000 steps
ETITLE: TS BOND ANGLE DIHED IMPRP ELECT VDW BOUNDARY MISC KINETIC TOTAL TEMP POTENTIAL TOTAL3 TEMPAVG PRESSURE GPRESSURE VOLUME PRESSAVG GPRESSAVG
ENERGY: 800000 1.9310 4.5030 1.3413 0.0000 -11656.8971 1715.7770 0.0000 0.0000 1383.7205 -8549.6242 239.3674 -9933.3448 -8547.1622 239.3674 83.9731 162.5252 28466.1968 83.9731 162.5252
ENERGY: 900000 2.9019 7.3214 1.6097 0.0000 -11084.3112 1581.7784 0.0000 0.0000 1638.0375 -7852.6623 283.3613 -9490.6998 -7849.4239 269.7012 540.4878 603.0322 29165.8658 2.5191 2.5991
TCL: Running 1000000 steps at 300 kelvin.
TCL: Setting parameter langevinTemp to 300
TCL: Running for 1000000 steps
ETITLE: TS BOND ANGLE DIHED IMPRP ELECT VDW BOUNDARY MISC KINETIC TOTAL TEMP POTENTIAL TOTAL3 TEMPAVG PRESSURE GPRESSURE VOLUME PRESSAVG GPRESSAVG
ENERGY: 900000 2.9019 7.3214 1.6097 0.0000 -11084.3112 1581.7784 0.0000 0.0000 1637.2350 -7853.4648 283.2225 -9490.6998 -7851.7014 283.2225 522.3102 604.6609 29165.8658 522.3102 604.6609
ENERGY: 1100000 2.1585 5.9587 1.8798 0.0000 -10605.6377 1457.6128 0.0000 0.0000 1785.1244 -7352.9034 308.8056 -9138.0278 -7349.9276 300.2259 774.9673 894.2770 29226.9149 3.1954 3.3893
ENERGY: 1300000 2.0585 10.2649 2.7805 0.0000 -10535.7420 1404.7185 0.0000 0.0000 1754.4439 -7361.4756 303.4982 -9115.9196 -7359.3984 300.1930 94.6463 192.9114 29748.4952 3.6516 3.8806
ENERGY: 1500000 2.0257 6.2247 2.1509 0.0000 -10582.2387 1453.1157 0.0000 0.0000 1667.0981 -7451.6237 288.3884 -9118.7217 -7449.3546 300.3497 -196.4869 -78.0677 30348.3967 2.7351 2.8228
ENERGY: 1700000 1.7362 7.7649 1.6854 0.0000 -10522.3109 1397.0219 0.0000 0.0000 1735.2832 -7378.8193 300.1836 -9114.1025 -7378.7740 299.7582 57.2557 192.8178 29719.5284 2.3072 2.2869
ENERGY: 1900000 3.1328 9.6123 4.7855 0.0000 -10505.9344 1399.8094 0.0000 0.0000 1720.8957 -7367.6987 297.6948 -9088.5944 -7365.3889 300.8011 -89.8265 -39.4547 30153.0752 3.2568 3.0318
TCL: Exiting due to exit command.
