Info: SIMULATION PARAMETERS:
Info: TIMESTEP               2
Info: NUMBER OF STEPS        0
Info: STEPS PER CYCLE        10
Info: PERIODIC CELL BASIS 1  34.986 0 0
Info: PERIODIC CELL BASIS 2  0 34.1 0
Info: PERIODIC CELL BASIS 3  0 0 36.583
Info: PERIODIC CELL CENTER   0 0 0
Info: WRAPPING WATERS AROUND PERIODIC BOUNDARIES ON OUTPUT.
Info: WRAPPING ALL CLUSTERS AROUND PERIODIC BOUNDARIES ON OUTPUT.
Info: FIRST LDB TIMESTEP     50
Info: LAST LDB TIMESTEP     -1
Info: HOM BACKGROUND SCALING 1
Info: PME BACKGROUND SCALING 1
Info: MIN ATOMS PER PATCH    40
Info: EMPTY PATCH LOAD       40 ATOMS
Info: INITIAL TEMPERATURE    300
Info: CENTER OF MASS MOVING INITIALLY? NO
Info: DIELECTRIC             1
Info: EXCLUDE                SCALED ONE-FOUR
Info: 1-4 ELECTROSTATICS SCALED BY 0.833333
Info: MODIFIED 1-4 VDW PARAMETERS WILL BE USED
Info: DCD FILENAME           mobley_9028462_equil.dcd
Info: DCD FREQUENCY          100000
Info: DCD FIRST STEP         100000
Info: DCD FILE WILL CONTAIN UNIT CELL DATA
Info: XST FILENAME           mobley_9028462_equil.xst
Info: XST FREQUENCY          100000
Info: NO VELOCITY DCD OUTPUT
Info: NO FORCE DCD OUTPUT
Info: OUTPUT FILENAME        mobley_9028462_equil
Info: BINARY OUTPUT FILES WILL BE USED
Info: RESTART FILENAME       mobley_9028462_equil.restart
Info: RESTART FREQUENCY      100000
Info: BINARY RESTART FILES WILL BE USED
Info: CUTOFF                 9
Info: PAIRLIST DISTANCE      11
Info: PAIRLIST SHRINK RATE   0.01
Info: PAIRLIST GROW RATE     0.01
Info: PAIRLIST TRIGGER       0.3
Info: PAIRLISTS PER CYCLE    2
Info: PAIRLISTS ENABLED
Info: MARGIN                 8
Info: HYDROGEN GROUP CUTOFF  2.5
Info: PATCH DIMENSION        21.5
Info: ENERGY OUTPUT STEPS    100000
Info: ENERGY EVALUATION STEPS    100000
Info: OUTPUT ENERGY PRECISION 4
Info: CROSSTERM ENERGY INCLUDED IN DIHEDRAL
Info: TIMING OUTPUT STEPS    1000000
Info: PRESSURE OUTPUT STEPS  100000
Info: LANGEVIN DYNAMICS ACTIVE
Info: LANGEVIN TEMPERATURE   30
Info: LANGEVIN USING BBK INTEGRATOR
Info: LANGEVIN DAMPING COEFFICIENT IS 1 INVERSE PS
Info: LANGEVIN DYNAMICS APPLIED TO HYDROGENS
Info: LANGEVIN PISTON PRESSURE CONTROL ACTIVE
Info:        TARGET PRESSURE IS 1.01325 BAR
Info:     OSCILLATION PERIOD IS 50 FS
Info:             DECAY TIME IS 25 FS
Info:     PISTON TEMPERATURE IS 300 K
Info:       PRESSURE CONTROL IS GROUP-BASED
Info:    INITIAL STRAIN RATE IS 0 0 0
Info:       CELL FLUCTUATION IS ISOTROPIC
Info: PARTICLE MESH EWALD (PME) ACTIVE
Info: PME TOLERANCE               1e-06
Info: PME EWALD COEFFICIENT       0.348832
Info: PME INTERPOLATION ORDER     4
Info: PME GRID DIMENSIONS         36 36 40
Info: PME MAXIMUM GRID SPACING    1
Info: FULL ELECTROSTATIC EVALUATION FREQUENCY      2
Info: USING VERLET I (r-RESPA) MTS SCHEME.
Info: C1 SPLITTING OF LONG RANGE ELECTROSTATICS
Info: PLACING ATOMS IN PATCHES BY HYDROGEN GROUPS
Info: RIGID BONDS TO HYDROGEN : ALL
Info:         ERROR TOLERANCE : 1e-08
Info:          MAX ITERATIONS : 100
Info: RIGID WATER USING SETTLE ALGORITHM
Info: RANDOM NUMBER SEED     1743161707
Info: USE HYDROGEN BONDS?    NO
Info: Using AMBER format force field!
Info: AMBER PARM FILE        mobley_9028462.prmtop
Info: COORDINATE PDB         mobley_9028462.pdb
Info: Exclusions will be read from PARM file!
Info: SCNB (VDW SCALING)     2
Info: USING ARITHMETIC MEAN TO COMBINE L-J SIGMA PARAMETERS
Info: BINARY COORDINATES     mobley_9028462_min.coor
Info: SUMMARY OF PARAMETERS:
Info: 8 BONDS
Info: 8 ANGLES
Info: 7 DIHEDRAL
Info: 0 IMPROPER
Info: 0 CROSSTERM
Info: 0 VDW
Info: 36 VDW_PAIRS
Info: 0 NBTHOLE_PAIRS
Info: STRUCTURE SUMMARY:
Info: 2924 ATOMS
Info: 2923 BONDS
Info: 16 ANGLES
Info: 15 DIHEDRALS
Info: 0 IMPROPERS
Info: 0 CROSSTERMS
Info: 2950 EXCLUSIONS
Info: 2916 RIGID BONDS
Info: 5856 DEGREES OF FREEDOM
Info: 979 HYDROGEN GROUPS
Info: 4 ATOMS IN LARGEST HYDROGEN GROUP
Info: 979 MIGRATION GROUPS
Info: 4 ATOMS IN LARGEST MIGRATION GROUP
Info: TOTAL MASS = 17621.6 amu
Info: TOTAL CHARGE = -8.9407e-08 e
Info: MASS DENSITY = 0.670465 g/cm^3
Info: ATOM DENSITY = 0.0669961 atoms/A^3
Info: ADDED 0 IMPLICIT EXCLUSIONS
Info: NONBONDED TABLE R-SQUARED SPACING: 0.0625
Info: NONBONDED TABLE SIZE: 705 POINTS
Info: REMOVING COM VELOCITY 0.040784 -0.211832 -0.179599
TCL: Running for 100000 steps
ETITLE: TS BOND ANGLE DIHED IMPRP ELECT VDW BOUNDARY MISC KINETIC TOTAL TEMP POTENTIAL TOTAL3 TEMPAVG PRESSURE GPRESSURE VOLUME PRESSAVG GPRESSAVG
ENERGY: 0 0.4867 0.6225 0.0079 0.0000 -13480.5881 2346.2681 0.0000 0.0000 1754.0050 -9379.1978 301.4534 -11133.2028 -9378.8309 301.4534 265.9987 298.3022 43644.3458 265.9987 298.3022
ENERGY: 100000 0.5291 0.9935 0.0645 0.0000 -14120.3034 2554.0397 0.0000 0.0000 169.9309 -11394.7458 29.2053 -11564.6767 -11394.1613 30.8890 680.2588 758.8218 29252.8512 4.7363 4.7339
TCL: Running 100000 steps at 60 kelvin.
TCL: Setting parameter langevinTemp to 60
TCL: Running for 100000 steps
ETITLE: TS BOND ANGLE DIHED IMPRP ELECT VDW BOUNDARY MISC KINETIC TOTAL TEMP POTENTIAL TOTAL3 TEMPAVG PRESSURE GPRESSURE VOLUME PRESSAVG GPRESSAVG
ENERGY: 100000 0.5291 0.9935 0.0645 0.0000 -14120.3034 2554.0397 0.0000 0.0000 169.8433 -11394.8333 29.1903 -11564.6767 -11394.5017 29.1903 696.9791 759.1027 29252.8512 696.9791 759.1027
ENERGY: 200000 2.7213 1.3181 0.0267 0.0000 -13880.5998 2379.0919 0.0000 0.0000 348.1226 -11149.3192 59.8303 -11497.4417 -11148.1251 60.0261 -343.0246 -291.0801 29140.7549 4.4188 4.3359
TCL: Running 100000 steps at 90 kelvin.
TCL: Setting parameter langevinTemp to 90
TCL: Running for 100000 steps
ETITLE: TS BOND ANGLE DIHED IMPRP ELECT VDW BOUNDARY MISC KINETIC TOTAL TEMP POTENTIAL TOTAL3 TEMPAVG PRESSURE GPRESSURE VOLUME PRESSAVG GPRESSAVG
ENERGY: 200000 2.7213 1.3181 0.0267 0.0000 -13880.5998 2379.0919 0.0000 0.0000 347.9500 -11149.4917 59.8007 -11497.4417 -11148.7917 59.8007 -336.9676 -290.7601 29140.7549 -336.9676 -290.7601
ENERGY: 300000 2.1217 0.4239 0.1228 0.0000 -13644.3971 2250.6154 0.0000 0.0000 525.9154 -10865.1979 90.3868 -11391.1133 -10864.0141 90.0747 -1008.9599 -996.2678 29135.2518 4.4798 4.4782
TCL: Running 100000 steps at 120 kelvin.
TCL: Setting parameter langevinTemp to 120
TCL: Running for 100000 steps
ETITLE: TS BOND ANGLE DIHED IMPRP ELECT VDW BOUNDARY MISC KINETIC TOTAL TEMP POTENTIAL TOTAL3 TEMPAVG PRESSURE GPRESSURE VOLUME PRESSAVG GPRESSAVG
ENERGY: 300000 2.1217 0.4239 0.1228 0.0000 -13644.3971 2250.6154 0.0000 0.0000 525.6593 -10865.4540 90.3428 -11391.1133 -10864.2614 90.3428 -1044.1918 -996.4211 29135.2518 -1044.1918 -996.4211
ENERGY: 400000 1.5646 2.1157 0.6797 0.0000 -13564.8525 2276.1462 0.0000 0.0000 720.8126 -10563.5337 123.8830 -11284.3464 -10561.6143 120.1295 -283.5578 -229.4832 28803.6478 4.0956 4.1278
TCL: Running 100000 steps at 150 kelvin.
TCL: Setting parameter langevinTemp to 150
TCL: Running for 100000 steps
ETITLE: TS BOND ANGLE DIHED IMPRP ELECT VDW BOUNDARY MISC KINETIC TOTAL TEMP POTENTIAL TOTAL3 TEMPAVG PRESSURE GPRESSURE VOLUME PRESSAVG GPRESSAVG
ENERGY: 400000 1.5646 2.1157 0.6797 0.0000 -13564.8525 2276.1462 0.0000 0.0000 720.4473 -10563.8991 123.8202 -11284.3464 -10562.6114 123.8202 -289.4335 -229.2767 28803.6478 -289.4335 -229.2767
ENERGY: 500000 2.1465 1.8688 0.3374 0.0000 -13307.7197 2164.6142 0.0000 0.0000 834.6007 -10304.1522 143.4393 -11138.7529 -10301.5139 149.7734 -603.5117 -562.2985 28606.0047 3.9030 4.0439
TCL: Running 100000 steps at 180 kelvin.
TCL: Setting parameter langevinTemp to 180
TCL: Running for 100000 steps
ETITLE: TS BOND ANGLE DIHED IMPRP ELECT VDW BOUNDARY MISC KINETIC TOTAL TEMP POTENTIAL TOTAL3 TEMPAVG PRESSURE GPRESSURE VOLUME PRESSAVG GPRESSAVG
ENERGY: 500000 2.1465 1.8688 0.3374 0.0000 -13307.7197 2164.6142 0.0000 0.0000 834.1856 -10304.5673 143.3679 -11138.7529 -10303.2619 143.3679 -612.9235 -561.5702 28606.0047 -612.9235 -561.5702
ENERGY: 600000 2.6925 3.5528 0.1588 0.0000 -13034.4131 2129.2110 0.0000 0.0000 1042.0538 -9856.7440 179.0934 -10898.7979 -9854.2769 179.9237 73.1034 152.7490 28561.7312 4.5462 4.4221
TCL: Running 100000 steps at 210 kelvin.
TCL: Setting parameter langevinTemp to 210
TCL: Running for 100000 steps
ETITLE: TS BOND ANGLE DIHED IMPRP ELECT VDW BOUNDARY MISC KINETIC TOTAL TEMP POTENTIAL TOTAL3 TEMPAVG PRESSURE GPRESSURE VOLUME PRESSAVG GPRESSAVG
ENERGY: 600000 2.6925 3.5528 0.1588 0.0000 -13034.4131 2129.2110 0.0000 0.0000 1041.5479 -9857.2500 179.0064 -10898.7979 -9855.0808 179.0064 97.4738 152.7848 28561.7312 97.4738 152.7848
ENERGY: 700000 3.1513 2.8253 0.5941 0.0000 -12195.8290 1822.1594 0.0000 0.0000 1228.8332 -9138.2657 211.1943 -10367.0989 -9136.5041 209.5280 -658.9759 -600.2676 28863.3965 2.7576 2.8565
TCL: Running 100000 steps at 240 kelvin.
TCL: Setting parameter langevinTemp to 240
TCL: Running for 100000 steps
ETITLE: TS BOND ANGLE DIHED IMPRP ELECT VDW BOUNDARY MISC KINETIC TOTAL TEMP POTENTIAL TOTAL3 TEMPAVG PRESSURE GPRESSURE VOLUME PRESSAVG GPRESSAVG
ENERGY: 700000 3.1513 2.8253 0.5941 0.0000 -12195.8290 1822.1594 0.0000 0.0000 1228.2547 -9138.8442 211.0949 -10367.0989 -9136.4068 211.0949 -676.6062 -600.1398 28863.3965 -676.6062 -600.1398
ENERGY: 800000 3.3531 5.5541 1.1122 0.0000 -11666.4758 1664.1488 0.0000 0.0000 1351.2021 -8641.1055 232.2254 -9992.3076 -8637.6284 239.2621 -748.4184 -671.0146 29122.3534 4.1420 4.1278
TCL: Running 100000 steps at 270 kelvin.
TCL: Setting parameter langevinTemp to 270
TCL: Running for 100000 steps
ETITLE: TS BOND ANGLE DIHED IMPRP ELECT VDW BOUNDARY MISC KINETIC TOTAL TEMP POTENTIAL TOTAL3 TEMPAVG PRESSURE GPRESSURE VOLUME PRESSAVG GPRESSAVG
ENERGY: 800000 3.3531 5.5541 1.1122 0.0000 -11666.4758 1664.1488 0.0000 0.0000 1350.5225 -8641.7850 232.1086 -9992.3076 -8639.0145 232.1086 -746.2377 -669.7531 29122.3534 -746.2377 -669.7531
ENERGY: 900000 2.7103 2.7612 0.2229 0.0000 -11047.5843 1502.1215 0.0000 0.0000 1637.4131 -7902.3553 281.4152 -9539.7684 -7896.2827 270.0083 -385.4052 -294.3373 29529.4567 2.9095 2.9483
TCL: Running 1000000 steps at 300 kelvin.
TCL: Setting parameter langevinTemp to 300
TCL: Running for 1000000 steps
ETITLE: TS BOND ANGLE DIHED IMPRP ELECT VDW BOUNDARY MISC KINETIC TOTAL TEMP POTENTIAL TOTAL3 TEMPAVG PRESSURE GPRESSURE VOLUME PRESSAVG GPRESSAVG
ENERGY: 900000 2.7103 2.7612 0.2229 0.0000 -11047.5843 1502.1215 0.0000 0.0000 1636.6028 -7903.1656 281.2760 -9539.7684 -7901.1350 281.2760 -379.2845 -292.7223 29529.4567 -379.2845 -292.7223
ENERGY: 1100000 2.6279 1.9606 0.0239 0.0000 -10630.8368 1460.9551 0.0000 0.0000 1731.4083 -7433.8611 297.5698 -9165.2694 -7432.0065 300.7974 255.8193 271.3497 30184.5579 2.8921 2.9998
ENERGY: 1300000 1.1770 7.1689 0.4904 0.0000 -10554.3857 1390.2440 0.0000 0.0000 1748.5491 -7406.7562 300.5157 -9155.3053 -7404.6611 300.0014 -482.4233 -370.2314 30344.2508 4.3537 4.2639
ENERGY: 1500000 1.1549 2.9057 0.6154 0.0000 -10514.3227 1439.6991 0.0000 0.0000 1755.0493 -7314.8983 301.6328 -9069.9476 -7313.2816 299.9319 235.7837 296.2059 30292.8507 1.7767 2.0156
ENERGY: 1700000 2.1388 7.3767 0.7575 0.0000 -10521.0834 1358.4599 0.0000 0.0000 1767.9173 -7384.4332 303.8444 -9152.3505 -7381.7024 300.3081 -460.8127 -430.0680 30222.3281 4.4184 4.3246
ENERGY: 1900000 0.9389 4.8656 1.1935 0.0000 -10510.0296 1394.1055 0.0000 0.0000 1671.0648 -7437.8614 287.1988 -9108.9262 -7434.4776 300.2620 81.6108 104.6248 30156.3317 2.7193 2.8113
TCL: Exiting due to exit command.
