Info: SIMULATION PARAMETERS:
Info: TIMESTEP               2
Info: NUMBER OF STEPS        0
Info: STEPS PER CYCLE        10
Info: PERIODIC CELL BASIS 1  34.986 0 0
Info: PERIODIC CELL BASIS 2  0 35.779 0
Info: PERIODIC CELL BASIS 3  0 0 35.723
Info: PERIODIC CELL CENTER   0 0 0
Info: WRAPPING WATERS AROUND PERIODIC BOUNDARIES ON OUTPUT.
Info: WRAPPING ALL CLUSTERS AROUND PERIODIC BOUNDARIES ON OUTPUT.
Info: FIRST LDB TIMESTEP     50
Info: LAST LDB TIMESTEP     -1
Info: HOM BACKGROUND SCALING 1
Info: PME BACKGROUND SCALING 1
Info: MIN ATOMS PER PATCH    40
Info: EMPTY PATCH LOAD       40 ATOMS
Info: INITIAL TEMPERATURE    300
Info: CENTER OF MASS MOVING INITIALLY? NO
Info: DIELECTRIC             1
Info: EXCLUDE                SCALED ONE-FOUR
Info: 1-4 ELECTROSTATICS SCALED BY 0.833333
Info: MODIFIED 1-4 VDW PARAMETERS WILL BE USED
Info: DCD FILENAME           mobley_9434451_equil.dcd
Info: DCD FREQUENCY          100000
Info: DCD FIRST STEP         100000
Info: DCD FILE WILL CONTAIN UNIT CELL DATA
Info: XST FILENAME           mobley_9434451_equil.xst
Info: XST FREQUENCY          100000
Info: NO VELOCITY DCD OUTPUT
Info: NO FORCE DCD OUTPUT
Info: OUTPUT FILENAME        mobley_9434451_equil
Info: BINARY OUTPUT FILES WILL BE USED
Info: RESTART FILENAME       mobley_9434451_equil.restart
Info: RESTART FREQUENCY      100000
Info: BINARY RESTART FILES WILL BE USED
Info: CUTOFF                 9
Info: PAIRLIST DISTANCE      11
Info: PAIRLIST SHRINK RATE   0.01
Info: PAIRLIST GROW RATE     0.01
Info: PAIRLIST TRIGGER       0.3
Info: PAIRLISTS PER CYCLE    2
Info: PAIRLISTS ENABLED
Info: MARGIN                 8
Info: HYDROGEN GROUP CUTOFF  2.5
Info: PATCH DIMENSION        21.5
Info: ENERGY OUTPUT STEPS    100000
Info: ENERGY EVALUATION STEPS    100000
Info: OUTPUT ENERGY PRECISION 4
Info: CROSSTERM ENERGY INCLUDED IN DIHEDRAL
Info: TIMING OUTPUT STEPS    1000000
Info: PRESSURE OUTPUT STEPS  100000
Info: LANGEVIN DYNAMICS ACTIVE
Info: LANGEVIN TEMPERATURE   30
Info: LANGEVIN USING BBK INTEGRATOR
Info: LANGEVIN DAMPING COEFFICIENT IS 1 INVERSE PS
Info: LANGEVIN DYNAMICS APPLIED TO HYDROGENS
Info: LANGEVIN PISTON PRESSURE CONTROL ACTIVE
Info:        TARGET PRESSURE IS 1.01325 BAR
Info:     OSCILLATION PERIOD IS 50 FS
Info:             DECAY TIME IS 25 FS
Info:     PISTON TEMPERATURE IS 300 K
Info:       PRESSURE CONTROL IS GROUP-BASED
Info:    INITIAL STRAIN RATE IS 0 0 0
Info:       CELL FLUCTUATION IS ISOTROPIC
Info: PARTICLE MESH EWALD (PME) ACTIVE
Info: PME TOLERANCE               1e-06
Info: PME EWALD COEFFICIENT       0.348832
Info: PME INTERPOLATION ORDER     4
Info: PME GRID DIMENSIONS         36 36 36
Info: PME MAXIMUM GRID SPACING    1
Info: FULL ELECTROSTATIC EVALUATION FREQUENCY      2
Info: USING VERLET I (r-RESPA) MTS SCHEME.
Info: C1 SPLITTING OF LONG RANGE ELECTROSTATICS
Info: PLACING ATOMS IN PATCHES BY HYDROGEN GROUPS
Info: RIGID BONDS TO HYDROGEN : ALL
Info:         ERROR TOLERANCE : 1e-08
Info:          MAX ITERATIONS : 100
Info: RIGID WATER USING SETTLE ALGORITHM
Info: RANDOM NUMBER SEED     1743161834
Info: USE HYDROGEN BONDS?    NO
Info: Using AMBER format force field!
Info: AMBER PARM FILE        mobley_9434451.prmtop
Info: COORDINATE PDB         mobley_9434451.pdb
Info: Exclusions will be read from PARM file!
Info: SCNB (VDW SCALING)     2
Info: USING ARITHMETIC MEAN TO COMBINE L-J SIGMA PARAMETERS
Info: BINARY COORDINATES     mobley_9434451_min.coor
Info: SUMMARY OF PARAMETERS:
Info: 6 BONDS
Info: 6 ANGLES
Info:   6 HARMONIC
Info:   0 COSINE-BASED
Info: 4 DIHEDRAL
Info: 0 IMPROPER
Info: 0 CROSSTERM
Info: 0 VDW
Info: 21 VDW_PAIRS
Info: 0 NBTHOLE_PAIRS
Info: STRUCTURE SUMMARY:
Info: 2954 ATOMS
Info: 2953 BONDS
Info: 18 ANGLES
Info: 24 DIHEDRALS
Info: 0 IMPROPERS
Info: 0 CROSSTERMS
Info: 2989 EXCLUSIONS
Info: 2950 RIGID BONDS
Info: 5912 DEGREES OF FREEDOM
Info: 985 HYDROGEN GROUPS
Info: 4 ATOMS IN LARGEST HYDROGEN GROUP
Info: 985 MIGRATION GROUPS
Info: 4 ATOMS IN LARGEST MIGRATION GROUP
Info: TOTAL MASS = 17796.7 amu
Info: TOTAL CHARGE = -0.000299979 e
Info: MASS DENSITY = 0.660888 g/cm^3
Info: ATOM DENSITY = 0.0660602 atoms/A^3
Info: ADDED 0 IMPLICIT EXCLUSIONS
Info: NONBONDED TABLE R-SQUARED SPACING: 0.0625
Info: NONBONDED TABLE SIZE: 705 POINTS
Info: REMOVING COM VELOCITY -0.0446682 -0.109267 0.182464
TCL: Running for 100000 steps
ETITLE: TS BOND ANGLE DIHED IMPRP ELECT VDW BOUNDARY MISC KINETIC TOTAL TEMP POTENTIAL TOTAL3 TEMPAVG PRESSURE GPRESSURE VOLUME PRESSAVG GPRESSAVG
ENERGY: 0 0.0121 0.1296 3.2960 0.0000 -13710.7846 2448.8791 0.0000 0.0000 1765.7249 -9492.7429 300.5931 -11258.4678 -9492.3899 300.5931 583.7046 628.6054 44716.7687 583.7046 628.6054
ENERGY: 100000 0.0388 0.3936 3.3115 0.0000 -14382.7042 2578.0268 0.0000 0.0000 175.9889 -11624.9446 29.9600 -11800.9335 -11624.5190 30.9891 692.8011 725.3302 28587.6134 3.6462 3.6218
TCL: Running 100000 steps at 60 kelvin.
TCL: Setting parameter langevinTemp to 60
TCL: Running for 100000 steps
ETITLE: TS BOND ANGLE DIHED IMPRP ELECT VDW BOUNDARY MISC KINETIC TOTAL TEMP POTENTIAL TOTAL3 TEMPAVG PRESSURE GPRESSURE VOLUME PRESSAVG GPRESSAVG
ENERGY: 100000 0.0388 0.3936 3.3115 0.0000 -14382.7042 2578.0268 0.0000 0.0000 175.9008 -11625.0327 29.9450 -11800.9335 -11624.6492 29.9450 689.9132 725.2619 28587.6134 689.9132 725.2619
ENERGY: 200000 0.6026 1.6531 3.3194 0.0000 -14332.2194 2643.6110 0.0000 0.0000 357.2665 -11325.7669 60.8203 -11683.0334 -11325.1259 59.8806 1711.9013 1717.5682 28679.0367 4.4698 4.5502
TCL: Running 100000 steps at 90 kelvin.
TCL: Setting parameter langevinTemp to 90
TCL: Running for 100000 steps
ETITLE: TS BOND ANGLE DIHED IMPRP ELECT VDW BOUNDARY MISC KINETIC TOTAL TEMP POTENTIAL TOTAL3 TEMPAVG PRESSURE GPRESSURE VOLUME PRESSAVG GPRESSAVG
ENERGY: 200000 0.6026 1.6531 3.3194 0.0000 -14332.2194 2643.6110 0.0000 0.0000 357.0930 -11325.9404 60.7907 -11683.0334 -11325.3304 60.7907 1674.3479 1717.4243 28679.0367 1674.3479 1717.4243
ENERGY: 300000 0.2276 0.9701 3.3231 0.0000 -13912.2704 2338.1494 0.0000 0.0000 530.9022 -11038.6981 90.3796 -11569.6003 -11036.6366 90.0846 -550.5774 -515.3328 29143.3391 5.0198 5.0878
TCL: Running 100000 steps at 120 kelvin.
TCL: Setting parameter langevinTemp to 120
TCL: Running for 100000 steps
ETITLE: TS BOND ANGLE DIHED IMPRP ELECT VDW BOUNDARY MISC KINETIC TOTAL TEMP POTENTIAL TOTAL3 TEMPAVG PRESSURE GPRESSURE VOLUME PRESSAVG GPRESSAVG
ENERGY: 300000 0.2276 0.9701 3.3231 0.0000 -13912.2704 2338.1494 0.0000 0.0000 530.6374 -11038.9629 90.3345 -11569.6003 -11037.6604 90.3345 -557.6720 -514.9703 29143.3391 -557.6720 -514.9703
ENERGY: 400000 0.4156 2.7399 3.6902 0.0000 -13755.2666 2266.6895 0.0000 0.0000 701.3892 -10780.3423 119.4029 -11481.7315 -10777.7516 119.9230 -704.4923 -670.9196 29092.2139 4.7165 4.7857
TCL: Running 100000 steps at 150 kelvin.
TCL: Setting parameter langevinTemp to 150
TCL: Running for 100000 steps
ETITLE: TS BOND ANGLE DIHED IMPRP ELECT VDW BOUNDARY MISC KINETIC TOTAL TEMP POTENTIAL TOTAL3 TEMPAVG PRESSURE GPRESSURE VOLUME PRESSAVG GPRESSAVG
ENERGY: 400000 0.4156 2.7399 3.6902 0.0000 -13755.2666 2266.6895 0.0000 0.0000 701.0427 -10780.6888 119.3440 -11481.7315 -10779.4737 119.3440 -722.6153 -670.7813 29092.2139 -722.6153 -670.7813
ENERGY: 500000 0.3876 1.6573 3.4362 0.0000 -13604.9158 2299.1917 0.0000 0.0000 879.7700 -10420.4729 149.7701 -11300.2430 -10417.8733 149.7207 112.0261 177.7805 29238.9976 3.8105 3.7055
TCL: Running 100000 steps at 180 kelvin.
TCL: Setting parameter langevinTemp to 180
TCL: Running for 100000 steps
ETITLE: TS BOND ANGLE DIHED IMPRP ELECT VDW BOUNDARY MISC KINETIC TOTAL TEMP POTENTIAL TOTAL3 TEMPAVG PRESSURE GPRESSURE VOLUME PRESSAVG GPRESSAVG
ENERGY: 500000 0.3876 1.6573 3.4362 0.0000 -13604.9158 2299.1917 0.0000 0.0000 879.3259 -10420.9171 149.6945 -11300.2430 -10419.0919 149.6945 119.0097 178.0056 29238.9976 119.0097 178.0056
ENERGY: 600000 0.4864 4.5101 3.3786 0.0000 -13264.8544 2203.5789 0.0000 0.0000 1039.4948 -10013.4057 176.9613 -11052.9005 -10009.8255 180.2809 357.8311 417.6367 28927.8313 5.3483 5.1866
TCL: Running 100000 steps at 210 kelvin.
TCL: Setting parameter langevinTemp to 210
TCL: Running for 100000 steps
ETITLE: TS BOND ANGLE DIHED IMPRP ELECT VDW BOUNDARY MISC KINETIC TOTAL TEMP POTENTIAL TOTAL3 TEMPAVG PRESSURE GPRESSURE VOLUME PRESSAVG GPRESSAVG
ENERGY: 600000 0.4864 4.5101 3.3786 0.0000 -13264.8544 2203.5789 0.0000 0.0000 1038.9441 -10013.9564 176.8675 -11052.9005 -10011.9919 176.8675 358.4140 417.7427 28927.8313 358.4140 417.7427
ENERGY: 700000 0.3213 2.3735 3.4600 0.0000 -12341.1434 1854.6619 0.0000 0.0000 1234.1331 -9246.1935 210.0961 -10480.3266 -9243.1631 210.2031 -188.8057 -90.5994 28791.8630 3.1609 3.1637
TCL: Running 100000 steps at 240 kelvin.
TCL: Setting parameter langevinTemp to 240
TCL: Running for 100000 steps
ETITLE: TS BOND ANGLE DIHED IMPRP ELECT VDW BOUNDARY MISC KINETIC TOTAL TEMP POTENTIAL TOTAL3 TEMPAVG PRESSURE GPRESSURE VOLUME PRESSAVG GPRESSAVG
ENERGY: 700000 0.3213 2.3735 3.4600 0.0000 -12341.1434 1854.6619 0.0000 0.0000 1233.5005 -9246.8262 209.9884 -10480.3266 -9244.8656 209.9884 -174.7991 -90.4005 28791.8630 -174.7991 -90.4005
ENERGY: 800000 0.6705 3.4962 3.3684 0.0000 -11749.8384 1693.7070 0.0000 0.0000 1399.1679 -8649.4284 238.1912 -10048.5962 -8646.0044 240.2566 -84.4300 -26.1485 29131.7474 3.0466 2.8462
TCL: Running 100000 steps at 270 kelvin.
TCL: Setting parameter langevinTemp to 270
TCL: Running for 100000 steps
ETITLE: TS BOND ANGLE DIHED IMPRP ELECT VDW BOUNDARY MISC KINETIC TOTAL TEMP POTENTIAL TOTAL3 TEMPAVG PRESSURE GPRESSURE VOLUME PRESSAVG GPRESSAVG
ENERGY: 800000 0.6705 3.4962 3.3684 0.0000 -11749.8384 1693.7070 0.0000 0.0000 1398.4802 -8650.1160 238.0742 -10048.5962 -8648.2956 238.0742 -108.2491 -26.2798 29131.7474 -108.2491 -26.2798
ENERGY: 900000 0.0585 4.1282 3.7711 0.0000 -11167.9694 1523.5136 0.0000 0.0000 1590.6632 -8045.8348 270.7910 -9636.4980 -8042.6563 270.2138 -175.4055 -90.8679 29620.2959 2.8643 2.6744
TCL: Running 1000000 steps at 300 kelvin.
TCL: Setting parameter langevinTemp to 300
TCL: Running for 1000000 steps
ETITLE: TS BOND ANGLE DIHED IMPRP ELECT VDW BOUNDARY MISC KINETIC TOTAL TEMP POTENTIAL TOTAL3 TEMPAVG PRESSURE GPRESSURE VOLUME PRESSAVG GPRESSAVG
ENERGY: 900000 0.0585 4.1282 3.7711 0.0000 -11167.9694 1523.5136 0.0000 0.0000 1589.8419 -8046.6561 270.6512 -9636.4980 -8044.0054 270.6512 -185.3660 -91.3047 29620.2959 -185.3660 -91.3047
ENERGY: 1100000 0.5636 4.0462 3.8042 0.0000 -10698.9770 1396.3678 0.0000 0.0000 1735.2602 -7558.9351 295.4068 -9294.1953 -7555.4781 301.3806 -223.1585 -108.5151 29992.8266 4.0003 3.9758
ENERGY: 1300000 0.3248 5.9048 4.1474 0.0000 -10739.2547 1402.0538 0.0000 0.0000 1768.7590 -7558.0649 301.1096 -9326.8239 -7555.9846 300.7736 -427.5537 -404.1603 30403.7898 3.5699 3.4522
ENERGY: 1500000 0.6845 1.1076 3.9942 0.0000 -10642.9975 1386.2390 0.0000 0.0000 1748.9477 -7502.0246 297.7370 -9250.9723 -7499.5255 300.6741 -308.4114 -191.8656 30216.8058 3.8342 3.8209
ENERGY: 1700000 2.3187 4.6619 3.3375 0.0000 -10727.4685 1428.1844 0.0000 0.0000 1794.8901 -7494.0759 305.5581 -9288.9660 -7489.6832 300.5174 -247.1022 -171.3213 30622.2569 2.6389 2.7555
ENERGY: 1900000 1.2427 4.6308 4.6893 0.0000 -10661.5966 1492.7298 0.0000 0.0000 1782.5402 -7375.7638 303.4557 -9158.3040 -7373.3305 300.7831 489.8369 588.2268 30769.3912 3.3151 3.4094
TCL: Exiting due to exit command.
