Info: SIMULATION PARAMETERS:
Info: TIMESTEP               2
Info: NUMBER OF STEPS        0
Info: STEPS PER CYCLE        10
Info: PERIODIC CELL BASIS 1  34.986 0 0
Info: PERIODIC CELL BASIS 2  0 34.26 0
Info: PERIODIC CELL BASIS 3  0 0 36.583
Info: PERIODIC CELL CENTER   0 0 0
Info: WRAPPING WATERS AROUND PERIODIC BOUNDARIES ON OUTPUT.
Info: WRAPPING ALL CLUSTERS AROUND PERIODIC BOUNDARIES ON OUTPUT.
Info: FIRST LDB TIMESTEP     50
Info: LAST LDB TIMESTEP     -1
Info: HOM BACKGROUND SCALING 1
Info: PME BACKGROUND SCALING 1
Info: MIN ATOMS PER PATCH    40
Info: EMPTY PATCH LOAD       40 ATOMS
Info: INITIAL TEMPERATURE    300
Info: CENTER OF MASS MOVING INITIALLY? NO
Info: DIELECTRIC             1
Info: EXCLUDE                SCALED ONE-FOUR
Info: 1-4 ELECTROSTATICS SCALED BY 0.833333
Info: MODIFIED 1-4 VDW PARAMETERS WILL BE USED
Info: DCD FILENAME           mobley_4252724_equil.dcd
Info: DCD FREQUENCY          100000
Info: DCD FIRST STEP         100000
Info: DCD FILE WILL CONTAIN UNIT CELL DATA
Info: XST FILENAME           mobley_4252724_equil.xst
Info: XST FREQUENCY          100000
Info: NO VELOCITY DCD OUTPUT
Info: NO FORCE DCD OUTPUT
Info: OUTPUT FILENAME        mobley_4252724_equil
Info: BINARY OUTPUT FILES WILL BE USED
Info: RESTART FILENAME       mobley_4252724_equil.restart
Info: RESTART FREQUENCY      100000
Info: BINARY RESTART FILES WILL BE USED
Info: CUTOFF                 9
Info: PAIRLIST DISTANCE      11
Info: PAIRLIST SHRINK RATE   0.01
Info: PAIRLIST GROW RATE     0.01
Info: PAIRLIST TRIGGER       0.3
Info: PAIRLISTS PER CYCLE    2
Info: PAIRLISTS ENABLED
Info: MARGIN                 8
Info: HYDROGEN GROUP CUTOFF  2.5
Info: PATCH DIMENSION        21.5
Info: ENERGY OUTPUT STEPS    100000
Info: ENERGY EVALUATION STEPS    100000
Info: OUTPUT ENERGY PRECISION 4
Info: CROSSTERM ENERGY INCLUDED IN DIHEDRAL
Info: TIMING OUTPUT STEPS    1000000
Info: PRESSURE OUTPUT STEPS  100000
Info: LANGEVIN DYNAMICS ACTIVE
Info: LANGEVIN TEMPERATURE   30
Info: LANGEVIN USING BBK INTEGRATOR
Info: LANGEVIN DAMPING COEFFICIENT IS 1 INVERSE PS
Info: LANGEVIN DYNAMICS APPLIED TO HYDROGENS
Info: LANGEVIN PISTON PRESSURE CONTROL ACTIVE
Info:        TARGET PRESSURE IS 1.01325 BAR
Info:     OSCILLATION PERIOD IS 50 FS
Info:             DECAY TIME IS 25 FS
Info:     PISTON TEMPERATURE IS 300 K
Info:       PRESSURE CONTROL IS GROUP-BASED
Info:    INITIAL STRAIN RATE IS 0 0 0
Info:       CELL FLUCTUATION IS ISOTROPIC
Info: PARTICLE MESH EWALD (PME) ACTIVE
Info: PME TOLERANCE               1e-06
Info: PME EWALD COEFFICIENT       0.348832
Info: PME INTERPOLATION ORDER     4
Info: PME GRID DIMENSIONS         36 36 40
Info: PME MAXIMUM GRID SPACING    1
Info: FULL ELECTROSTATIC EVALUATION FREQUENCY      2
Info: USING VERLET I (r-RESPA) MTS SCHEME.
Info: C1 SPLITTING OF LONG RANGE ELECTROSTATICS
Info: PLACING ATOMS IN PATCHES BY HYDROGEN GROUPS
Info: RIGID BONDS TO HYDROGEN : ALL
Info:         ERROR TOLERANCE : 1e-08
Info:          MAX ITERATIONS : 100
Info: RIGID WATER USING SETTLE ALGORITHM
Info: RANDOM NUMBER SEED     1743246042
Info: USE HYDROGEN BONDS?    NO
Info: Using AMBER format force field!
Info: AMBER PARM FILE        mobley_4252724.prmtop
Info: COORDINATE PDB         mobley_4252724.pdb
Info: Exclusions will be read from PARM file!
Info: SCNB (VDW SCALING)     2
Info: USING ARITHMETIC MEAN TO COMBINE L-J SIGMA PARAMETERS
Info: BINARY COORDINATES     mobley_4252724_min.coor
Info: SUMMARY OF PARAMETERS:
Info: 7 BONDS
Info: 8 ANGLES
Info: 6 DIHEDRAL
Info: 0 IMPROPER
Info: 0 CROSSTERM
Info: 0 VDW
Info: 21 VDW_PAIRS
Info: 0 NBTHOLE_PAIRS
Info: STRUCTURE SUMMARY:
Info: 2958 ATOMS
Info: 2958 BONDS
Info: 42 ANGLES
Info: 63 DIHEDRALS
Info: 0 IMPROPERS
Info: 0 CROSSTERMS
Info: 3054 EXCLUSIONS
Info: 2948 RIGID BONDS
Info: 5926 DEGREES OF FREEDOM
Info: 988 HYDROGEN GROUPS
Info: 4 ATOMS IN LARGEST HYDROGEN GROUP
Info: 988 MIGRATION GROUPS
Info: 4 ATOMS IN LARGEST MIGRATION GROUP
Info: TOTAL MASS = 17753.9 amu
Info: TOTAL CHARGE = -1.49012e-08 e
Info: MASS DENSITY = 0.672343 g/cm^3
Info: ATOM DENSITY = 0.0674586 atoms/A^3
Info: ADDED 0 IMPLICIT EXCLUSIONS
Info: NONBONDED TABLE R-SQUARED SPACING: 0.0625
Info: NONBONDED TABLE SIZE: 705 POINTS
Info: REMOVING COM VELOCITY -0.0726855 0.130368 0.0441925
TCL: Running for 100000 steps
ETITLE: TS BOND ANGLE DIHED IMPRP ELECT VDW BOUNDARY MISC KINETIC TOTAL TEMP POTENTIAL TOTAL3 TEMPAVG PRESSURE GPRESSURE VOLUME PRESSAVG GPRESSAVG
ENERGY: 0 0.2450 0.5459 0.1686 0.0000 -13622.1153 2388.8985 0.0000 0.0000 1753.2494 -9479.0080 297.7642 -11232.2573 -9478.6593 297.7642 421.4545 457.9711 43849.1286 421.4545 457.9711
ENERGY: 100000 0.7809 1.0471 0.5937 0.0000 -14137.6564 2390.6782 0.0000 0.0000 174.0953 -11570.4612 29.5676 -11744.5565 -11570.1283 30.9675 -737.9260 -664.9494 28906.3112 5.1974 5.1696
TCL: Running 100000 steps at 60 kelvin.
TCL: Setting parameter langevinTemp to 60
TCL: Running for 100000 steps
ETITLE: TS BOND ANGLE DIHED IMPRP ELECT VDW BOUNDARY MISC KINETIC TOTAL TEMP POTENTIAL TOTAL3 TEMPAVG PRESSURE GPRESSURE VOLUME PRESSAVG GPRESSAVG
ENERGY: 100000 0.7809 1.0471 0.5937 0.0000 -14137.6564 2390.6782 0.0000 0.0000 174.0088 -11570.5477 29.5529 -11744.5565 -11570.1065 29.5529 -726.9371 -665.2620 28906.3112 -726.9371 -665.2620
ENERGY: 200000 0.7661 2.0013 0.8037 0.0000 -14084.2872 2406.5495 0.0000 0.0000 362.0342 -11312.1323 61.4863 -11674.1665 -11310.9896 59.9190 -258.6637 -178.5767 28783.0891 3.3943 3.4938
TCL: Running 100000 steps at 90 kelvin.
TCL: Setting parameter langevinTemp to 90
TCL: Running for 100000 steps
ETITLE: TS BOND ANGLE DIHED IMPRP ELECT VDW BOUNDARY MISC KINETIC TOTAL TEMP POTENTIAL TOTAL3 TEMPAVG PRESSURE GPRESSURE VOLUME PRESSAVG GPRESSAVG
ENERGY: 200000 0.7661 2.0013 0.8037 0.0000 -14084.2872 2406.5495 0.0000 0.0000 361.8688 -11312.2977 61.4582 -11674.1665 -11311.2922 61.4582 -235.9843 -178.1182 28783.0891 -235.9843 -178.1182
ENERGY: 300000 1.2286 2.8840 1.4000 0.0000 -14055.7161 2470.6069 0.0000 0.0000 531.3902 -11048.2065 90.2490 -11579.5967 -11047.2280 89.9902 1049.3171 1098.9600 28226.1445 4.3397 4.3598
TCL: Running 100000 steps at 120 kelvin.
TCL: Setting parameter langevinTemp to 120
TCL: Running for 100000 steps
ETITLE: TS BOND ANGLE DIHED IMPRP ELECT VDW BOUNDARY MISC KINETIC TOTAL TEMP POTENTIAL TOTAL3 TEMPAVG PRESSURE GPRESSURE VOLUME PRESSAVG GPRESSAVG
ENERGY: 300000 1.2286 2.8840 1.4000 0.0000 -14055.7161 2470.6069 0.0000 0.0000 531.1315 -11048.4652 90.2050 -11579.5967 -11047.7117 90.2050 1046.1499 1098.8323 28226.1445 1046.1499 1098.8323
ENERGY: 400000 1.0930 2.8790 0.7716 0.0000 -13787.3676 2364.3321 0.0000 0.0000 718.6656 -10699.6262 122.0550 -11418.2918 -10697.9763 119.8483 539.0282 578.4011 28596.9773 4.9826 5.0135
TCL: Running 100000 steps at 150 kelvin.
TCL: Setting parameter langevinTemp to 150
TCL: Running for 100000 steps
ETITLE: TS BOND ANGLE DIHED IMPRP ELECT VDW BOUNDARY MISC KINETIC TOTAL TEMP POTENTIAL TOTAL3 TEMPAVG PRESSURE GPRESSURE VOLUME PRESSAVG GPRESSAVG
ENERGY: 400000 1.0930 2.8790 0.7716 0.0000 -13787.3676 2364.3321 0.0000 0.0000 718.3141 -10699.9777 121.9953 -11418.2918 -10698.6906 121.9953 547.6692 578.2003 28596.9773 547.6692 578.2003
ENERGY: 500000 2.7649 4.4633 1.1848 0.0000 -13411.0811 2108.3029 0.0000 0.0000 902.2495 -10392.1156 153.2341 -11294.3651 -10389.6583 150.1183 -1216.9457 -1172.3130 28837.5314 3.9493 3.9528
TCL: Running 100000 steps at 180 kelvin.
TCL: Setting parameter langevinTemp to 180
TCL: Running for 100000 steps
ETITLE: TS BOND ANGLE DIHED IMPRP ELECT VDW BOUNDARY MISC KINETIC TOTAL TEMP POTENTIAL TOTAL3 TEMPAVG PRESSURE GPRESSURE VOLUME PRESSAVG GPRESSAVG
ENERGY: 500000 2.7649 4.4633 1.1848 0.0000 -13411.0811 2108.3029 0.0000 0.0000 901.8145 -10392.5506 153.1602 -11294.3651 -10390.1327 153.1602 -1239.4278 -1173.3707 28837.5314 -1239.4278 -1173.3707
ENERGY: 600000 2.7046 2.7094 4.5730 0.0000 -13112.0347 2147.1754 0.0000 0.0000 1055.6222 -9899.2501 179.2822 -10954.8723 -9897.0957 179.8336 218.9152 315.5270 28799.7440 3.2704 3.4725
TCL: Running 100000 steps at 210 kelvin.
TCL: Setting parameter langevinTemp to 210
TCL: Running for 100000 steps
ETITLE: TS BOND ANGLE DIHED IMPRP ELECT VDW BOUNDARY MISC KINETIC TOTAL TEMP POTENTIAL TOTAL3 TEMPAVG PRESSURE GPRESSURE VOLUME PRESSAVG GPRESSAVG
ENERGY: 600000 2.7046 2.7094 4.5730 0.0000 -13112.0347 2147.1754 0.0000 0.0000 1055.0838 -9899.7885 179.1908 -10954.8723 -9897.8463 179.1908 262.3359 315.8858 28799.7440 262.3359 315.8858
ENERGY: 700000 2.0471 7.0483 1.2388 0.0000 -12184.7075 1775.4356 0.0000 0.0000 1206.4142 -9192.5236 204.8921 -10398.9377 -9189.4928 210.0810 -817.5039 -830.8417 29150.7122 1.8065 1.8312
TCL: Running 100000 steps at 240 kelvin.
TCL: Setting parameter langevinTemp to 240
TCL: Running for 100000 steps
ETITLE: TS BOND ANGLE DIHED IMPRP ELECT VDW BOUNDARY MISC KINETIC TOTAL TEMP POTENTIAL TOTAL3 TEMPAVG PRESSURE GPRESSURE VOLUME PRESSAVG GPRESSAVG
ENERGY: 700000 2.0471 7.0483 1.2388 0.0000 -12184.7075 1775.4356 0.0000 0.0000 1205.8135 -9193.1243 204.7901 -10398.9377 -9190.8317 204.7901 -887.5130 -830.4750 29150.7122 -887.5130 -830.4750
ENERGY: 800000 4.0159 7.8845 3.3525 0.0000 -11762.7204 1707.5149 0.0000 0.0000 1406.7264 -8633.2263 238.9122 -10039.9527 -8630.9121 239.7547 -397.1489 -293.3381 29680.4327 3.4523 3.5082
TCL: Running 100000 steps at 270 kelvin.
TCL: Setting parameter langevinTemp to 270
TCL: Running for 100000 steps
ETITLE: TS BOND ANGLE DIHED IMPRP ELECT VDW BOUNDARY MISC KINETIC TOTAL TEMP POTENTIAL TOTAL3 TEMPAVG PRESSURE GPRESSURE VOLUME PRESSAVG GPRESSAVG
ENERGY: 800000 4.0159 7.8845 3.3525 0.0000 -11762.7204 1707.5149 0.0000 0.0000 1406.0068 -8633.9459 238.7900 -10039.9527 -8631.1093 238.7900 -375.7548 -295.6059 29680.4327 -375.7548 -295.6059
ENERGY: 900000 3.3207 8.0579 3.7427 0.0000 -11352.8468 1650.8978 0.0000 0.0000 1602.4513 -8084.3764 272.1533 -9686.8278 -8080.8013 269.8514 567.7161 671.5914 29380.3250 1.9491 1.7882
TCL: Running 1000000 steps at 300 kelvin.
TCL: Setting parameter langevinTemp to 300
TCL: Running for 1000000 steps
ETITLE: TS BOND ANGLE DIHED IMPRP ELECT VDW BOUNDARY MISC KINETIC TOTAL TEMP POTENTIAL TOTAL3 TEMPAVG PRESSURE GPRESSURE VOLUME PRESSAVG GPRESSAVG
ENERGY: 900000 3.3207 8.0579 3.7427 0.0000 -11352.8468 1650.8978 0.0000 0.0000 1601.6459 -8085.1819 272.0165 -9686.8278 -8082.9177 272.0165 577.4942 672.7070 29380.3250 577.4942 672.7070
ENERGY: 1100000 4.0028 9.6405 2.2719 0.0000 -10683.3920 1393.1557 0.0000 0.0000 1742.6443 -7531.6768 295.9630 -9274.3211 -7527.7057 299.8095 -655.5503 -584.5104 30677.8617 3.8507 3.9967
ENERGY: 1300000 1.5635 6.1525 4.0941 0.0000 -10638.8934 1389.2369 0.0000 0.0000 1762.6443 -7475.2021 299.3598 -9237.8464 -7472.1950 300.3876 -584.8154 -441.0516 30584.1559 3.6305 3.6056
ENERGY: 1500000 2.7565 9.5384 6.6928 0.0000 -10753.9738 1491.3746 0.0000 0.0000 1790.1710 -7453.4404 304.0348 -9243.6114 -7448.9398 300.0741 456.2974 480.0337 30437.4017 3.1231 2.9382
ENERGY: 1700000 1.2002 9.9257 3.8272 0.0000 -10717.7135 1506.5104 0.0000 0.0000 1761.4926 -7434.7574 299.1642 -9196.2500 -7433.3806 300.6357 779.3718 865.6595 30186.7126 4.1163 4.1123
ENERGY: 1900000 2.4545 11.3216 3.4208 0.0000 -10684.0485 1429.0501 0.0000 0.0000 1711.2706 -7526.5308 290.6347 -9237.8014 -7522.9125 299.9054 -154.1835 -94.5763 30764.0868 4.2061 4.1313
TCL: Exiting due to exit command.
