Info: SIMULATION PARAMETERS:
Info: TIMESTEP               2
Info: NUMBER OF STEPS        0
Info: STEPS PER CYCLE        10
Info: PERIODIC CELL BASIS 1  34.986 0 0
Info: PERIODIC CELL BASIS 2  0 34.26 0
Info: PERIODIC CELL BASIS 3  0 0 36.199
Info: PERIODIC CELL CENTER   0 0 0
Info: WRAPPING WATERS AROUND PERIODIC BOUNDARIES ON OUTPUT.
Info: WRAPPING ALL CLUSTERS AROUND PERIODIC BOUNDARIES ON OUTPUT.
Info: FIRST LDB TIMESTEP     50
Info: LAST LDB TIMESTEP     -1
Info: HOM BACKGROUND SCALING 1
Info: PME BACKGROUND SCALING 1
Info: MIN ATOMS PER PATCH    40
Info: EMPTY PATCH LOAD       40 ATOMS
Info: INITIAL TEMPERATURE    300
Info: CENTER OF MASS MOVING INITIALLY? NO
Info: DIELECTRIC             1
Info: EXCLUDE                SCALED ONE-FOUR
Info: 1-4 ELECTROSTATICS SCALED BY 0.833333
Info: MODIFIED 1-4 VDW PARAMETERS WILL BE USED
Info: DCD FILENAME           mobley_4287564_equil.dcd
Info: DCD FREQUENCY          100000
Info: DCD FIRST STEP         100000
Info: DCD FILE WILL CONTAIN UNIT CELL DATA
Info: XST FILENAME           mobley_4287564_equil.xst
Info: XST FREQUENCY          100000
Info: NO VELOCITY DCD OUTPUT
Info: NO FORCE DCD OUTPUT
Info: OUTPUT FILENAME        mobley_4287564_equil
Info: BINARY OUTPUT FILES WILL BE USED
Info: RESTART FILENAME       mobley_4287564_equil.restart
Info: RESTART FREQUENCY      100000
Info: BINARY RESTART FILES WILL BE USED
Info: CUTOFF                 9
Info: PAIRLIST DISTANCE      11
Info: PAIRLIST SHRINK RATE   0.01
Info: PAIRLIST GROW RATE     0.01
Info: PAIRLIST TRIGGER       0.3
Info: PAIRLISTS PER CYCLE    2
Info: PAIRLISTS ENABLED
Info: MARGIN                 8
Info: HYDROGEN GROUP CUTOFF  2.5
Info: PATCH DIMENSION        21.5
Info: ENERGY OUTPUT STEPS    100000
Info: ENERGY EVALUATION STEPS    100000
Info: OUTPUT ENERGY PRECISION 4
Info: CROSSTERM ENERGY INCLUDED IN DIHEDRAL
Info: TIMING OUTPUT STEPS    1000000
Info: PRESSURE OUTPUT STEPS  100000
Info: LANGEVIN DYNAMICS ACTIVE
Info: LANGEVIN TEMPERATURE   30
Info: LANGEVIN USING BBK INTEGRATOR
Info: LANGEVIN DAMPING COEFFICIENT IS 1 INVERSE PS
Info: LANGEVIN DYNAMICS APPLIED TO HYDROGENS
Info: LANGEVIN PISTON PRESSURE CONTROL ACTIVE
Info:        TARGET PRESSURE IS 1.01325 BAR
Info:     OSCILLATION PERIOD IS 50 FS
Info:             DECAY TIME IS 25 FS
Info:     PISTON TEMPERATURE IS 300 K
Info:       PRESSURE CONTROL IS GROUP-BASED
Info:    INITIAL STRAIN RATE IS 0 0 0
Info:       CELL FLUCTUATION IS ISOTROPIC
Info: PARTICLE MESH EWALD (PME) ACTIVE
Info: PME TOLERANCE               1e-06
Info: PME EWALD COEFFICIENT       0.348832
Info: PME INTERPOLATION ORDER     4
Info: PME GRID DIMENSIONS         36 36 40
Info: PME MAXIMUM GRID SPACING    1
Info: FULL ELECTROSTATIC EVALUATION FREQUENCY      2
Info: USING VERLET I (r-RESPA) MTS SCHEME.
Info: C1 SPLITTING OF LONG RANGE ELECTROSTATICS
Info: PLACING ATOMS IN PATCHES BY HYDROGEN GROUPS
Info: RIGID BONDS TO HYDROGEN : ALL
Info:         ERROR TOLERANCE : 1e-08
Info:          MAX ITERATIONS : 100
Info: RIGID WATER USING SETTLE ALGORITHM
Info: RANDOM NUMBER SEED     1743210479
Info: USE HYDROGEN BONDS?    NO
Info: Using AMBER format force field!
Info: AMBER PARM FILE        mobley_4287564.prmtop
Info: COORDINATE PDB         mobley_4287564.pdb
Info: Exclusions will be read from PARM file!
Info: SCNB (VDW SCALING)     2
Info: USING ARITHMETIC MEAN TO COMBINE L-J SIGMA PARAMETERS
Info: BINARY COORDINATES     mobley_4287564_min.coor
Info: SUMMARY OF PARAMETERS:
Info: 8 BONDS
Info: 10 ANGLES
Info:   10 HARMONIC
Info:   0 COSINE-BASED
Info: 4 DIHEDRAL
Info: 0 IMPROPER
Info: 0 CROSSTERM
Info: 0 VDW
Info: 36 VDW_PAIRS
Info: 0 NBTHOLE_PAIRS
Info: STRUCTURE SUMMARY:
Info: 2972 ATOMS
Info: 2972 BONDS
Info: 22 ANGLES
Info: 31 DIHEDRALS
Info: 0 IMPROPERS
Info: 0 CROSSTERMS
Info: 3017 EXCLUSIONS
Info: 2965 RIGID BONDS
Info: 5951 DEGREES OF FREEDOM
Info: 993 HYDROGEN GROUPS
Info: 4 ATOMS IN LARGEST HYDROGEN GROUP
Info: 993 MIGRATION GROUPS
Info: 4 ATOMS IN LARGEST MIGRATION GROUP
Info: TOTAL MASS = 17856.9 amu
Info: TOTAL CHARGE = 0.000100024 e
Info: MASS DENSITY = 0.683419 g/cm^3
Info: ATOM DENSITY = 0.0684968 atoms/A^3
Info: ADDED 0 IMPLICIT EXCLUSIONS
Info: NONBONDED TABLE R-SQUARED SPACING: 0.0625
Info: NONBONDED TABLE SIZE: 705 POINTS
Info: REMOVING COM VELOCITY -0.225049 -0.0232734 0.0815097
TCL: Running for 100000 steps
ETITLE: TS BOND ANGLE DIHED IMPRP ELECT VDW BOUNDARY MISC KINETIC TOTAL TEMP POTENTIAL TOTAL3 TEMPAVG PRESSURE GPRESSURE VOLUME PRESSAVG GPRESSAVG
ENERGY: 0 0.1114 0.2455 0.1179 0.0000 -13777.7782 2418.4043 0.0000 0.0000 1763.7143 -9595.1849 298.2831 -11358.8992 -9594.8316 298.2831 363.7641 397.8296 43388.8584 363.7641 397.8296
ENERGY: 100000 0.5186 0.6483 0.1768 0.0000 -14273.8193 2444.1809 0.0000 0.0000 180.8357 -11647.4589 30.5833 -11828.2946 -11646.7544 30.9204 -574.0660 -511.1152 29651.9536 2.9345 2.8241
TCL: Running 100000 steps at 60 kelvin.
TCL: Setting parameter langevinTemp to 60
TCL: Running for 100000 steps
ETITLE: TS BOND ANGLE DIHED IMPRP ELECT VDW BOUNDARY MISC KINETIC TOTAL TEMP POTENTIAL TOTAL3 TEMPAVG PRESSURE GPRESSURE VOLUME PRESSAVG GPRESSAVG
ENERGY: 100000 0.5186 0.6483 0.1768 0.0000 -14273.8193 2444.1809 0.0000 0.0000 180.7502 -11647.5444 30.5689 -11828.2946 -11647.1355 30.5689 -567.7015 -510.8978 29651.9536 -567.7015 -510.8978
ENERGY: 200000 0.4402 0.7136 0.4673 0.0000 -14399.2701 2596.6042 0.0000 0.0000 369.5578 -11431.4869 62.5004 -11801.0447 -11430.8058 60.1145 1023.3616 1112.1805 29135.3500 3.6599 3.6512
TCL: Running 100000 steps at 90 kelvin.
TCL: Setting parameter langevinTemp to 90
TCL: Running for 100000 steps
ETITLE: TS BOND ANGLE DIHED IMPRP ELECT VDW BOUNDARY MISC KINETIC TOTAL TEMP POTENTIAL TOTAL3 TEMPAVG PRESSURE GPRESSURE VOLUME PRESSAVG GPRESSAVG
ENERGY: 200000 0.4402 0.7136 0.4673 0.0000 -14399.2701 2596.6042 0.0000 0.0000 369.3837 -11431.6610 62.4710 -11801.0447 -11430.8915 62.4710 1050.2686 1112.1466 29135.3500 1050.2686 1112.1466
ENERGY: 300000 0.8199 0.5933 0.6382 0.0000 -14043.4802 2373.9882 0.0000 0.0000 536.6872 -11130.7534 90.7657 -11667.4406 -11129.4949 89.9982 -447.2865 -380.2119 29454.3575 4.6158 4.5882
TCL: Running 100000 steps at 120 kelvin.
TCL: Setting parameter langevinTemp to 120
TCL: Running for 100000 steps
ETITLE: TS BOND ANGLE DIHED IMPRP ELECT VDW BOUNDARY MISC KINETIC TOTAL TEMP POTENTIAL TOTAL3 TEMPAVG PRESSURE GPRESSURE VOLUME PRESSAVG GPRESSAVG
ENERGY: 300000 0.8199 0.5933 0.6382 0.0000 -14043.4802 2373.9882 0.0000 0.0000 536.4199 -11131.0206 90.7205 -11667.4406 -11129.9588 90.7205 -428.9818 -380.0828 29454.3575 -428.9818 -380.0828
ENERGY: 400000 1.4055 0.7172 0.4323 0.0000 -13931.4338 2391.1908 0.0000 0.0000 714.5613 -10823.1266 120.8481 -11537.6879 -10821.6884 120.0217 275.5887 326.5641 29141.7018 3.9747 3.9564
TCL: Running 100000 steps at 150 kelvin.
TCL: Setting parameter langevinTemp to 150
TCL: Running for 100000 steps
ETITLE: TS BOND ANGLE DIHED IMPRP ELECT VDW BOUNDARY MISC KINETIC TOTAL TEMP POTENTIAL TOTAL3 TEMPAVG PRESSURE GPRESSURE VOLUME PRESSAVG GPRESSAVG
ENERGY: 400000 1.4055 0.7172 0.4323 0.0000 -13931.4338 2391.1908 0.0000 0.0000 714.1971 -10823.4908 120.7865 -11537.6879 -10822.0343 120.7865 265.9072 326.4710 29141.7018 265.9072 326.4710
ENERGY: 500000 1.9387 2.8861 0.6021 0.0000 -13724.2338 2305.5477 0.0000 0.0000 919.4517 -10493.8075 155.4996 -11413.2592 -10490.7579 149.8945 208.5141 252.4009 29144.6612 3.2179 3.2975
TCL: Running 100000 steps at 180 kelvin.
TCL: Setting parameter langevinTemp to 180
TCL: Running for 100000 steps
ETITLE: TS BOND ANGLE DIHED IMPRP ELECT VDW BOUNDARY MISC KINETIC TOTAL TEMP POTENTIAL TOTAL3 TEMPAVG PRESSURE GPRESSURE VOLUME PRESSAVG GPRESSAVG
ENERGY: 500000 1.9387 2.8861 0.6021 0.0000 -13724.2338 2305.5477 0.0000 0.0000 918.9880 -10494.2712 155.4212 -11413.2592 -10492.3809 155.4212 204.3502 253.0699 29144.6612 204.3502 253.0699
ENERGY: 600000 0.4567 3.3008 0.9411 0.0000 -13393.9807 2225.3959 0.0000 0.0000 1061.8466 -10102.0396 179.5817 -11163.8861 -10098.7052 180.0217 386.3824 434.9910 29185.4156 2.4811 2.5560
TCL: Running 100000 steps at 210 kelvin.
TCL: Setting parameter langevinTemp to 210
TCL: Running for 100000 steps
ETITLE: TS BOND ANGLE DIHED IMPRP ELECT VDW BOUNDARY MISC KINETIC TOTAL TEMP POTENTIAL TOTAL3 TEMPAVG PRESSURE GPRESSURE VOLUME PRESSAVG GPRESSAVG
ENERGY: 600000 0.4567 3.3008 0.9411 0.0000 -13393.9807 2225.3959 0.0000 0.0000 1061.3190 -10102.5671 179.4925 -11163.8861 -10100.5206 179.4925 368.9825 434.8554 29185.4156 368.9825 434.8554
ENERGY: 700000 4.2400 5.2150 1.9131 0.0000 -12477.4213 1827.0287 0.0000 0.0000 1210.3158 -9428.7087 204.6912 -10639.0245 -9424.2550 209.6660 -1043.4171 -1007.7838 29191.5731 3.1441 3.2523
TCL: Running 100000 steps at 240 kelvin.
TCL: Setting parameter langevinTemp to 240
TCL: Running for 100000 steps
ETITLE: TS BOND ANGLE DIHED IMPRP ELECT VDW BOUNDARY MISC KINETIC TOTAL TEMP POTENTIAL TOTAL3 TEMPAVG PRESSURE GPRESSURE VOLUME PRESSAVG GPRESSAVG
ENERGY: 700000 4.2400 5.2150 1.9131 0.0000 -12477.4213 1827.0287 0.0000 0.0000 1209.6610 -9429.3635 204.5804 -10639.0245 -9427.0200 204.5804 -1062.4939 -1006.2527 29191.5731 -1062.4939 -1006.2527
ENERGY: 800000 0.7365 3.9455 1.4841 0.0000 -11908.0622 1723.3410 0.0000 0.0000 1402.0035 -8776.5517 237.1098 -10178.5552 -8771.8642 239.9183 -114.9107 -39.8071 29218.5302 3.8676 3.9415
TCL: Running 100000 steps at 270 kelvin.
TCL: Setting parameter langevinTemp to 270
TCL: Running for 100000 steps
ETITLE: TS BOND ANGLE DIHED IMPRP ELECT VDW BOUNDARY MISC KINETIC TOTAL TEMP POTENTIAL TOTAL3 TEMPAVG PRESSURE GPRESSURE VOLUME PRESSAVG GPRESSAVG
ENERGY: 800000 0.7365 3.9455 1.4841 0.0000 -11908.0622 1723.3410 0.0000 0.0000 1401.3162 -8777.2389 236.9936 -10178.5552 -8775.0655 236.9936 -117.4665 -37.6436 29218.5302 -117.4665 -37.6436
ENERGY: 900000 2.5026 2.3855 1.6239 0.0000 -11307.2411 1500.3015 0.0000 0.0000 1647.7050 -8152.7226 278.6634 -9800.4276 -8149.1081 270.3848 -1060.5977 -1040.8713 30333.3494 4.0199 3.9151
TCL: Running 1000000 steps at 300 kelvin.
TCL: Setting parameter langevinTemp to 300
TCL: Running for 1000000 steps
ETITLE: TS BOND ANGLE DIHED IMPRP ELECT VDW BOUNDARY MISC KINETIC TOTAL TEMP POTENTIAL TOTAL3 TEMPAVG PRESSURE GPRESSURE VOLUME PRESSAVG GPRESSAVG
ENERGY: 900000 2.5026 2.3855 1.6239 0.0000 -11307.2411 1500.3015 0.0000 0.0000 1646.9333 -8153.4942 278.5329 -9800.4276 -8150.8000 278.5329 -1129.8605 -1039.8573 30333.3494 -1129.8605 -1039.8573
ENERGY: 1100000 2.1494 4.6457 1.7038 0.0000 -10749.8963 1373.4738 0.0000 0.0000 1782.9268 -7584.9968 301.5324 -9367.9237 -7581.2178 300.4991 -731.9055 -642.2902 30748.8870 2.3682 2.4271
ENERGY: 1300000 2.5678 6.6452 4.1514 0.0000 -10747.7579 1438.2805 0.0000 0.0000 1805.5894 -7490.5237 305.3651 -9296.1130 -7485.7776 300.5893 135.7588 256.3833 30652.7421 3.6633 3.6945
ENERGY: 1500000 2.1918 3.8330 2.2404 0.0000 -10961.4245 1511.4164 0.0000 0.0000 1831.6670 -7610.0760 309.7754 -9441.7430 -7603.9202 300.2490 176.9683 273.2677 30525.0715 3.2608 3.0957
ENERGY: 1700000 3.9547 4.2407 1.1387 0.0000 -10848.4199 1516.9455 0.0000 0.0000 1784.5592 -7537.5812 301.8084 -9322.1404 -7533.2310 301.3681 426.3615 553.9633 30553.4260 2.9487 2.8955
ENERGY: 1900000 0.7562 3.1449 2.6089 0.0000 -10918.9890 1517.1540 0.0000 0.0000 1782.8477 -7612.4773 301.5190 -9395.3250 -7607.5389 300.4792 611.2049 691.8140 30147.7678 1.8378 1.8099
TCL: Exiting due to exit command.
