Info: SIMULATION PARAMETERS:
Info: TIMESTEP               2
Info: NUMBER OF STEPS        0
Info: STEPS PER CYCLE        10
Info: PERIODIC CELL BASIS 1  36.592 0 0
Info: PERIODIC CELL BASIS 2  0 37.796 0
Info: PERIODIC CELL BASIS 3  0 0 31.349
Info: PERIODIC CELL CENTER   0 0 0
Info: WRAPPING WATERS AROUND PERIODIC BOUNDARIES ON OUTPUT.
Info: WRAPPING ALL CLUSTERS AROUND PERIODIC BOUNDARIES ON OUTPUT.
Info: FIRST LDB TIMESTEP     50
Info: LAST LDB TIMESTEP     -1
Info: HOM BACKGROUND SCALING 1
Info: PME BACKGROUND SCALING 1
Info: MIN ATOMS PER PATCH    40
Info: EMPTY PATCH LOAD       40 ATOMS
Info: INITIAL TEMPERATURE    300
Info: CENTER OF MASS MOVING INITIALLY? NO
Info: DIELECTRIC             1
Info: EXCLUDE                SCALED ONE-FOUR
Info: 1-4 ELECTROSTATICS SCALED BY 0.833333
Info: MODIFIED 1-4 VDW PARAMETERS WILL BE USED
Info: DCD FILENAME           mobley_8827942_equil.dcd
Info: DCD FREQUENCY          100000
Info: DCD FIRST STEP         100000
Info: DCD FILE WILL CONTAIN UNIT CELL DATA
Info: XST FILENAME           mobley_8827942_equil.xst
Info: XST FREQUENCY          100000
Info: NO VELOCITY DCD OUTPUT
Info: NO FORCE DCD OUTPUT
Info: OUTPUT FILENAME        mobley_8827942_equil
Info: BINARY OUTPUT FILES WILL BE USED
Info: RESTART FILENAME       mobley_8827942_equil.restart
Info: RESTART FREQUENCY      100000
Info: BINARY RESTART FILES WILL BE USED
Info: CUTOFF                 9
Info: PAIRLIST DISTANCE      11
Info: PAIRLIST SHRINK RATE   0.01
Info: PAIRLIST GROW RATE     0.01
Info: PAIRLIST TRIGGER       0.3
Info: PAIRLISTS PER CYCLE    2
Info: PAIRLISTS ENABLED
Info: MARGIN                 8
Info: HYDROGEN GROUP CUTOFF  2.5
Info: PATCH DIMENSION        21.5
Info: ENERGY OUTPUT STEPS    100000
Info: ENERGY EVALUATION STEPS    100000
Info: OUTPUT ENERGY PRECISION 4
Info: CROSSTERM ENERGY INCLUDED IN DIHEDRAL
Info: TIMING OUTPUT STEPS    1000000
Info: PRESSURE OUTPUT STEPS  100000
Info: LANGEVIN DYNAMICS ACTIVE
Info: LANGEVIN TEMPERATURE   30
Info: LANGEVIN USING BBK INTEGRATOR
Info: LANGEVIN DAMPING COEFFICIENT IS 1 INVERSE PS
Info: LANGEVIN DYNAMICS APPLIED TO HYDROGENS
Info: LANGEVIN PISTON PRESSURE CONTROL ACTIVE
Info:        TARGET PRESSURE IS 1.01325 BAR
Info:     OSCILLATION PERIOD IS 50 FS
Info:             DECAY TIME IS 25 FS
Info:     PISTON TEMPERATURE IS 300 K
Info:       PRESSURE CONTROL IS GROUP-BASED
Info:    INITIAL STRAIN RATE IS 0 0 0
Info:       CELL FLUCTUATION IS ISOTROPIC
Info: PARTICLE MESH EWALD (PME) ACTIVE
Info: PME TOLERANCE               1e-06
Info: PME EWALD COEFFICIENT       0.348832
Info: PME INTERPOLATION ORDER     4
Info: PME GRID DIMENSIONS         40 40 32
Info: PME MAXIMUM GRID SPACING    1
Info: FULL ELECTROSTATIC EVALUATION FREQUENCY      2
Info: USING VERLET I (r-RESPA) MTS SCHEME.
Info: C1 SPLITTING OF LONG RANGE ELECTROSTATICS
Info: PLACING ATOMS IN PATCHES BY HYDROGEN GROUPS
Info: RIGID BONDS TO HYDROGEN : ALL
Info:         ERROR TOLERANCE : 1e-08
Info:          MAX ITERATIONS : 100
Info: RIGID WATER USING SETTLE ALGORITHM
Info: RANDOM NUMBER SEED     1743220559
Info: USE HYDROGEN BONDS?    NO
Info: Using AMBER format force field!
Info: AMBER PARM FILE        mobley_8827942.prmtop
Info: COORDINATE PDB         mobley_8827942.pdb
Info: Exclusions will be read from PARM file!
Info: SCNB (VDW SCALING)     2
Info: USING ARITHMETIC MEAN TO COMBINE L-J SIGMA PARAMETERS
Info: BINARY COORDINATES     mobley_8827942_min.coor
Info: SUMMARY OF PARAMETERS:
Info: 6 BONDS
Info: 5 ANGLES
Info:   5 HARMONIC
Info:   0 COSINE-BASED
Info: 3 DIHEDRAL
Info: 0 IMPROPER
Info: 0 CROSSTERM
Info: 0 VDW
Info: 21 VDW_PAIRS
Info: 0 NBTHOLE_PAIRS
Info: STRUCTURE SUMMARY:
Info: 2908 ATOMS
Info: 2910 BONDS
Info: 38 ANGLES
Info: 68 DIHEDRALS
Info: 0 IMPROPERS
Info: 0 CROSSTERMS
Info: 2995 EXCLUSIONS
Info: 2891 RIGID BONDS
Info: 5833 DEGREES OF FREEDOM
Info: 979 HYDROGEN GROUPS
Info: 3 ATOMS IN LARGEST HYDROGEN GROUP
Info: 979 MIGRATION GROUPS
Info: 3 ATOMS IN LARGEST MIGRATION GROUP
Info: TOTAL MASS = 17618.9 amu
Info: TOTAL CHARGE = 0.000100013 e
Info: MASS DENSITY = 0.674811 g/cm^3
Info: ATOM DENSITY = 0.0670716 atoms/A^3
Info: ADDED 0 IMPLICIT EXCLUSIONS
Info: NONBONDED TABLE R-SQUARED SPACING: 0.0625
Info: NONBONDED TABLE SIZE: 705 POINTS
Info: REMOVING COM VELOCITY 0.103053 0.0828541 0.106611
TCL: Running for 100000 steps
ETITLE: TS BOND ANGLE DIHED IMPRP ELECT VDW BOUNDARY MISC KINETIC TOTAL TEMP POTENTIAL TOTAL3 TEMPAVG PRESSURE GPRESSURE VOLUME PRESSAVG GPRESSAVG
ENERGY: 0 0.4307 0.2200 0.1858 0.0000 -13425.5474 2363.0332 0.0000 0.0000 1715.7562 -9345.9214 296.0424 -11061.6776 -9345.5768 296.0424 356.2579 379.2771 43356.6461 356.2579 379.2771
ENERGY: 100000 0.9680 0.8907 0.5585 0.0000 -13955.4940 2466.5909 0.0000 0.0000 173.4695 -11313.0165 29.9310 -11486.4859 -11312.5985 30.9213 363.9971 403.0901 29030.2442 4.4133 4.3508
TCL: Running 100000 steps at 60 kelvin.
TCL: Setting parameter langevinTemp to 60
TCL: Running for 100000 steps
ETITLE: TS BOND ANGLE DIHED IMPRP ELECT VDW BOUNDARY MISC KINETIC TOTAL TEMP POTENTIAL TOTAL3 TEMPAVG PRESSURE GPRESSURE VOLUME PRESSAVG GPRESSAVG
ENERGY: 100000 0.9680 0.8907 0.5585 0.0000 -13955.4940 2466.5909 0.0000 0.0000 173.3828 -11313.1032 29.9161 -11486.4859 -11312.6322 29.9161 364.7758 402.9787 29030.2442 364.7758 402.9787
ENERGY: 200000 1.1418 2.5920 1.6052 0.0000 -13973.1046 2517.8882 0.0000 0.0000 349.2105 -11100.6670 60.2540 -11449.8775 -11099.8530 60.0881 1120.3172 1167.3123 28581.9634 3.9150 3.9599
TCL: Running 100000 steps at 90 kelvin.
TCL: Setting parameter langevinTemp to 90
TCL: Running for 100000 steps
ETITLE: TS BOND ANGLE DIHED IMPRP ELECT VDW BOUNDARY MISC KINETIC TOTAL TEMP POTENTIAL TOTAL3 TEMPAVG PRESSURE GPRESSURE VOLUME PRESSAVG GPRESSAVG
ENERGY: 200000 1.1418 2.5920 1.6052 0.0000 -13973.1046 2517.8882 0.0000 0.0000 349.0345 -11100.8430 60.2236 -11449.8775 -11100.1273 60.2236 1107.5902 1167.2300 28581.9634 1107.5902 1167.2300
ENERGY: 300000 1.3802 1.1548 2.4004 0.0000 -13772.5708 2411.0200 0.0000 0.0000 518.1064 -10838.5090 89.3959 -11356.6155 -10837.5721 89.9867 550.0419 606.7767 28727.7171 4.4059 4.3570
TCL: Running 100000 steps at 120 kelvin.
TCL: Setting parameter langevinTemp to 120
TCL: Running for 100000 steps
ETITLE: TS BOND ANGLE DIHED IMPRP ELECT VDW BOUNDARY MISC KINETIC TOTAL TEMP POTENTIAL TOTAL3 TEMPAVG PRESSURE GPRESSURE VOLUME PRESSAVG GPRESSAVG
ENERGY: 300000 1.3802 1.1548 2.4004 0.0000 -13772.5708 2411.0200 0.0000 0.0000 517.8438 -10838.7717 89.3505 -11356.6155 -10837.6763 89.3505 551.7577 606.6572 28727.7171 551.7577 606.6572
ENERGY: 400000 2.1497 2.4511 2.3172 0.0000 -13536.7950 2323.5995 0.0000 0.0000 684.2519 -10522.0255 118.0632 -11206.2774 -10520.5772 119.9920 252.5189 306.4715 28772.6267 3.2664 3.3665
TCL: Running 100000 steps at 150 kelvin.
TCL: Setting parameter langevinTemp to 150
TCL: Running for 100000 steps
ETITLE: TS BOND ANGLE DIHED IMPRP ELECT VDW BOUNDARY MISC KINETIC TOTAL TEMP POTENTIAL TOTAL3 TEMPAVG PRESSURE GPRESSURE VOLUME PRESSAVG GPRESSAVG
ENERGY: 400000 2.1497 2.4511 2.3172 0.0000 -13536.7950 2323.5995 0.0000 0.0000 683.9118 -10522.3656 118.0045 -11206.2774 -10520.9560 118.0045 262.2480 306.1058 28772.6267 262.2480 306.1058
ENERGY: 500000 3.5072 3.0256 1.0843 0.0000 -13346.0131 2268.1298 0.0000 0.0000 878.2155 -10192.0507 151.5303 -11070.2662 -10190.2125 149.9036 566.0694 595.5790 28748.8131 4.6959 4.7015
TCL: Running 100000 steps at 180 kelvin.
TCL: Setting parameter langevinTemp to 180
TCL: Running for 100000 steps
ETITLE: TS BOND ANGLE DIHED IMPRP ELECT VDW BOUNDARY MISC KINETIC TOTAL TEMP POTENTIAL TOTAL3 TEMPAVG PRESSURE GPRESSURE VOLUME PRESSAVG GPRESSAVG
ENERGY: 500000 3.5072 3.0256 1.0843 0.0000 -13346.0131 2268.1298 0.0000 0.0000 877.7863 -10192.4799 151.4563 -11070.2662 -10190.4734 151.4563 546.1171 595.0571 28748.8131 546.1171 595.0571
ENERGY: 600000 2.7744 3.1664 1.7375 0.0000 -12942.5667 2105.3449 0.0000 0.0000 1075.3279 -9754.2156 185.5408 -10829.5435 -9751.7620 180.2278 238.6158 330.9630 28366.7326 3.8674 3.9263
TCL: Running 100000 steps at 210 kelvin.
TCL: Setting parameter langevinTemp to 210
TCL: Running for 100000 steps
ETITLE: TS BOND ANGLE DIHED IMPRP ELECT VDW BOUNDARY MISC KINETIC TOTAL TEMP POTENTIAL TOTAL3 TEMPAVG PRESSURE GPRESSURE VOLUME PRESSAVG GPRESSAVG
ENERGY: 600000 2.7744 3.1664 1.7375 0.0000 -12942.5667 2105.3449 0.0000 0.0000 1074.7978 -9754.7456 185.4493 -10829.5435 -9752.7717 185.4493 269.4718 331.2781 28366.7326 269.4718 331.2781
ENERGY: 700000 4.8736 4.0475 4.3400 0.0000 -12311.6984 1947.4630 0.0000 0.0000 1230.5793 -9120.3950 212.3284 -10350.9743 -9116.7688 210.0431 784.7840 876.5692 28362.2780 3.1224 2.9534
TCL: Running 100000 steps at 240 kelvin.
TCL: Setting parameter langevinTemp to 240
TCL: Running for 100000 steps
ETITLE: TS BOND ANGLE DIHED IMPRP ELECT VDW BOUNDARY MISC KINETIC TOTAL TEMP POTENTIAL TOTAL3 TEMPAVG PRESSURE GPRESSURE VOLUME PRESSAVG GPRESSAVG
ENERGY: 700000 4.8736 4.0475 4.3400 0.0000 -12311.6984 1947.4630 0.0000 0.0000 1229.9830 -9120.9913 212.2255 -10350.9743 -9118.9313 212.2255 810.0199 878.1872 28362.2780 810.0199 878.1872
ENERGY: 800000 6.5047 3.3681 2.7675 0.0000 -11601.3330 1722.3569 0.0000 0.0000 1361.6968 -8504.6389 234.9518 -9866.3357 -8503.2918 240.2640 434.9063 482.7373 28681.5570 2.9552 3.0701
TCL: Running 100000 steps at 270 kelvin.
TCL: Setting parameter langevinTemp to 270
TCL: Running for 100000 steps
ETITLE: TS BOND ANGLE DIHED IMPRP ELECT VDW BOUNDARY MISC KINETIC TOTAL TEMP POTENTIAL TOTAL3 TEMPAVG PRESSURE GPRESSURE VOLUME PRESSAVG GPRESSAVG
ENERGY: 800000 6.5047 3.3681 2.7675 0.0000 -11601.3330 1722.3569 0.0000 0.0000 1361.0022 -8505.3335 234.8320 -9866.3357 -8503.4729 234.8320 384.8483 480.2834 28681.5570 384.8483 480.2834
ENERGY: 900000 7.0574 4.8485 7.2722 0.0000 -11089.5362 1609.0760 0.0000 0.0000 1539.2276 -7922.0545 265.5836 -9461.2821 -7921.8626 270.1617 670.8846 696.6623 28930.5900 2.3008 2.2539
TCL: Running 1000000 steps at 300 kelvin.
TCL: Setting parameter langevinTemp to 300
TCL: Running for 1000000 steps
ETITLE: TS BOND ANGLE DIHED IMPRP ELECT VDW BOUNDARY MISC KINETIC TOTAL TEMP POTENTIAL TOTAL3 TEMPAVG PRESSURE GPRESSURE VOLUME PRESSAVG GPRESSAVG
ENERGY: 900000 7.0574 4.8485 7.2722 0.0000 -11089.5362 1609.0760 0.0000 0.0000 1538.4348 -7922.8473 265.4468 -9461.2821 -7920.5273 265.4468 617.8624 695.7760 28930.5900 617.8624 695.7760
ENERGY: 1100000 6.8886 3.7348 6.8011 0.0000 -10495.1038 1420.4413 0.0000 0.0000 1717.4936 -7339.7443 296.3422 -9057.2379 -7336.1894 299.8454 -159.3386 -128.8745 30215.6278 3.0302 3.0247
ENERGY: 1300000 4.8554 6.0626 7.3728 0.0000 -10526.6206 1396.4427 0.0000 0.0000 1736.5775 -7375.3096 299.6350 -9111.8871 -7370.1692 299.8471 -358.5829 -228.6319 30113.0656 3.4100 3.4341
ENERGY: 1500000 6.7211 4.8160 5.3531 0.0000 -10384.2055 1363.9113 0.0000 0.0000 1750.4045 -7252.9993 302.0208 -9003.4038 -7251.7607 300.1397 -78.6556 78.6831 30301.5714 3.3345 3.3565
ENERGY: 1700000 4.4570 5.5943 5.4162 0.0000 -10633.2728 1492.6049 0.0000 0.0000 1692.1006 -7433.0997 291.9608 -9125.2003 -7430.8299 300.0884 697.5624 843.0192 29562.9707 4.3205 4.2112
ENERGY: 1900000 10.2067 3.4496 7.3331 0.0000 -10597.3306 1398.8911 0.0000 0.0000 1698.5503 -7478.8996 293.0737 -9177.4499 -7475.0996 300.0213 -292.1517 -295.9009 29586.2380 3.6985 3.5471
TCL: Exiting due to exit command.
