Info: SIMULATION PARAMETERS:
Info: TIMESTEP               2
Info: NUMBER OF STEPS        0
Info: STEPS PER CYCLE        10
Info: PERIODIC CELL BASIS 1  34.207 0 0
Info: PERIODIC CELL BASIS 2  0 33.542 0
Info: PERIODIC CELL BASIS 3  0 0 37.451
Info: PERIODIC CELL CENTER   0 0 0
Info: WRAPPING WATERS AROUND PERIODIC BOUNDARIES ON OUTPUT.
Info: WRAPPING ALL CLUSTERS AROUND PERIODIC BOUNDARIES ON OUTPUT.
Info: FIRST LDB TIMESTEP     50
Info: LAST LDB TIMESTEP     -1
Info: HOM BACKGROUND SCALING 1
Info: PME BACKGROUND SCALING 1
Info: MIN ATOMS PER PATCH    40
Info: EMPTY PATCH LOAD       40 ATOMS
Info: INITIAL TEMPERATURE    300
Info: CENTER OF MASS MOVING INITIALLY? NO
Info: DIELECTRIC             1
Info: EXCLUDE                SCALED ONE-FOUR
Info: 1-4 ELECTROSTATICS SCALED BY 0.833333
Info: MODIFIED 1-4 VDW PARAMETERS WILL BE USED
Info: DCD FILENAME           mobley_8127829_equil.dcd
Info: DCD FREQUENCY          100000
Info: DCD FIRST STEP         100000
Info: DCD FILE WILL CONTAIN UNIT CELL DATA
Info: XST FILENAME           mobley_8127829_equil.xst
Info: XST FREQUENCY          100000
Info: NO VELOCITY DCD OUTPUT
Info: NO FORCE DCD OUTPUT
Info: OUTPUT FILENAME        mobley_8127829_equil
Info: BINARY OUTPUT FILES WILL BE USED
Info: RESTART FILENAME       mobley_8127829_equil.restart
Info: RESTART FREQUENCY      100000
Info: BINARY RESTART FILES WILL BE USED
Info: CUTOFF                 9
Info: PAIRLIST DISTANCE      11
Info: PAIRLIST SHRINK RATE   0.01
Info: PAIRLIST GROW RATE     0.01
Info: PAIRLIST TRIGGER       0.3
Info: PAIRLISTS PER CYCLE    2
Info: PAIRLISTS ENABLED
Info: MARGIN                 8
Info: HYDROGEN GROUP CUTOFF  2.5
Info: PATCH DIMENSION        21.5
Info: ENERGY OUTPUT STEPS    100000
Info: ENERGY EVALUATION STEPS    100000
Info: OUTPUT ENERGY PRECISION 4
Info: CROSSTERM ENERGY INCLUDED IN DIHEDRAL
Info: TIMING OUTPUT STEPS    1000000
Info: PRESSURE OUTPUT STEPS  100000
Info: LANGEVIN DYNAMICS ACTIVE
Info: LANGEVIN TEMPERATURE   30
Info: LANGEVIN USING BBK INTEGRATOR
Info: LANGEVIN DAMPING COEFFICIENT IS 1 INVERSE PS
Info: LANGEVIN DYNAMICS APPLIED TO HYDROGENS
Info: LANGEVIN PISTON PRESSURE CONTROL ACTIVE
Info:        TARGET PRESSURE IS 1.01325 BAR
Info:     OSCILLATION PERIOD IS 50 FS
Info:             DECAY TIME IS 25 FS
Info:     PISTON TEMPERATURE IS 300 K
Info:       PRESSURE CONTROL IS GROUP-BASED
Info:    INITIAL STRAIN RATE IS 0 0 0
Info:       CELL FLUCTUATION IS ISOTROPIC
Info: PARTICLE MESH EWALD (PME) ACTIVE
Info: PME TOLERANCE               1e-06
Info: PME EWALD COEFFICIENT       0.348832
Info: PME INTERPOLATION ORDER     4
Info: PME GRID DIMENSIONS         36 36 40
Info: PME MAXIMUM GRID SPACING    1
Info: FULL ELECTROSTATIC EVALUATION FREQUENCY      2
Info: USING VERLET I (r-RESPA) MTS SCHEME.
Info: C1 SPLITTING OF LONG RANGE ELECTROSTATICS
Info: PLACING ATOMS IN PATCHES BY HYDROGEN GROUPS
Info: RIGID BONDS TO HYDROGEN : ALL
Info:         ERROR TOLERANCE : 1e-08
Info:          MAX ITERATIONS : 100
Info: RIGID WATER USING SETTLE ALGORITHM
Info: RANDOM NUMBER SEED     1743232610
Info: USE HYDROGEN BONDS?    NO
Info: Using AMBER format force field!
Info: AMBER PARM FILE        mobley_8127829.prmtop
Info: COORDINATE PDB         mobley_8127829.pdb
Info: Exclusions will be read from PARM file!
Info: SCNB (VDW SCALING)     2
Info: USING ARITHMETIC MEAN TO COMBINE L-J SIGMA PARAMETERS
Info: BINARY COORDINATES     mobley_8127829_min.coor
Info: SUMMARY OF PARAMETERS:
Info: 7 BONDS
Info: 7 ANGLES
Info: 5 DIHEDRAL
Info: 0 IMPROPER
Info: 0 CROSSTERM
Info: 0 VDW
Info: 21 VDW_PAIRS
Info: 0 NBTHOLE_PAIRS
Info: STRUCTURE SUMMARY:
Info: 2970 ATOMS
Info: 2970 BONDS
Info: 30 ANGLES
Info: 45 DIHEDRALS
Info: 0 IMPROPERS
Info: 0 CROSSTERMS
Info: 3036 EXCLUSIONS
Info: 2962 RIGID BONDS
Info: 5948 DEGREES OF FREEDOM
Info: 992 HYDROGEN GROUPS
Info: 4 ATOMS IN LARGEST HYDROGEN GROUP
Info: 992 MIGRATION GROUPS
Info: 4 ATOMS IN LARGEST MIGRATION GROUP
Info: TOTAL MASS = 17833.9 amu
Info: TOTAL CHARGE = 1.86265e-08 e
Info: MASS DENSITY = 0.689189 g/cm^3
Info: ATOM DENSITY = 0.0691177 atoms/A^3
Info: ADDED 0 IMPLICIT EXCLUSIONS
Info: NONBONDED TABLE R-SQUARED SPACING: 0.0625
Info: NONBONDED TABLE SIZE: 705 POINTS
Info: REMOVING COM VELOCITY -0.0292643 0.00137386 0.0488964
TCL: Running for 100000 steps
ETITLE: TS BOND ANGLE DIHED IMPRP ELECT VDW BOUNDARY MISC KINETIC TOTAL TEMP POTENTIAL TOTAL3 TEMPAVG PRESSURE GPRESSURE VOLUME PRESSAVG GPRESSAVG
ENERGY: 0 0.1646 0.1320 0.0159 0.0000 -13721.2621 2399.0357 0.0000 0.0000 1755.0392 -9566.8746 296.9657 -11321.9138 -9566.5345 296.9657 407.2600 445.5398 42970.1986 407.2600 445.5398
ENERGY: 100000 0.2381 0.9211 0.3534 0.0000 -14379.7248 2568.5453 0.0000 0.0000 177.4466 -11632.2204 30.0253 -11809.6670 -11631.9187 30.8992 725.8291 770.0622 29034.9715 3.9009 3.9228
TCL: Running 100000 steps at 60 kelvin.
TCL: Setting parameter langevinTemp to 60
TCL: Running for 100000 steps
ETITLE: TS BOND ANGLE DIHED IMPRP ELECT VDW BOUNDARY MISC KINETIC TOTAL TEMP POTENTIAL TOTAL3 TEMPAVG PRESSURE GPRESSURE VOLUME PRESSAVG GPRESSAVG
ENERGY: 100000 0.2381 0.9211 0.3534 0.0000 -14379.7248 2568.5453 0.0000 0.0000 177.3610 -11632.3060 30.0108 -11809.6670 -11631.8922 30.0108 720.5370 769.8086 29034.9715 720.5370 769.8086
ENERGY: 200000 0.5093 1.5691 0.5831 0.0000 -14226.6494 2491.4047 0.0000 0.0000 347.3663 -11385.2169 58.7770 -11732.5832 -11384.3443 59.9206 443.4212 499.3138 28942.6669 3.7629 3.8066
TCL: Running 100000 steps at 90 kelvin.
TCL: Setting parameter langevinTemp to 90
TCL: Running for 100000 steps
ETITLE: TS BOND ANGLE DIHED IMPRP ELECT VDW BOUNDARY MISC KINETIC TOTAL TEMP POTENTIAL TOTAL3 TEMPAVG PRESSURE GPRESSURE VOLUME PRESSAVG GPRESSAVG
ENERGY: 200000 0.5093 1.5691 0.5831 0.0000 -14226.6494 2491.4047 0.0000 0.0000 347.1940 -11385.3892 58.7478 -11732.5832 -11384.6885 58.7478 451.0824 498.9621 28942.6669 451.0824 498.9621
ENERGY: 300000 2.0420 1.0731 1.2390 0.0000 -14064.9488 2428.4212 0.0000 0.0000 530.4935 -11101.6800 89.7634 -11632.1735 -11100.1241 89.8722 88.6254 157.4589 29063.1384 3.8661 3.8729
TCL: Running 100000 steps at 120 kelvin.
TCL: Setting parameter langevinTemp to 120
TCL: Running for 100000 steps
ETITLE: TS BOND ANGLE DIHED IMPRP ELECT VDW BOUNDARY MISC KINETIC TOTAL TEMP POTENTIAL TOTAL3 TEMPAVG PRESSURE GPRESSURE VOLUME PRESSAVG GPRESSAVG
ENERGY: 300000 2.0420 1.0731 1.2390 0.0000 -14064.9488 2428.4212 0.0000 0.0000 530.2402 -11101.9333 89.7206 -11632.1735 -11100.9961 89.7206 108.7789 157.8683 29063.1384 108.7789 157.8683
ENERGY: 400000 0.8508 2.0829 1.5109 0.0000 -13961.5102 2446.3542 0.0000 0.0000 724.4437 -10786.2678 122.5812 -11510.7115 -10784.2618 119.6766 934.8508 971.3762 28907.7832 3.8415 3.7489
TCL: Running 100000 steps at 150 kelvin.
TCL: Setting parameter langevinTemp to 150
TCL: Running for 100000 steps
ETITLE: TS BOND ANGLE DIHED IMPRP ELECT VDW BOUNDARY MISC KINETIC TOTAL TEMP POTENTIAL TOTAL3 TEMPAVG PRESSURE GPRESSURE VOLUME PRESSAVG GPRESSAVG
ENERGY: 400000 0.8508 2.0829 1.5109 0.0000 -13961.5102 2446.3542 0.0000 0.0000 724.1062 -10786.6053 122.5241 -11510.7115 -10785.3516 122.5241 919.5217 971.5603 28907.7832 919.5217 971.5603
ENERGY: 500000 1.5501 1.5435 1.4263 0.0000 -13476.2427 2136.7937 0.0000 0.0000 852.2372 -10482.6919 144.2049 -11334.9291 -10480.7910 149.6037 -1400.5344 -1367.6821 29710.6050 4.1486 4.0515
TCL: Running 100000 steps at 180 kelvin.
TCL: Setting parameter langevinTemp to 180
TCL: Running for 100000 steps
ETITLE: TS BOND ANGLE DIHED IMPRP ELECT VDW BOUNDARY MISC KINETIC TOTAL TEMP POTENTIAL TOTAL3 TEMPAVG PRESSURE GPRESSURE VOLUME PRESSAVG GPRESSAVG
ENERGY: 500000 1.5501 1.5435 1.4263 0.0000 -13476.2427 2136.7937 0.0000 0.0000 851.8314 -10483.0977 144.1362 -11334.9291 -10481.0046 144.1362 -1414.5308 -1367.1302 29710.6050 -1414.5308 -1367.1302
ENERGY: 600000 0.9759 3.3957 2.0459 0.0000 -13250.8789 2202.0789 0.0000 0.0000 1066.1539 -9976.2286 180.4012 -11042.3825 -9974.2312 179.5016 465.4486 611.9842 29112.6975 3.3549 3.5594
TCL: Running 100000 steps at 210 kelvin.
TCL: Setting parameter langevinTemp to 210
TCL: Running for 100000 steps
ETITLE: TS BOND ANGLE DIHED IMPRP ELECT VDW BOUNDARY MISC KINETIC TOTAL TEMP POTENTIAL TOTAL3 TEMPAVG PRESSURE GPRESSURE VOLUME PRESSAVG GPRESSAVG
ENERGY: 600000 0.9759 3.3957 2.0459 0.0000 -13250.8789 2202.0789 0.0000 0.0000 1065.6437 -9976.7388 180.3148 -11042.3825 -9974.8393 180.3148 535.6754 612.5312 29112.6975 535.6754 612.5312
ENERGY: 700000 3.4516 2.4240 3.2301 0.0000 -12364.8228 1788.2760 0.0000 0.0000 1269.0013 -9298.4399 214.7244 -10567.4412 -9295.6646 210.3365 -1039.4491 -994.9283 29159.9313 3.8955 3.9029
TCL: Running 100000 steps at 240 kelvin.
TCL: Setting parameter langevinTemp to 240
TCL: Running for 100000 steps
ETITLE: TS BOND ANGLE DIHED IMPRP ELECT VDW BOUNDARY MISC KINETIC TOTAL TEMP POTENTIAL TOTAL3 TEMPAVG PRESSURE GPRESSURE VOLUME PRESSAVG GPRESSAVG
ENERGY: 700000 3.4516 2.4240 3.2301 0.0000 -12364.8228 1788.2760 0.0000 0.0000 1268.3805 -9299.0607 214.6194 -10567.4412 -9296.9740 214.6194 -1094.4146 -994.6090 29159.9313 -1094.4146 -994.6090
ENERGY: 800000 1.7046 5.6820 0.8715 0.0000 -11877.1362 1772.8935 0.0000 0.0000 1464.3315 -8631.6531 247.7758 -10095.9846 -8627.8647 239.7038 498.7440 617.1217 29056.6473 4.2757 4.0443
TCL: Running 100000 steps at 270 kelvin.
TCL: Setting parameter langevinTemp to 270
TCL: Running for 100000 steps
ETITLE: TS BOND ANGLE DIHED IMPRP ELECT VDW BOUNDARY MISC KINETIC TOTAL TEMP POTENTIAL TOTAL3 TEMPAVG PRESSURE GPRESSURE VOLUME PRESSAVG GPRESSAVG
ENERGY: 800000 1.7046 5.6820 0.8715 0.0000 -11877.1362 1772.8935 0.0000 0.0000 1463.6281 -8632.3565 247.6568 -10095.9846 -8629.5739 247.6568 532.0901 617.5099 29056.6473 532.0901 617.5099
ENERGY: 900000 0.6135 6.8445 1.2339 0.0000 -11216.7720 1528.3170 0.0000 0.0000 1600.4220 -8079.3411 270.8033 -9679.7631 -8074.2939 269.2233 -194.2030 -38.8617 29655.9409 3.2526 3.2002
TCL: Running 1000000 steps at 300 kelvin.
TCL: Setting parameter langevinTemp to 300
TCL: Running for 1000000 steps
ETITLE: TS BOND ANGLE DIHED IMPRP ELECT VDW BOUNDARY MISC KINETIC TOTAL TEMP POTENTIAL TOTAL3 TEMPAVG PRESSURE GPRESSURE VOLUME PRESSAVG GPRESSAVG
ENERGY: 900000 0.6135 6.8445 1.2339 0.0000 -11216.7720 1528.3170 0.0000 0.0000 1599.6483 -8080.1148 270.6724 -9679.7631 -8077.5712 270.6724 -140.0879 -38.3890 29655.9409 -140.0879 -38.3890
ENERGY: 1100000 0.9253 4.8763 3.6812 0.0000 -10653.7376 1406.5238 0.0000 0.0000 1840.6541 -7397.0769 311.4523 -9237.7310 -7395.2588 300.3405 -184.2474 -133.4405 30928.6862 3.8876 3.7245
ENERGY: 1300000 0.8291 8.8515 1.8214 0.0000 -10719.5295 1413.3733 0.0000 0.0000 1798.9528 -7495.7013 304.3962 -9294.6542 -7491.5154 300.5911 -283.5805 -231.0863 31032.3739 4.1238 4.2866
ENERGY: 1500000 1.2693 3.8039 3.2334 0.0000 -10681.5461 1393.6849 0.0000 0.0000 1754.6403 -7524.9143 296.8982 -9279.5546 -7521.5495 301.0889 -492.8706 -390.5278 30811.4675 2.8250 2.6285
ENERGY: 1700000 1.8274 8.2145 2.9250 0.0000 -10695.0413 1413.9634 0.0000 0.0000 1806.2828 -7461.8281 305.6365 -9268.1110 -7456.4361 299.8064 -293.8047 -323.9853 31138.4125 4.7508 4.4836
ENERGY: 1900000 1.6095 6.9019 1.6620 0.0000 -10720.7177 1423.3275 0.0000 0.0000 1788.8262 -7498.3907 302.6827 -9287.2169 -7495.9463 300.0790 29.0051 110.0004 30419.3595 3.6371 3.5514
TCL: Exiting due to exit command.
