Info: SIMULATION PARAMETERS:
Info: TIMESTEP               2
Info: NUMBER OF STEPS        0
Info: STEPS PER CYCLE        10
Info: PERIODIC CELL BASIS 1  35.01 0 0
Info: PERIODIC CELL BASIS 2  0 35.411 0
Info: PERIODIC CELL BASIS 3  0 0 35.644
Info: PERIODIC CELL CENTER   0 0 0
Info: WRAPPING WATERS AROUND PERIODIC BOUNDARIES ON OUTPUT.
Info: WRAPPING ALL CLUSTERS AROUND PERIODIC BOUNDARIES ON OUTPUT.
Info: FIRST LDB TIMESTEP     50
Info: LAST LDB TIMESTEP     -1
Info: HOM BACKGROUND SCALING 1
Info: PME BACKGROUND SCALING 1
Info: MIN ATOMS PER PATCH    40
Info: EMPTY PATCH LOAD       40 ATOMS
Info: INITIAL TEMPERATURE    300
Info: CENTER OF MASS MOVING INITIALLY? NO
Info: DIELECTRIC             1
Info: EXCLUDE                SCALED ONE-FOUR
Info: 1-4 ELECTROSTATICS SCALED BY 0.833333
Info: MODIFIED 1-4 VDW PARAMETERS WILL BE USED
Info: DCD FILENAME           mobley_7326982_equil.dcd
Info: DCD FREQUENCY          100000
Info: DCD FIRST STEP         100000
Info: DCD FILE WILL CONTAIN UNIT CELL DATA
Info: XST FILENAME           mobley_7326982_equil.xst
Info: XST FREQUENCY          100000
Info: NO VELOCITY DCD OUTPUT
Info: NO FORCE DCD OUTPUT
Info: OUTPUT FILENAME        mobley_7326982_equil
Info: BINARY OUTPUT FILES WILL BE USED
Info: RESTART FILENAME       mobley_7326982_equil.restart
Info: RESTART FREQUENCY      100000
Info: BINARY RESTART FILES WILL BE USED
Info: CUTOFF                 9
Info: PAIRLIST DISTANCE      11
Info: PAIRLIST SHRINK RATE   0.01
Info: PAIRLIST GROW RATE     0.01
Info: PAIRLIST TRIGGER       0.3
Info: PAIRLISTS PER CYCLE    2
Info: PAIRLISTS ENABLED
Info: MARGIN                 8
Info: HYDROGEN GROUP CUTOFF  2.5
Info: PATCH DIMENSION        21.5
Info: ENERGY OUTPUT STEPS    100000
Info: ENERGY EVALUATION STEPS    100000
Info: OUTPUT ENERGY PRECISION 4
Info: CROSSTERM ENERGY INCLUDED IN DIHEDRAL
Info: TIMING OUTPUT STEPS    1000000
Info: PRESSURE OUTPUT STEPS  100000
Info: LANGEVIN DYNAMICS ACTIVE
Info: LANGEVIN TEMPERATURE   30
Info: LANGEVIN USING BBK INTEGRATOR
Info: LANGEVIN DAMPING COEFFICIENT IS 1 INVERSE PS
Info: LANGEVIN DYNAMICS APPLIED TO HYDROGENS
Info: LANGEVIN PISTON PRESSURE CONTROL ACTIVE
Info:        TARGET PRESSURE IS 1.01325 BAR
Info:     OSCILLATION PERIOD IS 50 FS
Info:             DECAY TIME IS 25 FS
Info:     PISTON TEMPERATURE IS 300 K
Info:       PRESSURE CONTROL IS GROUP-BASED
Info:    INITIAL STRAIN RATE IS 0 0 0
Info:       CELL FLUCTUATION IS ISOTROPIC
Info: PARTICLE MESH EWALD (PME) ACTIVE
Info: PME TOLERANCE               1e-06
Info: PME EWALD COEFFICIENT       0.348832
Info: PME INTERPOLATION ORDER     4
Info: PME GRID DIMENSIONS         36 36 36
Info: PME MAXIMUM GRID SPACING    1
Info: FULL ELECTROSTATIC EVALUATION FREQUENCY      2
Info: USING VERLET I (r-RESPA) MTS SCHEME.
Info: C1 SPLITTING OF LONG RANGE ELECTROSTATICS
Info: PLACING ATOMS IN PATCHES BY HYDROGEN GROUPS
Info: RIGID BONDS TO HYDROGEN : ALL
Info:         ERROR TOLERANCE : 1e-08
Info:          MAX ITERATIONS : 100
Info: RIGID WATER USING SETTLE ALGORITHM
Info: RANDOM NUMBER SEED     1743164154
Info: USE HYDROGEN BONDS?    NO
Info: Using AMBER format force field!
Info: AMBER PARM FILE        mobley_7326982.prmtop
Info: COORDINATE PDB         mobley_7326982.pdb
Info: Exclusions will be read from PARM file!
Info: SCNB (VDW SCALING)     2
Info: USING ARITHMETIC MEAN TO COMBINE L-J SIGMA PARAMETERS
Info: BINARY COORDINATES     mobley_7326982_min.coor
Info: SUMMARY OF PARAMETERS:
Info: 7 BONDS
Info: 7 ANGLES
Info:   7 HARMONIC
Info:   0 COSINE-BASED
Info: 5 DIHEDRAL
Info: 0 IMPROPER
Info: 0 CROSSTERM
Info: 0 VDW
Info: 21 VDW_PAIRS
Info: 0 NBTHOLE_PAIRS
Info: STRUCTURE SUMMARY:
Info: 2961 ATOMS
Info: 2960 BONDS
Info: 19 ANGLES
Info: 29 DIHEDRALS
Info: 0 IMPROPERS
Info: 0 CROSSTERMS
Info: 3000 EXCLUSIONS
Info: 2957 RIGID BONDS
Info: 5926 DEGREES OF FREEDOM
Info: 987 HYDROGEN GROUPS
Info: 4 ATOMS IN LARGEST HYDROGEN GROUP
Info: 987 MIGRATION GROUPS
Info: 4 ATOMS IN LARGEST MIGRATION GROUP
Info: TOTAL MASS = 17769.8 amu
Info: TOTAL CHARGE = -0.000199985 e
Info: MASS DENSITY = 0.667768 g/cm^3
Info: ATOM DENSITY = 0.0670072 atoms/A^3
Info: ADDED 0 IMPLICIT EXCLUSIONS
Info: NONBONDED TABLE R-SQUARED SPACING: 0.0625
Info: NONBONDED TABLE SIZE: 705 POINTS
Info: REMOVING COM VELOCITY 0.0294325 -0.0947403 0.0614643
TCL: Running for 100000 steps
ETITLE: TS BOND ANGLE DIHED IMPRP ELECT VDW BOUNDARY MISC KINETIC TOTAL TEMP POTENTIAL TOTAL3 TEMPAVG PRESSURE GPRESSURE VOLUME PRESSAVG GPRESSAVG
ENERGY: 0 0.0051 0.2515 1.8956 0.0000 -13756.1343 2433.8011 0.0000 0.0000 1772.4502 -9547.7309 301.0252 -11320.1811 -9547.3955 301.0252 615.6618 642.7481 44189.2608 615.6618 642.7481
ENERGY: 100000 0.0379 1.1912 1.9435 0.0000 -14360.0426 2566.8338 0.0000 0.0000 175.3489 -11614.6872 29.7805 -11790.0361 -11614.2910 30.9294 689.4141 732.8883 29206.7668 3.9612 3.9602
TCL: Running 100000 steps at 60 kelvin.
TCL: Setting parameter langevinTemp to 60
TCL: Running for 100000 steps
ETITLE: TS BOND ANGLE DIHED IMPRP ELECT VDW BOUNDARY MISC KINETIC TOTAL TEMP POTENTIAL TOTAL3 TEMPAVG PRESSURE GPRESSURE VOLUME PRESSAVG GPRESSAVG
ENERGY: 100000 0.0379 1.1912 1.9435 0.0000 -14360.0426 2566.8338 0.0000 0.0000 175.2564 -11614.7797 29.7648 -11790.0361 -11614.4703 29.7648 695.2971 733.0545 29206.7668 695.2971 733.0545
ENERGY: 200000 0.3694 1.1197 1.9001 0.0000 -14111.1310 2379.2839 0.0000 0.0000 354.4337 -11374.0243 60.1955 -11728.4580 -11373.2133 60.0033 -420.2535 -392.8902 28844.1572 4.2525 4.1736
TCL: Running 100000 steps at 90 kelvin.
TCL: Setting parameter langevinTemp to 90
TCL: Running for 100000 steps
ETITLE: TS BOND ANGLE DIHED IMPRP ELECT VDW BOUNDARY MISC KINETIC TOTAL TEMP POTENTIAL TOTAL3 TEMPAVG PRESSURE GPRESSURE VOLUME PRESSAVG GPRESSAVG
ENERGY: 200000 0.3694 1.1197 1.9001 0.0000 -14111.1310 2379.2839 0.0000 0.0000 354.2655 -11374.1925 60.1669 -11728.4580 -11373.4924 60.1669 -435.1250 -392.6313 28844.1572 -435.1250 -392.6313
ENERGY: 300000 0.2302 1.2980 2.4752 0.0000 -14010.1298 2374.3296 0.0000 0.0000 523.1816 -11108.6152 88.8549 -11631.7968 -11106.8648 89.8242 -29.9966 29.9503 28527.6056 5.0198 5.1037
TCL: Running 100000 steps at 120 kelvin.
TCL: Setting parameter langevinTemp to 120
TCL: Running for 100000 steps
ETITLE: TS BOND ANGLE DIHED IMPRP ELECT VDW BOUNDARY MISC KINETIC TOTAL TEMP POTENTIAL TOTAL3 TEMPAVG PRESSURE GPRESSURE VOLUME PRESSAVG GPRESSAVG
ENERGY: 300000 0.2302 1.2980 2.4752 0.0000 -14010.1298 2374.3296 0.0000 0.0000 522.9068 -11108.8900 88.8082 -11631.7968 -11107.8172 88.8082 -16.0150 29.5638 28527.6056 -16.0150 29.5638
ENERGY: 400000 0.4856 1.2625 2.9209 0.0000 -13841.7982 2316.5495 0.0000 0.0000 678.9489 -10841.6307 115.3097 -11520.5797 -10840.4114 119.9058 -158.6415 -90.8434 28732.0284 4.9997 5.0082
TCL: Running 100000 steps at 150 kelvin.
TCL: Setting parameter langevinTemp to 150
TCL: Running for 100000 steps
ETITLE: TS BOND ANGLE DIHED IMPRP ELECT VDW BOUNDARY MISC KINETIC TOTAL TEMP POTENTIAL TOTAL3 TEMPAVG PRESSURE GPRESSURE VOLUME PRESSAVG GPRESSAVG
ENERGY: 400000 0.4856 1.2625 2.9209 0.0000 -13841.7982 2316.5495 0.0000 0.0000 678.5893 -10841.9904 115.2486 -11520.5797 -10840.7263 115.2486 -133.2540 -91.0878 28732.0284 -133.2540 -91.0878
ENERGY: 500000 0.1618 4.0847 2.9300 0.0000 -13723.1759 2358.0924 0.0000 0.0000 912.8990 -10445.0079 155.0428 -11357.9070 -10443.5767 149.8691 929.2862 946.4877 28608.5449 4.3188 4.3908
TCL: Running 100000 steps at 180 kelvin.
TCL: Setting parameter langevinTemp to 180
TCL: Running for 100000 steps
ETITLE: TS BOND ANGLE DIHED IMPRP ELECT VDW BOUNDARY MISC KINETIC TOTAL TEMP POTENTIAL TOTAL3 TEMPAVG PRESSURE GPRESSURE VOLUME PRESSAVG GPRESSAVG
ENERGY: 500000 0.1618 4.0847 2.9300 0.0000 -13723.1759 2358.0924 0.0000 0.0000 912.4627 -10445.4442 154.9687 -11357.9070 -10444.0073 154.9687 889.9947 946.6959 28608.5449 889.9947 946.6959
ENERGY: 600000 0.3636 3.8919 2.4269 0.0000 -13231.4144 2153.7965 0.0000 0.0000 1057.4062 -10013.5293 179.5852 -11070.9355 -10011.6674 180.4736 135.4189 126.9054 28931.4357 3.1394 3.2650
TCL: Running 100000 steps at 210 kelvin.
TCL: Setting parameter langevinTemp to 210
TCL: Running for 100000 steps
ETITLE: TS BOND ANGLE DIHED IMPRP ELECT VDW BOUNDARY MISC KINETIC TOTAL TEMP POTENTIAL TOTAL3 TEMPAVG PRESSURE GPRESSURE VOLUME PRESSAVG GPRESSAVG
ENERGY: 600000 0.3636 3.8919 2.4269 0.0000 -13231.4144 2153.7965 0.0000 0.0000 1056.8695 -10014.0660 179.4941 -11070.9355 -10011.9380 179.4941 60.3875 126.5326 28931.4357 60.3875 126.5326
ENERGY: 700000 1.2593 4.1752 2.6453 0.0000 -12471.9948 1866.3258 0.0000 0.0000 1222.0336 -9375.5556 207.5448 -10597.5893 -9373.3001 209.3343 -398.2112 -328.0487 28932.1882 2.0345 2.1846
TCL: Running 100000 steps at 240 kelvin.
TCL: Setting parameter langevinTemp to 240
TCL: Running for 100000 steps
ETITLE: TS BOND ANGLE DIHED IMPRP ELECT VDW BOUNDARY MISC KINETIC TOTAL TEMP POTENTIAL TOTAL3 TEMPAVG PRESSURE GPRESSURE VOLUME PRESSAVG GPRESSAVG
ENERGY: 700000 1.2593 4.1752 2.6453 0.0000 -12471.9948 1866.3258 0.0000 0.0000 1221.4289 -9376.1603 207.4421 -10597.5893 -9373.5034 207.4421 -398.7292 -329.2637 28932.1882 -398.7292 -329.2637
ENERGY: 800000 0.2327 4.2681 2.0118 0.0000 -11802.6633 1704.1148 0.0000 0.0000 1439.1578 -8652.8782 244.4202 -10092.0360 -8650.5810 239.6376 91.5499 115.8623 28944.8288 2.8320 2.7601
TCL: Running 100000 steps at 270 kelvin.
TCL: Setting parameter langevinTemp to 270
TCL: Running for 100000 steps
ETITLE: TS BOND ANGLE DIHED IMPRP ELECT VDW BOUNDARY MISC KINETIC TOTAL TEMP POTENTIAL TOTAL3 TEMPAVG PRESSURE GPRESSURE VOLUME PRESSAVG GPRESSAVG
ENERGY: 800000 0.2327 4.2681 2.0118 0.0000 -11802.6633 1704.1148 0.0000 0.0000 1438.4527 -8653.5833 244.3005 -10092.0360 -8651.4815 244.3005 16.5478 116.1093 28944.8288 16.5478 116.1093
ENERGY: 900000 1.2233 2.2580 2.4620 0.0000 -11282.8518 1506.7890 0.0000 0.0000 1604.6682 -8165.4514 272.5298 -9770.1195 -8160.8485 270.4746 -916.0429 -815.7763 29901.9116 3.2146 3.0993
TCL: Running 1000000 steps at 300 kelvin.
TCL: Setting parameter langevinTemp to 300
TCL: Running for 1000000 steps
ETITLE: TS BOND ANGLE DIHED IMPRP ELECT VDW BOUNDARY MISC KINETIC TOTAL TEMP POTENTIAL TOTAL3 TEMPAVG PRESSURE GPRESSURE VOLUME PRESSAVG GPRESSAVG
ENERGY: 900000 1.2233 2.2580 2.4620 0.0000 -11282.8518 1506.7890 0.0000 0.0000 1603.8684 -8166.2511 272.3940 -9770.1195 -8162.8315 272.3940 -910.4952 -815.2560 29901.9116 -910.4952 -815.2560
ENERGY: 1100000 0.2962 5.1496 2.4539 0.0000 -10663.0725 1411.8117 0.0000 0.0000 1748.7650 -7494.5960 297.0026 -9243.3610 -7491.7360 300.1026 121.1743 226.6899 30066.8078 2.8347 2.8055
ENERGY: 1300000 0.1134 6.3977 3.2719 0.0000 -10625.9089 1390.0851 0.0000 0.0000 1705.0156 -7521.0251 289.5724 -9226.0407 -7518.6115 299.8478 -379.8925 -296.7755 30755.6256 2.1413 2.0705
ENERGY: 1500000 2.5926 3.3762 3.5330 0.0000 -10797.4336 1491.5576 0.0000 0.0000 1846.6058 -7449.7685 313.6194 -9296.3743 -7445.4900 300.1299 335.3309 447.9845 30309.3202 2.6555 2.8396
ENERGY: 1700000 1.6916 6.4969 3.0696 0.0000 -10731.1724 1422.8801 0.0000 0.0000 1731.9088 -7565.1255 294.1398 -9297.0342 -7561.8229 299.5308 89.4591 206.4808 30071.9470 4.1859 4.0197
ENERGY: 1900000 1.3572 6.7281 2.2806 0.0000 -10763.6708 1445.7807 0.0000 0.0000 1722.0647 -7585.4595 292.4679 -9307.5242 -7582.2292 299.8435 -66.4708 56.0003 30178.0723 2.9854 3.1681
TCL: Exiting due to exit command.
