Info: SIMULATION PARAMETERS:
Info: TIMESTEP               2
Info: NUMBER OF STEPS        0
Info: STEPS PER CYCLE        10
Info: PERIODIC CELL BASIS 1  36.592 0 0
Info: PERIODIC CELL BASIS 2  0 34.457 0
Info: PERIODIC CELL BASIS 3  0 0 34.954
Info: PERIODIC CELL CENTER   0 0 0
Info: WRAPPING WATERS AROUND PERIODIC BOUNDARIES ON OUTPUT.
Info: WRAPPING ALL CLUSTERS AROUND PERIODIC BOUNDARIES ON OUTPUT.
Info: FIRST LDB TIMESTEP     50
Info: LAST LDB TIMESTEP     -1
Info: HOM BACKGROUND SCALING 1
Info: PME BACKGROUND SCALING 1
Info: MIN ATOMS PER PATCH    40
Info: EMPTY PATCH LOAD       40 ATOMS
Info: INITIAL TEMPERATURE    300
Info: CENTER OF MASS MOVING INITIALLY? NO
Info: DIELECTRIC             1
Info: EXCLUDE                SCALED ONE-FOUR
Info: 1-4 ELECTROSTATICS SCALED BY 0.833333
Info: MODIFIED 1-4 VDW PARAMETERS WILL BE USED
Info: DCD FILENAME           mobley_252413_equil.dcd
Info: DCD FREQUENCY          100000
Info: DCD FIRST STEP         100000
Info: DCD FILE WILL CONTAIN UNIT CELL DATA
Info: XST FILENAME           mobley_252413_equil.xst
Info: XST FREQUENCY          100000
Info: NO VELOCITY DCD OUTPUT
Info: NO FORCE DCD OUTPUT
Info: OUTPUT FILENAME        mobley_252413_equil
Info: BINARY OUTPUT FILES WILL BE USED
Info: RESTART FILENAME       mobley_252413_equil.restart
Info: RESTART FREQUENCY      100000
Info: BINARY RESTART FILES WILL BE USED
Info: CUTOFF                 9
Info: PAIRLIST DISTANCE      11
Info: PAIRLIST SHRINK RATE   0.01
Info: PAIRLIST GROW RATE     0.01
Info: PAIRLIST TRIGGER       0.3
Info: PAIRLISTS PER CYCLE    2
Info: PAIRLISTS ENABLED
Info: MARGIN                 8
Info: HYDROGEN GROUP CUTOFF  2.5
Info: PATCH DIMENSION        21.5
Info: ENERGY OUTPUT STEPS    100000
Info: ENERGY EVALUATION STEPS    100000
Info: OUTPUT ENERGY PRECISION 4
Info: CROSSTERM ENERGY INCLUDED IN DIHEDRAL
Info: TIMING OUTPUT STEPS    1000000
Info: PRESSURE OUTPUT STEPS  100000
Info: LANGEVIN DYNAMICS ACTIVE
Info: LANGEVIN TEMPERATURE   30
Info: LANGEVIN USING BBK INTEGRATOR
Info: LANGEVIN DAMPING COEFFICIENT IS 1 INVERSE PS
Info: LANGEVIN DYNAMICS APPLIED TO HYDROGENS
Info: LANGEVIN PISTON PRESSURE CONTROL ACTIVE
Info:        TARGET PRESSURE IS 1.01325 BAR
Info:     OSCILLATION PERIOD IS 50 FS
Info:             DECAY TIME IS 25 FS
Info:     PISTON TEMPERATURE IS 300 K
Info:       PRESSURE CONTROL IS GROUP-BASED
Info:    INITIAL STRAIN RATE IS 0 0 0
Info:       CELL FLUCTUATION IS ISOTROPIC
Info: PARTICLE MESH EWALD (PME) ACTIVE
Info: PME TOLERANCE               1e-06
Info: PME EWALD COEFFICIENT       0.348832
Info: PME INTERPOLATION ORDER     4
Info: PME GRID DIMENSIONS         40 36 36
Info: PME MAXIMUM GRID SPACING    1
Info: FULL ELECTROSTATIC EVALUATION FREQUENCY      2
Info: USING VERLET I (r-RESPA) MTS SCHEME.
Info: C1 SPLITTING OF LONG RANGE ELECTROSTATICS
Info: PLACING ATOMS IN PATCHES BY HYDROGEN GROUPS
Info: RIGID BONDS TO HYDROGEN : ALL
Info:         ERROR TOLERANCE : 1e-08
Info:          MAX ITERATIONS : 100
Info: RIGID WATER USING SETTLE ALGORITHM
Info: RANDOM NUMBER SEED     1743236265
Info: USE HYDROGEN BONDS?    NO
Info: Using AMBER format force field!
Info: AMBER PARM FILE        mobley_252413.prmtop
Info: COORDINATE PDB         mobley_252413.pdb
Info: Exclusions will be read from PARM file!
Info: SCNB (VDW SCALING)     2
Info: USING ARITHMETIC MEAN TO COMBINE L-J SIGMA PARAMETERS
Info: BINARY COORDINATES     mobley_252413_min.coor
Info: SUMMARY OF PARAMETERS:
Info: 4 BONDS
Info: 3 ANGLES
Info:   3 HARMONIC
Info:   0 COSINE-BASED
Info: 5 DIHEDRAL
Info: 0 IMPROPER
Info: 0 CROSSTERM
Info: 0 VDW
Info: 10 VDW_PAIRS
Info: 0 NBTHOLE_PAIRS
Info: STRUCTURE SUMMARY:
Info: 2957 ATOMS
Info: 2956 BONDS
Info: 42 ANGLES
Info: 62 DIHEDRALS
Info: 0 IMPROPERS
Info: 0 CROSSTERMS
Info: 3052 EXCLUSIONS
Info: 2950 RIGID BONDS
Info: 5921 DEGREES OF FREEDOM
Info: 985 HYDROGEN GROUPS
Info: 4 ATOMS IN LARGEST HYDROGEN GROUP
Info: 985 MIGRATION GROUPS
Info: 4 ATOMS IN LARGEST MIGRATION GROUP
Info: TOTAL MASS = 17719.8 amu
Info: TOTAL CHARGE = -0.000200018 e
Info: MASS DENSITY = 0.667665 g/cm^3
Info: ATOM DENSITY = 0.0670951 atoms/A^3
Info: ADDED 0 IMPLICIT EXCLUSIONS
Info: NONBONDED TABLE R-SQUARED SPACING: 0.0625
Info: NONBONDED TABLE SIZE: 705 POINTS
Info: REMOVING COM VELOCITY 0.217463 0.0216767 -0.145547
TCL: Running for 100000 steps
ETITLE: TS BOND ANGLE DIHED IMPRP ELECT VDW BOUNDARY MISC KINETIC TOTAL TEMP POTENTIAL TOTAL3 TEMPAVG PRESSURE GPRESSURE VOLUME PRESSAVG GPRESSAVG
ENERGY: 0 0.3614 1.6812 1.8926 0.0000 -13561.1550 2386.2465 0.0000 0.0000 1802.7194 -9368.2539 306.4245 -11170.9733 -9367.8643 306.4245 371.6423 415.2402 44071.7699 371.6423 415.2402
ENERGY: 100000 0.7213 3.4153 2.1623 0.0000 -14064.4165 2394.6950 0.0000 0.0000 184.6906 -11478.7320 31.3935 -11663.4225 -11478.0612 31.0437 -626.4809 -564.7620 29429.9948 4.4493 4.4435
TCL: Running 100000 steps at 60 kelvin.
TCL: Setting parameter langevinTemp to 60
TCL: Running for 100000 steps
ETITLE: TS BOND ANGLE DIHED IMPRP ELECT VDW BOUNDARY MISC KINETIC TOTAL TEMP POTENTIAL TOTAL3 TEMPAVG PRESSURE GPRESSURE VOLUME PRESSAVG GPRESSAVG
ENERGY: 100000 0.7213 3.4153 2.1623 0.0000 -14064.4165 2394.6950 0.0000 0.0000 184.6048 -11478.8178 31.3789 -11663.4225 -11478.3809 31.3789 -613.5470 -564.7393 29429.9948 -613.5470 -564.7393
ENERGY: 200000 0.9727 3.8780 1.9455 0.0000 -14001.3181 2348.7696 0.0000 0.0000 360.2074 -11285.5450 61.2277 -11645.7524 -11284.5456 60.1037 -678.8411 -645.5011 28879.8675 4.6225 4.5825
TCL: Running 100000 steps at 90 kelvin.
TCL: Setting parameter langevinTemp to 90
TCL: Running for 100000 steps
ETITLE: TS BOND ANGLE DIHED IMPRP ELECT VDW BOUNDARY MISC KINETIC TOTAL TEMP POTENTIAL TOTAL3 TEMPAVG PRESSURE GPRESSURE VOLUME PRESSAVG GPRESSAVG
ENERGY: 200000 0.9727 3.8780 1.9455 0.0000 -14001.3181 2348.7696 0.0000 0.0000 360.0343 -11285.7181 61.1983 -11645.7524 -11284.9210 61.1983 -697.7145 -645.7217 28879.8675 -697.7145 -645.7217
ENERGY: 300000 0.2556 3.4323 2.1399 0.0000 -13967.8603 2421.7790 0.0000 0.0000 521.3813 -11018.8722 88.6239 -11540.2536 -11017.8548 89.8556 494.7221 526.9219 28777.4939 3.6142 3.5296
TCL: Running 100000 steps at 120 kelvin.
TCL: Setting parameter langevinTemp to 120
TCL: Running for 100000 steps
ETITLE: TS BOND ANGLE DIHED IMPRP ELECT VDW BOUNDARY MISC KINETIC TOTAL TEMP POTENTIAL TOTAL3 TEMPAVG PRESSURE GPRESSURE VOLUME PRESSAVG GPRESSAVG
ENERGY: 300000 0.2556 3.4323 2.1399 0.0000 -13967.8603 2421.7790 0.0000 0.0000 521.1178 -11019.1358 88.5791 -11540.2536 -11018.1982 88.5791 474.9383 526.5243 28777.4939 474.9383 526.5243
ENERGY: 400000 0.4325 7.3595 2.2141 0.0000 -13841.4718 2429.4326 0.0000 0.0000 705.6296 -10696.4035 119.9422 -11402.0331 -10694.1174 119.9871 943.5208 940.8244 28730.0042 4.2974 4.2830
TCL: Running 100000 steps at 150 kelvin.
TCL: Setting parameter langevinTemp to 150
TCL: Running for 100000 steps
ETITLE: TS BOND ANGLE DIHED IMPRP ELECT VDW BOUNDARY MISC KINETIC TOTAL TEMP POTENTIAL TOTAL3 TEMPAVG PRESSURE GPRESSURE VOLUME PRESSAVG GPRESSAVG
ENERGY: 400000 0.4325 7.3595 2.2141 0.0000 -13841.4718 2429.4326 0.0000 0.0000 705.2612 -10696.7719 119.8796 -11402.0331 -10695.1256 119.8796 897.9591 941.2899 28730.0042 897.9591 941.2899
ENERGY: 500000 1.4528 5.7246 2.1999 0.0000 -13471.2486 2229.7990 0.0000 0.0000 898.0744 -10333.9980 152.6538 -11232.0723 -10331.2973 150.2361 -154.1249 -60.8742 28783.0483 2.3599 2.2990
TCL: Running 100000 steps at 180 kelvin.
TCL: Setting parameter langevinTemp to 180
TCL: Running for 100000 steps
ETITLE: TS BOND ANGLE DIHED IMPRP ELECT VDW BOUNDARY MISC KINETIC TOTAL TEMP POTENTIAL TOTAL3 TEMPAVG PRESSURE GPRESSURE VOLUME PRESSAVG GPRESSAVG
ENERGY: 500000 1.4528 5.7246 2.1999 0.0000 -13471.2486 2229.7990 0.0000 0.0000 897.6586 -10334.4137 152.5831 -11232.0723 -10332.7165 152.5831 -123.8757 -58.9272 28783.0483 -123.8757 -58.9272
ENERGY: 600000 1.5593 9.0973 2.8436 0.0000 -13180.1484 2209.1410 0.0000 0.0000 1021.0747 -9936.4325 173.5613 -10957.5072 -9934.9768 180.0549 765.0034 793.8933 28827.9618 3.2948 3.2482
TCL: Running 100000 steps at 210 kelvin.
TCL: Setting parameter langevinTemp to 210
TCL: Running for 100000 steps
ETITLE: TS BOND ANGLE DIHED IMPRP ELECT VDW BOUNDARY MISC KINETIC TOTAL TEMP POTENTIAL TOTAL3 TEMPAVG PRESSURE GPRESSURE VOLUME PRESSAVG GPRESSAVG
ENERGY: 600000 1.5593 9.0973 2.8436 0.0000 -13180.1484 2209.1410 0.0000 0.0000 1020.5552 -9936.9520 173.4730 -10957.5072 -9935.0129 173.4730 726.5939 793.1399 28827.9618 726.5939 793.1399
ENERGY: 700000 0.5756 12.4340 2.6261 0.0000 -12372.2477 1863.3099 0.0000 0.0000 1223.4008 -9269.9013 207.9525 -10493.3020 -9267.0229 209.7153 -194.3350 -106.7938 28898.0895 3.9721 3.9379
TCL: Running 100000 steps at 240 kelvin.
TCL: Setting parameter langevinTemp to 240
TCL: Running for 100000 steps
ETITLE: TS BOND ANGLE DIHED IMPRP ELECT VDW BOUNDARY MISC KINETIC TOTAL TEMP POTENTIAL TOTAL3 TEMPAVG PRESSURE GPRESSURE VOLUME PRESSAVG GPRESSAVG
ENERGY: 700000 0.5756 12.4340 2.6261 0.0000 -12372.2477 1863.3099 0.0000 0.0000 1222.7881 -9270.5140 207.8483 -10493.3020 -9267.9866 207.8483 -189.4022 -106.9866 28898.0895 -189.4022 -106.9866
ENERGY: 800000 2.4409 8.5431 3.2857 0.0000 -11839.3729 1722.7036 0.0000 0.0000 1422.9047 -8679.4948 241.8640 -10102.3995 -8675.1243 239.7231 -10.0333 -5.3610 29179.9283 2.6319 2.5184
TCL: Running 100000 steps at 270 kelvin.
TCL: Setting parameter langevinTemp to 270
TCL: Running for 100000 steps
ETITLE: TS BOND ANGLE DIHED IMPRP ELECT VDW BOUNDARY MISC KINETIC TOTAL TEMP POTENTIAL TOTAL3 TEMPAVG PRESSURE GPRESSURE VOLUME PRESSAVG GPRESSAVG
ENERGY: 800000 2.4409 8.5431 3.2857 0.0000 -11839.3729 1722.7036 0.0000 0.0000 1422.2085 -8680.1910 241.7456 -10102.3995 -8678.2904 241.7456 -79.5868 -4.5190 29179.9283 -79.5868 -4.5190
ENERGY: 900000 3.0481 8.5553 4.0759 0.0000 -11372.3280 1654.4044 0.0000 0.0000 1617.8254 -8084.4189 274.9964 -9702.2443 -8082.0172 269.7600 243.7160 370.0276 29737.1099 4.3546 4.3985
TCL: Running 1000000 steps at 300 kelvin.
TCL: Setting parameter langevinTemp to 300
TCL: Running for 1000000 steps
ETITLE: TS BOND ANGLE DIHED IMPRP ELECT VDW BOUNDARY MISC KINETIC TOTAL TEMP POTENTIAL TOTAL3 TEMPAVG PRESSURE GPRESSURE VOLUME PRESSAVG GPRESSAVG
ENERGY: 900000 3.0481 8.5553 4.0759 0.0000 -11372.3280 1654.4044 0.0000 0.0000 1617.0547 -8085.1896 274.8654 -9702.2443 -8082.0824 274.8654 280.3796 368.0916 29737.1099 280.3796 368.0916
ENERGY: 1100000 2.9372 7.5919 4.4549 0.0000 -10663.0128 1453.2969 0.0000 0.0000 1753.1687 -7441.5633 298.0019 -9194.7320 -7436.0546 300.1697 405.3678 515.6906 30229.7511 2.9633 3.0946
ENERGY: 1300000 1.6823 14.6741 2.8424 0.0000 -10572.6028 1326.6398 0.0000 0.0000 1757.4821 -7469.2820 298.7351 -9226.7642 -7465.4047 299.7911 -1016.8625 -920.5618 30770.3077 3.9951 4.0742
ENERGY: 1500000 3.5326 6.0024 3.7530 0.0000 -10579.5068 1413.9121 0.0000 0.0000 1812.7546 -7339.5520 308.1303 -9152.3066 -7334.9261 300.5594 -156.8898 -57.1718 30871.4803 2.3707 2.5978
ENERGY: 1700000 1.1664 8.1736 2.7287 0.0000 -10707.5402 1488.4749 0.0000 0.0000 1794.5265 -7412.4701 305.0319 -9206.9967 -7409.0948 300.3908 383.5979 482.6056 30675.4028 3.5545 3.4892
ENERGY: 1900000 1.7977 9.0728 2.6004 0.0000 -10543.1492 1327.4700 0.0000 0.0000 1829.6756 -7372.5329 311.0065 -9202.2084 -7370.2690 300.4062 -932.9895 -876.7490 30966.0916 4.1667 4.1247
TCL: Exiting due to exit command.
