Info: SIMULATION PARAMETERS:
Info: TIMESTEP               2
Info: NUMBER OF STEPS        0
Info: STEPS PER CYCLE        10
Info: PERIODIC CELL BASIS 1  37.435 0 0
Info: PERIODIC CELL BASIS 2  0 37.796 0
Info: PERIODIC CELL BASIS 3  0 0 31.349
Info: PERIODIC CELL CENTER   0 0 0
Info: WRAPPING WATERS AROUND PERIODIC BOUNDARIES ON OUTPUT.
Info: WRAPPING ALL CLUSTERS AROUND PERIODIC BOUNDARIES ON OUTPUT.
Info: FIRST LDB TIMESTEP     50
Info: LAST LDB TIMESTEP     -1
Info: HOM BACKGROUND SCALING 1
Info: PME BACKGROUND SCALING 1
Info: MIN ATOMS PER PATCH    40
Info: EMPTY PATCH LOAD       40 ATOMS
Info: INITIAL TEMPERATURE    300
Info: CENTER OF MASS MOVING INITIALLY? NO
Info: DIELECTRIC             1
Info: EXCLUDE                SCALED ONE-FOUR
Info: 1-4 ELECTROSTATICS SCALED BY 0.833333
Info: MODIFIED 1-4 VDW PARAMETERS WILL BE USED
Info: DCD FILENAME           mobley_2845466_equil.dcd
Info: DCD FREQUENCY          100000
Info: DCD FIRST STEP         100000
Info: DCD FILE WILL CONTAIN UNIT CELL DATA
Info: XST FILENAME           mobley_2845466_equil.xst
Info: XST FREQUENCY          100000
Info: NO VELOCITY DCD OUTPUT
Info: NO FORCE DCD OUTPUT
Info: OUTPUT FILENAME        mobley_2845466_equil
Info: BINARY OUTPUT FILES WILL BE USED
Info: RESTART FILENAME       mobley_2845466_equil.restart
Info: RESTART FREQUENCY      100000
Info: BINARY RESTART FILES WILL BE USED
Info: CUTOFF                 9
Info: PAIRLIST DISTANCE      11
Info: PAIRLIST SHRINK RATE   0.01
Info: PAIRLIST GROW RATE     0.01
Info: PAIRLIST TRIGGER       0.3
Info: PAIRLISTS PER CYCLE    2
Info: PAIRLISTS ENABLED
Info: MARGIN                 8
Info: HYDROGEN GROUP CUTOFF  2.5
Info: PATCH DIMENSION        21.5
Info: ENERGY OUTPUT STEPS    100000
Info: ENERGY EVALUATION STEPS    100000
Info: OUTPUT ENERGY PRECISION 4
Info: CROSSTERM ENERGY INCLUDED IN DIHEDRAL
Info: TIMING OUTPUT STEPS    1000000
Info: PRESSURE OUTPUT STEPS  100000
Info: LANGEVIN DYNAMICS ACTIVE
Info: LANGEVIN TEMPERATURE   30
Info: LANGEVIN USING BBK INTEGRATOR
Info: LANGEVIN DAMPING COEFFICIENT IS 1 INVERSE PS
Info: LANGEVIN DYNAMICS APPLIED TO HYDROGENS
Info: LANGEVIN PISTON PRESSURE CONTROL ACTIVE
Info:        TARGET PRESSURE IS 1.01325 BAR
Info:     OSCILLATION PERIOD IS 50 FS
Info:             DECAY TIME IS 25 FS
Info:     PISTON TEMPERATURE IS 300 K
Info:       PRESSURE CONTROL IS GROUP-BASED
Info:    INITIAL STRAIN RATE IS 0 0 0
Info:       CELL FLUCTUATION IS ISOTROPIC
Info: PARTICLE MESH EWALD (PME) ACTIVE
Info: PME TOLERANCE               1e-06
Info: PME EWALD COEFFICIENT       0.348832
Info: PME INTERPOLATION ORDER     4
Info: PME GRID DIMENSIONS         40 40 32
Info: PME MAXIMUM GRID SPACING    1
Info: FULL ELECTROSTATIC EVALUATION FREQUENCY      2
Info: USING VERLET I (r-RESPA) MTS SCHEME.
Info: C1 SPLITTING OF LONG RANGE ELECTROSTATICS
Info: PLACING ATOMS IN PATCHES BY HYDROGEN GROUPS
Info: RIGID BONDS TO HYDROGEN : ALL
Info:         ERROR TOLERANCE : 1e-08
Info:          MAX ITERATIONS : 100
Info: RIGID WATER USING SETTLE ALGORITHM
Info: RANDOM NUMBER SEED     1743219374
Info: USE HYDROGEN BONDS?    NO
Info: Using AMBER format force field!
Info: AMBER PARM FILE        mobley_2845466.prmtop
Info: COORDINATE PDB         mobley_2845466.pdb
Info: Exclusions will be read from PARM file!
Info: SCNB (VDW SCALING)     2
Info: USING ARITHMETIC MEAN TO COMBINE L-J SIGMA PARAMETERS
Info: BINARY COORDINATES     mobley_2845466_min.coor
Info: SUMMARY OF PARAMETERS:
Info: 6 BONDS
Info: 5 ANGLES
Info:   5 HARMONIC
Info:   0 COSINE-BASED
Info: 3 DIHEDRAL
Info: 0 IMPROPER
Info: 0 CROSSTERM
Info: 0 VDW
Info: 21 VDW_PAIRS
Info: 0 NBTHOLE_PAIRS
Info: STRUCTURE SUMMARY:
Info: 2929 ATOMS
Info: 2931 BONDS
Info: 38 ANGLES
Info: 68 DIHEDRALS
Info: 0 IMPROPERS
Info: 0 CROSSTERMS
Info: 3016 EXCLUSIONS
Info: 2911 RIGID BONDS
Info: 5876 DEGREES OF FREEDOM
Info: 987 HYDROGEN GROUPS
Info: 3 ATOMS IN LARGEST HYDROGEN GROUP
Info: 987 MIGRATION GROUPS
Info: 3 ATOMS IN LARGEST MIGRATION GROUP
Info: TOTAL MASS = 17779.5 amu
Info: TOTAL CHARGE = 0.000300042 e
Info: MASS DENSITY = 0.665626 g/cm^3
Info: ATOM DENSITY = 0.0660347 atoms/A^3
Info: ADDED 0 IMPLICIT EXCLUSIONS
Info: NONBONDED TABLE R-SQUARED SPACING: 0.0625
Info: NONBONDED TABLE SIZE: 705 POINTS
Info: REMOVING COM VELOCITY -0.0703222 0.0176765 -0.090621
TCL: Running for 100000 steps
ETITLE: TS BOND ANGLE DIHED IMPRP ELECT VDW BOUNDARY MISC KINETIC TOTAL TEMP POTENTIAL TOTAL3 TEMPAVG PRESSURE GPRESSURE VOLUME PRESSAVG GPRESSAVG
ENERGY: 0 0.4685 0.3637 0.1109 0.0000 -13450.8325 2355.2696 0.0000 0.0000 1722.9675 -9371.6522 295.1112 -11094.6198 -9371.3204 295.1112 280.2014 303.7291 44355.4888 280.2014 303.7291
ENERGY: 100000 2.3902 1.1080 0.4857 0.0000 -13866.6830 2319.9337 0.0000 0.0000 171.6917 -11371.0737 29.4075 -11542.7654 -11370.5546 30.8249 -1150.8639 -1074.0993 30058.0520 4.6196 4.6248
TCL: Running 100000 steps at 60 kelvin.
TCL: Setting parameter langevinTemp to 60
TCL: Running for 100000 steps
ETITLE: TS BOND ANGLE DIHED IMPRP ELECT VDW BOUNDARY MISC KINETIC TOTAL TEMP POTENTIAL TOTAL3 TEMPAVG PRESSURE GPRESSURE VOLUME PRESSAVG GPRESSAVG
ENERGY: 100000 2.3902 1.1080 0.4857 0.0000 -13866.6830 2319.9337 0.0000 0.0000 171.6051 -11371.1603 29.3927 -11542.7654 -11370.7408 29.3927 -1141.9777 -1073.9991 30058.0520 -1141.9777 -1073.9991
ENERGY: 200000 1.5700 1.1313 0.9817 0.0000 -13757.3779 2285.2245 0.0000 0.0000 336.6663 -11131.8040 57.6645 -11468.4703 -11130.9396 59.9321 -687.0753 -631.0684 29113.2390 3.6809 3.7340
TCL: Running 100000 steps at 90 kelvin.
TCL: Setting parameter langevinTemp to 90
TCL: Running for 100000 steps
ETITLE: TS BOND ANGLE DIHED IMPRP ELECT VDW BOUNDARY MISC KINETIC TOTAL TEMP POTENTIAL TOTAL3 TEMPAVG PRESSURE GPRESSURE VOLUME PRESSAVG GPRESSAVG
ENERGY: 200000 1.5700 1.1313 0.9817 0.0000 -13757.3779 2285.2245 0.0000 0.0000 336.4973 -11131.9731 57.6355 -11468.4703 -11131.2428 57.6355 -698.4583 -631.0012 29113.2390 -698.4583 -631.0012
ENERGY: 300000 1.5787 2.3735 1.9463 0.0000 -13801.5156 2338.3647 0.0000 0.0000 531.3772 -10925.8752 91.0147 -11457.2523 -10924.3358 90.0313 0.1155 89.1654 28611.7585 3.7828 3.7816
TCL: Running 100000 steps at 120 kelvin.
TCL: Setting parameter langevinTemp to 120
TCL: Running for 100000 steps
ETITLE: TS BOND ANGLE DIHED IMPRP ELECT VDW BOUNDARY MISC KINETIC TOTAL TEMP POTENTIAL TOTAL3 TEMPAVG PRESSURE GPRESSURE VOLUME PRESSAVG GPRESSAVG
ENERGY: 300000 1.5787 2.3735 1.9463 0.0000 -13801.5156 2338.3647 0.0000 0.0000 531.1209 -10926.1314 90.9708 -11457.2523 -10925.2486 90.9708 31.9986 89.4634 28611.7585 31.9986 89.4634
ENERGY: 400000 2.2962 2.0675 2.5143 0.0000 -13530.7933 2213.5459 0.0000 0.0000 686.1032 -10624.2662 117.5163 -11310.3694 -10622.1010 119.8036 -570.0220 -508.4597 28600.3276 3.8860 3.8908
TCL: Running 100000 steps at 150 kelvin.
TCL: Setting parameter langevinTemp to 150
TCL: Running for 100000 steps
ETITLE: TS BOND ANGLE DIHED IMPRP ELECT VDW BOUNDARY MISC KINETIC TOTAL TEMP POTENTIAL TOTAL3 TEMPAVG PRESSURE GPRESSURE VOLUME PRESSAVG GPRESSAVG
ENERGY: 400000 2.2962 2.0675 2.5143 0.0000 -13530.7933 2213.5459 0.0000 0.0000 685.7411 -10624.6282 117.4543 -11310.3694 -10623.1780 117.4543 -562.7788 -507.6547 28600.3276 -562.7788 -507.6547
ENERGY: 500000 6.3489 4.4131 2.4254 0.0000 -13396.4851 2273.1687 0.0000 0.0000 874.1248 -10236.0042 149.7208 -11110.1290 -10232.2359 149.9236 512.9527 563.3987 28659.1421 3.3799 3.4586
TCL: Running 100000 steps at 180 kelvin.
TCL: Setting parameter langevinTemp to 180
TCL: Running for 100000 steps
ETITLE: TS BOND ANGLE DIHED IMPRP ELECT VDW BOUNDARY MISC KINETIC TOTAL TEMP POTENTIAL TOTAL3 TEMPAVG PRESSURE GPRESSURE VOLUME PRESSAVG GPRESSAVG
ENERGY: 500000 6.3489 4.4131 2.4254 0.0000 -13396.4851 2273.1687 0.0000 0.0000 873.7020 -10236.4270 149.6483 -11110.1290 -10234.9531 149.6483 503.5713 564.8408 28659.1421 503.5713 564.8408
ENERGY: 600000 2.5997 4.1387 1.8481 0.0000 -13013.9489 2144.6310 0.0000 0.0000 1037.7183 -9823.0130 177.7412 -10860.7313 -9820.5888 180.0396 296.3749 402.5854 28934.1413 3.6249 3.8052
TCL: Running 100000 steps at 210 kelvin.
TCL: Setting parameter langevinTemp to 210
TCL: Running for 100000 steps
ETITLE: TS BOND ANGLE DIHED IMPRP ELECT VDW BOUNDARY MISC KINETIC TOTAL TEMP POTENTIAL TOTAL3 TEMPAVG PRESSURE GPRESSURE VOLUME PRESSAVG GPRESSAVG
ENERGY: 600000 2.5997 4.1387 1.8481 0.0000 -13013.9489 2144.6310 0.0000 0.0000 1037.2099 -9823.5214 177.6541 -10860.7313 -9821.9355 177.6541 327.4284 402.4134 28934.1413 327.4284 402.4134
ENERGY: 700000 5.6156 1.7052 2.8566 0.0000 -12222.6131 1859.7440 0.0000 0.0000 1230.0310 -9122.6608 210.6807 -10352.6918 -9119.2229 210.1492 168.4809 201.1162 28507.3458 4.5077 4.4547
TCL: Running 100000 steps at 240 kelvin.
TCL: Setting parameter langevinTemp to 240
TCL: Running for 100000 steps
ETITLE: TS BOND ANGLE DIHED IMPRP ELECT VDW BOUNDARY MISC KINETIC TOTAL TEMP POTENTIAL TOTAL3 TEMPAVG PRESSURE GPRESSURE VOLUME PRESSAVG GPRESSAVG
ENERGY: 700000 5.6156 1.7052 2.8566 0.0000 -12222.6131 1859.7440 0.0000 0.0000 1229.4377 -9123.2541 210.5790 -10352.6918 -9121.2647 210.5790 116.7021 201.8127 28507.3458 116.7021 201.8127
ENERGY: 800000 8.5581 5.8582 4.7426 0.0000 -11781.2812 1733.0877 0.0000 0.0000 1408.2263 -8620.8085 241.2021 -10029.0348 -8619.5848 240.3198 242.7945 297.6377 28653.2031 3.3547 3.3606
TCL: Running 100000 steps at 270 kelvin.
TCL: Setting parameter langevinTemp to 270
TCL: Running for 100000 steps
ETITLE: TS BOND ANGLE DIHED IMPRP ELECT VDW BOUNDARY MISC KINETIC TOTAL TEMP POTENTIAL TOTAL3 TEMPAVG PRESSURE GPRESSURE VOLUME PRESSAVG GPRESSAVG
ENERGY: 800000 8.5581 5.8582 4.7426 0.0000 -11781.2812 1733.0877 0.0000 0.0000 1407.5255 -8621.5093 241.0820 -10029.0348 -8619.7015 241.0820 220.2447 296.3443 28653.2031 220.2447 296.3443
ENERGY: 900000 6.2595 4.6469 5.3335 0.0000 -10985.9533 1473.3018 0.0000 0.0000 1579.7636 -7916.6481 270.5831 -9496.4117 -7914.5562 269.9623 -589.4428 -492.0720 29864.7776 1.5729 1.5626
TCL: Running 1000000 steps at 300 kelvin.
TCL: Setting parameter langevinTemp to 300
TCL: Running for 1000000 steps
ETITLE: TS BOND ANGLE DIHED IMPRP ELECT VDW BOUNDARY MISC KINETIC TOTAL TEMP POTENTIAL TOTAL3 TEMPAVG PRESSURE GPRESSURE VOLUME PRESSAVG GPRESSAVG
ENERGY: 900000 6.2595 4.6469 5.3335 0.0000 -10985.9533 1473.3018 0.0000 0.0000 1578.9650 -7917.4467 270.4463 -9496.4117 -7914.9423 270.4463 -569.8995 -493.2764 29864.7776 -569.8995 -493.2764
ENERGY: 1100000 9.2969 6.3627 4.8332 0.0000 -10647.1148 1395.6745 0.0000 0.0000 1818.4909 -7412.4566 311.4725 -9230.9475 -7408.1493 299.9703 -682.2773 -619.5459 30571.4642 3.7170 3.7002
ENERGY: 1300000 6.1326 3.5900 5.2219 0.0000 -10571.9914 1372.9175 0.0000 0.0000 1730.7573 -7453.3720 296.4454 -9184.1294 -7448.6887 300.2346 -560.4460 -501.6907 30435.6215 3.4826 3.5919
ENERGY: 1500000 6.1073 4.5075 3.3584 0.0000 -10569.5699 1404.9258 0.0000 0.0000 1752.0586 -7398.6123 300.0939 -9150.6709 -7394.4463 300.1995 121.7045 221.6221 30344.5600 2.8695 2.8861
ENERGY: 1700000 4.0123 5.3650 3.3273 0.0000 -10616.0573 1412.8544 0.0000 0.0000 1744.3521 -7446.1463 298.7740 -9190.4984 -7443.3324 300.3078 438.1931 517.9984 29683.0362 2.6249 2.5856
ENERGY: 1900000 8.7426 5.4852 3.4321 0.0000 -10688.5884 1459.1032 0.0000 0.0000 1750.5029 -7461.3224 299.8275 -9211.8253 -7457.7765 300.0526 -104.4861 -45.5981 30599.8539 3.5721 3.6150
TCL: Exiting due to exit command.
