Info: SIMULATION PARAMETERS:
Info: TIMESTEP               2
Info: NUMBER OF STEPS        0
Info: STEPS PER CYCLE        10
Info: PERIODIC CELL BASIS 1  33.998 0 0
Info: PERIODIC CELL BASIS 2  0 35.779 0
Info: PERIODIC CELL BASIS 3  0 0 36.583
Info: PERIODIC CELL CENTER   0 0 0
Info: WRAPPING WATERS AROUND PERIODIC BOUNDARIES ON OUTPUT.
Info: WRAPPING ALL CLUSTERS AROUND PERIODIC BOUNDARIES ON OUTPUT.
Info: FIRST LDB TIMESTEP     50
Info: LAST LDB TIMESTEP     -1
Info: HOM BACKGROUND SCALING 1
Info: PME BACKGROUND SCALING 1
Info: MIN ATOMS PER PATCH    40
Info: EMPTY PATCH LOAD       40 ATOMS
Info: INITIAL TEMPERATURE    300
Info: CENTER OF MASS MOVING INITIALLY? NO
Info: DIELECTRIC             1
Info: EXCLUDE                SCALED ONE-FOUR
Info: 1-4 ELECTROSTATICS SCALED BY 0.833333
Info: MODIFIED 1-4 VDW PARAMETERS WILL BE USED
Info: DCD FILENAME           mobley_6733657_equil.dcd
Info: DCD FREQUENCY          100000
Info: DCD FIRST STEP         100000
Info: DCD FILE WILL CONTAIN UNIT CELL DATA
Info: XST FILENAME           mobley_6733657_equil.xst
Info: XST FREQUENCY          100000
Info: NO VELOCITY DCD OUTPUT
Info: NO FORCE DCD OUTPUT
Info: OUTPUT FILENAME        mobley_6733657_equil
Info: BINARY OUTPUT FILES WILL BE USED
Info: RESTART FILENAME       mobley_6733657_equil.restart
Info: RESTART FREQUENCY      100000
Info: BINARY RESTART FILES WILL BE USED
Info: CUTOFF                 9
Info: PAIRLIST DISTANCE      11
Info: PAIRLIST SHRINK RATE   0.01
Info: PAIRLIST GROW RATE     0.01
Info: PAIRLIST TRIGGER       0.3
Info: PAIRLISTS PER CYCLE    2
Info: PAIRLISTS ENABLED
Info: MARGIN                 8
Info: HYDROGEN GROUP CUTOFF  2.5
Info: PATCH DIMENSION        21.5
Info: ENERGY OUTPUT STEPS    100000
Info: ENERGY EVALUATION STEPS    100000
Info: OUTPUT ENERGY PRECISION 4
Info: CROSSTERM ENERGY INCLUDED IN DIHEDRAL
Info: TIMING OUTPUT STEPS    1000000
Info: PRESSURE OUTPUT STEPS  100000
Info: LANGEVIN DYNAMICS ACTIVE
Info: LANGEVIN TEMPERATURE   30
Info: LANGEVIN USING BBK INTEGRATOR
Info: LANGEVIN DAMPING COEFFICIENT IS 1 INVERSE PS
Info: LANGEVIN DYNAMICS APPLIED TO HYDROGENS
Info: LANGEVIN PISTON PRESSURE CONTROL ACTIVE
Info:        TARGET PRESSURE IS 1.01325 BAR
Info:     OSCILLATION PERIOD IS 50 FS
Info:             DECAY TIME IS 25 FS
Info:     PISTON TEMPERATURE IS 300 K
Info:       PRESSURE CONTROL IS GROUP-BASED
Info:    INITIAL STRAIN RATE IS 0 0 0
Info:       CELL FLUCTUATION IS ISOTROPIC
Info: PARTICLE MESH EWALD (PME) ACTIVE
Info: PME TOLERANCE               1e-06
Info: PME EWALD COEFFICIENT       0.348832
Info: PME INTERPOLATION ORDER     4
Info: PME GRID DIMENSIONS         36 36 40
Info: PME MAXIMUM GRID SPACING    1
Info: FULL ELECTROSTATIC EVALUATION FREQUENCY      2
Info: USING VERLET I (r-RESPA) MTS SCHEME.
Info: C1 SPLITTING OF LONG RANGE ELECTROSTATICS
Info: PLACING ATOMS IN PATCHES BY HYDROGEN GROUPS
Info: RIGID BONDS TO HYDROGEN : ALL
Info:         ERROR TOLERANCE : 1e-08
Info:          MAX ITERATIONS : 100
Info: RIGID WATER USING SETTLE ALGORITHM
Info: RANDOM NUMBER SEED     1743221369
Info: USE HYDROGEN BONDS?    NO
Info: Using AMBER format force field!
Info: AMBER PARM FILE        mobley_6733657.prmtop
Info: COORDINATE PDB         mobley_6733657.pdb
Info: Exclusions will be read from PARM file!
Info: SCNB (VDW SCALING)     2
Info: USING ARITHMETIC MEAN TO COMBINE L-J SIGMA PARAMETERS
Info: BINARY COORDINATES     mobley_6733657_min.coor
Info: SUMMARY OF PARAMETERS:
Info: 9 BONDS
Info: 12 ANGLES
Info:   12 HARMONIC
Info:   0 COSINE-BASED
Info: 13 DIHEDRAL
Info: 0 IMPROPER
Info: 0 CROSSTERM
Info: 0 VDW
Info: 28 VDW_PAIRS
Info: 0 NBTHOLE_PAIRS
Info: STRUCTURE SUMMARY:
Info: 2994 ATOMS
Info: 2996 BONDS
Info: 54 ANGLES
Info: 144 DIHEDRALS
Info: 0 IMPROPERS
Info: 0 CROSSTERMS
Info: 3130 EXCLUSIONS
Info: 2976 RIGID BONDS
Info: 6006 DEGREES OF FREEDOM
Info: 1008 HYDROGEN GROUPS
Info: 3 ATOMS IN LARGEST HYDROGEN GROUP
Info: 1008 MIGRATION GROUPS
Info: 3 ATOMS IN LARGEST MIGRATION GROUP
Info: TOTAL MASS = 18245.6 amu
Info: TOTAL CHARGE = -2.09548e-08 e
Info: MASS DENSITY = 0.680858 g/cm^3
Info: ATOM DENSITY = 0.0672808 atoms/A^3
Info: ADDED 0 IMPLICIT EXCLUSIONS
Info: NONBONDED TABLE R-SQUARED SPACING: 0.0625
Info: NONBONDED TABLE SIZE: 705 POINTS
Info: REMOVING COM VELOCITY -0.166957 0.182624 0.0738706
TCL: Running for 100000 steps
ETITLE: TS BOND ANGLE DIHED IMPRP ELECT VDW BOUNDARY MISC KINETIC TOTAL TEMP POTENTIAL TOTAL3 TEMPAVG PRESSURE GPRESSURE VOLUME PRESSAVG GPRESSAVG
ENERGY: 0 1.7576 50.6490 21.2076 0.0000 -13806.7030 2409.8698 0.0000 0.0000 1822.5872 -9500.6319 305.4171 -11323.2191 -9500.2678 305.4171 388.6657 420.7167 44500.0895 388.6657 420.7167
ENERGY: 100000 2.4927 51.7258 20.8498 0.0000 -14342.0191 2430.8850 0.0000 0.0000 179.6133 -11656.4525 30.0984 -11836.0659 -11655.7693 30.8616 -861.4152 -799.8836 29789.6684 3.7554 3.7205
TCL: Running 100000 steps at 60 kelvin.
TCL: Setting parameter langevinTemp to 60
TCL: Running for 100000 steps
ETITLE: TS BOND ANGLE DIHED IMPRP ELECT VDW BOUNDARY MISC KINETIC TOTAL TEMP POTENTIAL TOTAL3 TEMPAVG PRESSURE GPRESSURE VOLUME PRESSAVG GPRESSAVG
ENERGY: 100000 2.4927 51.7258 20.8498 0.0000 -14342.0191 2430.8850 0.0000 0.0000 179.5251 -11656.5408 30.0836 -11836.0659 -11656.1438 30.0836 -851.5441 -799.8917 29789.6684 -851.5441 -799.8917
ENERGY: 200000 2.5524 51.7425 20.9178 0.0000 -14370.4567 2553.4559 0.0000 0.0000 368.2559 -11373.5323 61.7099 -11741.7882 -11373.0875 59.8584 1021.0901 1043.9969 29288.3723 4.6741 4.6104
TCL: Running 100000 steps at 90 kelvin.
TCL: Setting parameter langevinTemp to 90
TCL: Running for 100000 steps
ETITLE: TS BOND ANGLE DIHED IMPRP ELECT VDW BOUNDARY MISC KINETIC TOTAL TEMP POTENTIAL TOTAL3 TEMPAVG PRESSURE GPRESSURE VOLUME PRESSAVG GPRESSAVG
ENERGY: 200000 2.5524 51.7425 20.9178 0.0000 -14370.4567 2553.4559 0.0000 0.0000 368.0814 -11373.7068 61.6806 -11741.7882 -11372.8189 61.6806 993.2635 1043.2849 29288.3723 993.2635 1043.2849
ENERGY: 300000 3.7362 55.0162 20.5746 0.0000 -14078.1523 2406.5566 0.0000 0.0000 528.9549 -11063.3138 88.6388 -11592.2687 -11061.7824 89.9716 -65.3410 35.8473 29664.4183 3.9028 3.8873
TCL: Running 100000 steps at 120 kelvin.
TCL: Setting parameter langevinTemp to 120
TCL: Running for 100000 steps
ETITLE: TS BOND ANGLE DIHED IMPRP ELECT VDW BOUNDARY MISC KINETIC TOTAL TEMP POTENTIAL TOTAL3 TEMPAVG PRESSURE GPRESSURE VOLUME PRESSAVG GPRESSAVG
ENERGY: 300000 3.7362 55.0162 20.5746 0.0000 -14078.1523 2406.5566 0.0000 0.0000 528.6852 -11063.5835 88.5936 -11592.2687 -11062.5058 88.5936 -20.4505 36.1523 29664.4183 -20.4505 36.1523
ENERGY: 400000 5.5105 52.2199 21.0384 0.0000 -13971.5182 2427.7423 0.0000 0.0000 697.9206 -10767.0866 116.9529 -11465.0073 -10766.0200 119.9584 709.1145 742.5119 29519.0475 3.2671 3.2527
TCL: Running 100000 steps at 150 kelvin.
TCL: Setting parameter langevinTemp to 150
TCL: Running for 100000 steps
ETITLE: TS BOND ANGLE DIHED IMPRP ELECT VDW BOUNDARY MISC KINETIC TOTAL TEMP POTENTIAL TOTAL3 TEMPAVG PRESSURE GPRESSURE VOLUME PRESSAVG GPRESSAVG
ENERGY: 400000 5.5105 52.2199 21.0384 0.0000 -13971.5182 2427.7423 0.0000 0.0000 697.5736 -10767.4336 116.8948 -11465.0073 -10766.0725 116.8948 698.9058 741.7062 29519.0475 698.9058 741.7062
ENERGY: 500000 4.7722 55.7425 21.6851 0.0000 -13751.1492 2348.2139 0.0000 0.0000 931.6544 -10389.0811 156.1205 -11320.7355 -10387.6634 149.7882 597.0297 626.7024 29574.3569 6.7727 6.7597
TCL: Running 100000 steps at 180 kelvin.
TCL: Setting parameter langevinTemp to 180
TCL: Running for 100000 steps
ETITLE: TS BOND ANGLE DIHED IMPRP ELECT VDW BOUNDARY MISC KINETIC TOTAL TEMP POTENTIAL TOTAL3 TEMPAVG PRESSURE GPRESSURE VOLUME PRESSAVG GPRESSAVG
ENERGY: 500000 4.7722 55.7425 21.6851 0.0000 -13751.1492 2348.2139 0.0000 0.0000 931.2014 -10389.5341 156.0446 -11320.7355 -10388.0679 156.0446 568.1706 625.5913 29574.3569 568.1706 625.5913
ENERGY: 600000 7.1794 52.6085 22.0108 0.0000 -13309.6820 2156.4552 0.0000 0.0000 1035.8948 -10035.5333 173.5884 -11071.4281 -10033.6377 180.2643 -287.2401 -233.5222 29766.2082 3.7726 3.7467
TCL: Running 100000 steps at 210 kelvin.
TCL: Setting parameter langevinTemp to 210
TCL: Running for 100000 steps
ETITLE: TS BOND ANGLE DIHED IMPRP ELECT VDW BOUNDARY MISC KINETIC TOTAL TEMP POTENTIAL TOTAL3 TEMPAVG PRESSURE GPRESSURE VOLUME PRESSAVG GPRESSAVG
ENERGY: 600000 7.1794 52.6085 22.0108 0.0000 -13309.6820 2156.4552 0.0000 0.0000 1035.3708 -10036.0573 173.5006 -11071.4281 -10033.5650 173.5006 -296.0553 -234.1175 29766.2082 -296.0553 -234.1175
ENERGY: 700000 3.7109 55.0628 21.7502 0.0000 -12489.6515 1880.1331 0.0000 0.0000 1258.7942 -9270.2003 210.9404 -10528.9946 -9267.7697 210.0529 -190.3721 -132.0318 29435.8543 4.2545 4.3118
TCL: Running 100000 steps at 240 kelvin.
TCL: Setting parameter langevinTemp to 240
TCL: Running for 100000 steps
ETITLE: TS BOND ANGLE DIHED IMPRP ELECT VDW BOUNDARY MISC KINETIC TOTAL TEMP POTENTIAL TOTAL3 TEMPAVG PRESSURE GPRESSURE VOLUME PRESSAVG GPRESSAVG
ENERGY: 700000 3.7109 55.0628 21.7502 0.0000 -12489.6515 1880.1331 0.0000 0.0000 1258.1648 -9270.8298 210.8349 -10528.9946 -9268.7407 210.8349 -197.6387 -131.0907 29435.8543 -197.6387 -131.0907
ENERGY: 800000 5.3775 56.0754 22.2226 0.0000 -12039.4773 1815.8524 0.0000 0.0000 1451.3622 -8688.5871 243.2097 -10139.9493 -8686.7912 240.4671 732.4294 817.0202 29363.1976 3.2215 3.1885
TCL: Running 100000 steps at 270 kelvin.
TCL: Setting parameter langevinTemp to 270
TCL: Running for 100000 steps
ETITLE: TS BOND ANGLE DIHED IMPRP ELECT VDW BOUNDARY MISC KINETIC TOTAL TEMP POTENTIAL TOTAL3 TEMPAVG PRESSURE GPRESSURE VOLUME PRESSAVG GPRESSAVG
ENERGY: 800000 5.3775 56.0754 22.2226 0.0000 -12039.4773 1815.8524 0.0000 0.0000 1450.6525 -8689.2968 243.0908 -10139.9493 -8686.5080 243.0908 729.8000 814.3780 29363.1976 729.8000 814.3780
ENERGY: 900000 9.3852 62.2906 21.0568 0.0000 -11234.4061 1489.2799 0.0000 0.0000 1623.1064 -8029.2872 271.9894 -9652.3935 -8025.3456 269.9822 -686.1324 -544.1661 30102.1745 2.0596 1.9187
TCL: Running 1000000 steps at 300 kelvin.
TCL: Setting parameter langevinTemp to 300
TCL: Running for 1000000 steps
ETITLE: TS BOND ANGLE DIHED IMPRP ELECT VDW BOUNDARY MISC KINETIC TOTAL TEMP POTENTIAL TOTAL3 TEMPAVG PRESSURE GPRESSURE VOLUME PRESSAVG GPRESSAVG
ENERGY: 900000 9.3852 62.2906 21.0568 0.0000 -11234.4061 1489.2799 0.0000 0.0000 1622.2951 -8030.0984 271.8535 -9652.3935 -8027.9916 271.8535 -632.8012 -544.4109 30102.1745 -632.8012 -544.4109
ENERGY: 1100000 6.7971 58.0358 22.0115 0.0000 -10664.6157 1295.2621 0.0000 0.0000 1719.7097 -7562.7995 288.1776 -9282.5092 -7559.9894 299.6753 -1190.8884 -1116.8752 31053.6081 2.6390 2.5899
ENERGY: 1300000 10.0707 62.2224 21.9182 0.0000 -10765.3307 1363.3910 0.0000 0.0000 1753.1982 -7554.5303 293.7894 -9307.7284 -7548.6398 300.3036 -1066.4788 -1004.2509 31147.0791 2.1469 2.1285
ENERGY: 1500000 7.4051 60.6925 20.5850 0.0000 -10744.0771 1446.6996 0.0000 0.0000 1812.4068 -7396.2882 303.7111 -9208.6949 -7393.2564 300.5699 106.1348 172.6468 31110.2720 3.2710 3.3524
ENERGY: 1700000 9.9834 61.4422 21.4395 0.0000 -10686.4476 1353.6585 0.0000 0.0000 1760.3027 -7479.6214 294.9799 -9239.9241 -7475.3536 300.1554 -885.8941 -748.3770 31403.5229 3.3280 3.3557
ENERGY: 1900000 4.4616 57.6533 20.1030 0.0000 -10683.1791 1448.1000 0.0000 0.0000 1798.3264 -7354.5348 301.3516 -9152.8612 -7352.3535 299.8161 -82.4119 -16.0681 32055.9424 1.7414 1.8942
TCL: Exiting due to exit command.
