Info: SIMULATION PARAMETERS:
Info: TIMESTEP               2
Info: NUMBER OF STEPS        0
Info: STEPS PER CYCLE        10
Info: PERIODIC CELL BASIS 1  36.005 0 0
Info: PERIODIC CELL BASIS 2  0 34.696 0
Info: PERIODIC CELL BASIS 3  0 0 34.954
Info: PERIODIC CELL CENTER   0 0 0
Info: WRAPPING WATERS AROUND PERIODIC BOUNDARIES ON OUTPUT.
Info: WRAPPING ALL CLUSTERS AROUND PERIODIC BOUNDARIES ON OUTPUT.
Info: FIRST LDB TIMESTEP     50
Info: LAST LDB TIMESTEP     -1
Info: HOM BACKGROUND SCALING 1
Info: PME BACKGROUND SCALING 1
Info: MIN ATOMS PER PATCH    40
Info: EMPTY PATCH LOAD       40 ATOMS
Info: INITIAL TEMPERATURE    300
Info: CENTER OF MASS MOVING INITIALLY? NO
Info: DIELECTRIC             1
Info: EXCLUDE                SCALED ONE-FOUR
Info: 1-4 ELECTROSTATICS SCALED BY 0.833333
Info: MODIFIED 1-4 VDW PARAMETERS WILL BE USED
Info: DCD FILENAME           mobley_8337977_equil.dcd
Info: DCD FREQUENCY          100000
Info: DCD FIRST STEP         100000
Info: DCD FILE WILL CONTAIN UNIT CELL DATA
Info: XST FILENAME           mobley_8337977_equil.xst
Info: XST FREQUENCY          100000
Info: NO VELOCITY DCD OUTPUT
Info: NO FORCE DCD OUTPUT
Info: OUTPUT FILENAME        mobley_8337977_equil
Info: BINARY OUTPUT FILES WILL BE USED
Info: RESTART FILENAME       mobley_8337977_equil.restart
Info: RESTART FREQUENCY      100000
Info: BINARY RESTART FILES WILL BE USED
Info: CUTOFF                 9
Info: PAIRLIST DISTANCE      11
Info: PAIRLIST SHRINK RATE   0.01
Info: PAIRLIST GROW RATE     0.01
Info: PAIRLIST TRIGGER       0.3
Info: PAIRLISTS PER CYCLE    2
Info: PAIRLISTS ENABLED
Info: MARGIN                 8
Info: HYDROGEN GROUP CUTOFF  2.5
Info: PATCH DIMENSION        21.5
Info: ENERGY OUTPUT STEPS    100000
Info: ENERGY EVALUATION STEPS    100000
Info: OUTPUT ENERGY PRECISION 4
Info: CROSSTERM ENERGY INCLUDED IN DIHEDRAL
Info: TIMING OUTPUT STEPS    1000000
Info: PRESSURE OUTPUT STEPS  100000
Info: LANGEVIN DYNAMICS ACTIVE
Info: LANGEVIN TEMPERATURE   30
Info: LANGEVIN USING BBK INTEGRATOR
Info: LANGEVIN DAMPING COEFFICIENT IS 1 INVERSE PS
Info: LANGEVIN DYNAMICS APPLIED TO HYDROGENS
Info: LANGEVIN PISTON PRESSURE CONTROL ACTIVE
Info:        TARGET PRESSURE IS 1.01325 BAR
Info:     OSCILLATION PERIOD IS 50 FS
Info:             DECAY TIME IS 25 FS
Info:     PISTON TEMPERATURE IS 300 K
Info:       PRESSURE CONTROL IS GROUP-BASED
Info:    INITIAL STRAIN RATE IS 0 0 0
Info:       CELL FLUCTUATION IS ISOTROPIC
Info: PARTICLE MESH EWALD (PME) ACTIVE
Info: PME TOLERANCE               1e-06
Info: PME EWALD COEFFICIENT       0.348832
Info: PME INTERPOLATION ORDER     4
Info: PME GRID DIMENSIONS         40 36 36
Info: PME MAXIMUM GRID SPACING    1
Info: FULL ELECTROSTATIC EVALUATION FREQUENCY      2
Info: USING VERLET I (r-RESPA) MTS SCHEME.
Info: C1 SPLITTING OF LONG RANGE ELECTROSTATICS
Info: PLACING ATOMS IN PATCHES BY HYDROGEN GROUPS
Info: RIGID BONDS TO HYDROGEN : ALL
Info:         ERROR TOLERANCE : 1e-08
Info:          MAX ITERATIONS : 100
Info: RIGID WATER USING SETTLE ALGORITHM
Info: RANDOM NUMBER SEED     1743242533
Info: USE HYDROGEN BONDS?    NO
Info: Using AMBER format force field!
Info: AMBER PARM FILE        mobley_8337977.prmtop
Info: COORDINATE PDB         mobley_8337977.pdb
Info: Exclusions will be read from PARM file!
Info: SCNB (VDW SCALING)     2
Info: USING ARITHMETIC MEAN TO COMBINE L-J SIGMA PARAMETERS
Info: BINARY COORDINATES     mobley_8337977_min.coor
Info: SUMMARY OF PARAMETERS:
Info: 6 BONDS
Info: 7 ANGLES
Info:   7 HARMONIC
Info:   0 COSINE-BASED
Info: 8 DIHEDRAL
Info: 0 IMPROPER
Info: 0 CROSSTERM
Info: 0 VDW
Info: 21 VDW_PAIRS
Info: 0 NBTHOLE_PAIRS
Info: STRUCTURE SUMMARY:
Info: 2905 ATOMS
Info: 2904 BONDS
Info: 33 ANGLES
Info: 50 DIHEDRALS
Info: 0 IMPROPERS
Info: 0 CROSSTERMS
Info: 2976 EXCLUSIONS
Info: 2898 RIGID BONDS
Info: 5817 DEGREES OF FREEDOM
Info: 969 HYDROGEN GROUPS
Info: 4 ATOMS IN LARGEST HYDROGEN GROUP
Info: 969 MIGRATION GROUPS
Info: 4 ATOMS IN LARGEST MIGRATION GROUP
Info: TOTAL MASS = 17431.5 amu
Info: TOTAL CHARGE = 7.07805e-08 e
Info: MASS DENSITY = 0.662912 g/cm^3
Info: ATOM DENSITY = 0.0665284 atoms/A^3
Info: ADDED 0 IMPLICIT EXCLUSIONS
Info: NONBONDED TABLE R-SQUARED SPACING: 0.0625
Info: NONBONDED TABLE SIZE: 705 POINTS
Info: REMOVING COM VELOCITY 0.220527 -0.043995 0.108331
TCL: Running for 100000 steps
ETITLE: TS BOND ANGLE DIHED IMPRP ELECT VDW BOUNDARY MISC KINETIC TOTAL TEMP POTENTIAL TOTAL3 TEMPAVG PRESSURE GPRESSURE VOLUME PRESSAVG GPRESSAVG
ENERGY: 0 0.1209 0.7529 4.2756 0.0000 -13410.9410 2367.2178 0.0000 0.0000 1753.4763 -9285.0974 303.3830 -11038.5737 -9284.7505 303.3830 485.8793 513.0377 43665.5672 485.8793 513.0377
ENERGY: 100000 0.9425 1.8907 4.2845 0.0000 -13843.7082 2330.7750 0.0000 0.0000 171.4126 -11334.4030 29.6575 -11505.8156 -11334.1567 30.8887 -902.2552 -839.0287 29095.8212 3.3276 3.3100
TCL: Running 100000 steps at 60 kelvin.
TCL: Setting parameter langevinTemp to 60
TCL: Running for 100000 steps
ETITLE: TS BOND ANGLE DIHED IMPRP ELECT VDW BOUNDARY MISC KINETIC TOTAL TEMP POTENTIAL TOTAL3 TEMPAVG PRESSURE GPRESSURE VOLUME PRESSAVG GPRESSAVG
ENERGY: 100000 0.9425 1.8907 4.2845 0.0000 -13843.7082 2330.7750 0.0000 0.0000 171.3250 -11334.4906 29.6423 -11505.8156 -11334.1678 29.6423 -901.1491 -839.0976 29095.8212 -901.1491 -839.0976
ENERGY: 200000 0.6473 2.6648 4.3787 0.0000 -13855.1729 2406.0035 0.0000 0.0000 338.7381 -11102.7406 58.6078 -11441.4787 -11102.2379 60.0676 -45.4288 22.1925 29286.3328 2.8909 2.8195
TCL: Running 100000 steps at 90 kelvin.
TCL: Setting parameter langevinTemp to 90
TCL: Running for 100000 steps
ETITLE: TS BOND ANGLE DIHED IMPRP ELECT VDW BOUNDARY MISC KINETIC TOTAL TEMP POTENTIAL TOTAL3 TEMPAVG PRESSURE GPRESSURE VOLUME PRESSAVG GPRESSAVG
ENERGY: 200000 0.6473 2.6648 4.3787 0.0000 -13855.1729 2406.0035 0.0000 0.0000 338.5687 -11102.9101 58.5785 -11441.4787 -11102.4314 58.5785 -35.3747 22.2913 29286.3328 -35.3747 22.2913
ENERGY: 300000 0.7377 2.0087 4.9453 0.0000 -13702.4321 2339.4578 0.0000 0.0000 530.3820 -10824.9007 91.7656 -11355.2827 -10823.7080 89.8335 -11.5524 62.3112 28739.4503 3.9784 4.0276
TCL: Running 100000 steps at 120 kelvin.
TCL: Setting parameter langevinTemp to 120
TCL: Running for 100000 steps
ETITLE: TS BOND ANGLE DIHED IMPRP ELECT VDW BOUNDARY MISC KINETIC TOTAL TEMP POTENTIAL TOTAL3 TEMPAVG PRESSURE GPRESSURE VOLUME PRESSAVG GPRESSAVG
ENERGY: 300000 0.7377 2.0087 4.9453 0.0000 -13702.4321 2339.4578 0.0000 0.0000 530.1282 -10825.1545 91.7217 -11355.2827 -10824.1685 91.7217 10.8994 62.4410 28739.4503 10.8994 62.4410
ENERGY: 400000 0.5693 4.8411 5.0076 0.0000 -13587.9020 2341.6034 0.0000 0.0000 712.6667 -10523.2138 123.3042 -11235.8805 -10521.6264 119.9560 308.5415 346.5815 29084.0965 4.0129 4.0506
TCL: Running 100000 steps at 150 kelvin.
TCL: Setting parameter langevinTemp to 150
TCL: Running for 100000 steps
ETITLE: TS BOND ANGLE DIHED IMPRP ELECT VDW BOUNDARY MISC KINETIC TOTAL TEMP POTENTIAL TOTAL3 TEMPAVG PRESSURE GPRESSURE VOLUME PRESSAVG GPRESSAVG
ENERGY: 400000 0.5693 4.8411 5.0076 0.0000 -13587.9020 2341.6034 0.0000 0.0000 712.3180 -10523.5625 123.2438 -11235.8805 -10522.2168 123.2438 299.8431 345.5687 29084.0965 299.8431 345.5687
ENERGY: 500000 1.7632 4.9047 4.8934 0.0000 -13362.4546 2260.6091 0.0000 0.0000 838.1410 -10252.1431 145.0135 -11090.2842 -10250.6795 150.2436 323.4983 347.7457 28333.6142 3.8604 3.9610
TCL: Running 100000 steps at 180 kelvin.
TCL: Setting parameter langevinTemp to 180
TCL: Running for 100000 steps
ETITLE: TS BOND ANGLE DIHED IMPRP ELECT VDW BOUNDARY MISC KINETIC TOTAL TEMP POTENTIAL TOTAL3 TEMPAVG PRESSURE GPRESSURE VOLUME PRESSAVG GPRESSAVG
ENERGY: 500000 1.7632 4.9047 4.8934 0.0000 -13362.4546 2260.6091 0.0000 0.0000 837.6884 -10252.5958 144.9352 -11090.2842 -10251.0171 144.9352 295.6000 347.7288 28333.6142 295.6000 347.7288
ENERGY: 600000 2.2698 5.5624 5.0407 0.0000 -12880.2806 2021.9891 0.0000 0.0000 1049.6318 -9795.7867 181.6052 -10845.4185 -9793.7928 179.7199 -792.5630 -798.4427 28698.9072 4.8625 4.8216
TCL: Running 100000 steps at 210 kelvin.
TCL: Setting parameter langevinTemp to 210
TCL: Running for 100000 steps
ETITLE: TS BOND ANGLE DIHED IMPRP ELECT VDW BOUNDARY MISC KINETIC TOTAL TEMP POTENTIAL TOTAL3 TEMPAVG PRESSURE GPRESSURE VOLUME PRESSAVG GPRESSAVG
ENERGY: 600000 2.2698 5.5624 5.0407 0.0000 -12880.2806 2021.9891 0.0000 0.0000 1049.1011 -9796.3174 181.5134 -10845.4185 -9794.3962 181.5134 -861.6829 -799.3530 28698.9072 -861.6829 -799.3530
ENERGY: 700000 0.7650 5.2177 4.9026 0.0000 -12245.5159 1812.9874 0.0000 0.0000 1205.5702 -9216.0730 208.5854 -10421.6433 -9214.6585 209.8764 -640.0946 -482.3079 28235.3015 3.8468 3.8350
TCL: Running 100000 steps at 240 kelvin.
TCL: Setting parameter langevinTemp to 240
TCL: Running for 100000 steps
ETITLE: TS BOND ANGLE DIHED IMPRP ELECT VDW BOUNDARY MISC KINETIC TOTAL TEMP POTENTIAL TOTAL3 TEMPAVG PRESSURE GPRESSURE VOLUME PRESSAVG GPRESSAVG
ENERGY: 700000 0.7650 5.2177 4.9026 0.0000 -12245.5159 1812.9874 0.0000 0.0000 1204.9639 -9216.6794 208.4805 -10421.6433 -9214.3607 208.4805 -554.7503 -483.7657 28235.3015 -554.7503 -483.7657
ENERGY: 800000 2.7940 4.0334 4.8611 0.0000 -11748.7786 1783.2434 0.0000 0.0000 1332.9542 -8620.8924 230.6251 -9953.8467 -8617.9664 239.8743 832.0409 871.7640 28265.7593 3.2528 3.2964
TCL: Running 100000 steps at 270 kelvin.
TCL: Setting parameter langevinTemp to 270
TCL: Running for 100000 steps
ETITLE: TS BOND ANGLE DIHED IMPRP ELECT VDW BOUNDARY MISC KINETIC TOTAL TEMP POTENTIAL TOTAL3 TEMPAVG PRESSURE GPRESSURE VOLUME PRESSAVG GPRESSAVG
ENERGY: 800000 2.7940 4.0334 4.8611 0.0000 -11748.7786 1783.2434 0.0000 0.0000 1332.2498 -8621.5968 230.5032 -9953.8467 -8619.4325 230.5032 786.7671 871.1144 28265.7593 786.7671 871.1144
ENERGY: 900000 0.8736 10.5110 4.6240 0.0000 -10952.5420 1491.2799 0.0000 0.0000 1513.7977 -7931.4558 261.9143 -9445.2535 -7926.3250 269.7924 -380.1214 -315.5393 29480.5623 4.2822 4.2101
TCL: Running 1000000 steps at 300 kelvin.
TCL: Setting parameter langevinTemp to 300
TCL: Running for 1000000 steps
ETITLE: TS BOND ANGLE DIHED IMPRP ELECT VDW BOUNDARY MISC KINETIC TOTAL TEMP POTENTIAL TOTAL3 TEMPAVG PRESSURE GPRESSURE VOLUME PRESSAVG GPRESSAVG
ENERGY: 900000 0.8736 10.5110 4.6240 0.0000 -10952.5420 1491.2799 0.0000 0.0000 1513.0241 -7932.2295 261.7804 -9445.2535 -7930.2327 261.7804 -379.1997 -313.7291 29480.5623 -379.1997 -313.7291
ENERGY: 1100000 2.9939 9.5216 4.9911 0.0000 -10545.0858 1394.2970 0.0000 0.0000 1747.3792 -7385.9030 302.3281 -9133.2822 -7380.4087 300.0619 -334.6713 -216.5881 29809.0984 2.7971 2.6623
ENERGY: 1300000 1.0623 7.9774 4.9994 0.0000 -10621.8056 1471.4253 0.0000 0.0000 1721.6765 -7414.6648 297.8810 -9136.3413 -7413.7587 299.7055 189.7009 245.0878 30095.9102 3.9316 3.9525
ENERGY: 1500000 1.1484 5.9201 4.7010 0.0000 -10664.8009 1553.6216 0.0000 0.0000 1743.3070 -7356.1028 301.6235 -9099.4098 -7350.4603 300.1048 1013.1594 1178.1761 29660.8002 3.6115 3.7219
ENERGY: 1700000 0.4027 8.6464 6.9633 0.0000 -10592.7243 1392.0462 0.0000 0.0000 1729.0603 -7455.6055 299.1586 -9184.6657 -7453.6805 300.2942 -330.2950 -274.7913 29784.8639 1.9575 1.8777
ENERGY: 1900000 2.5193 7.1292 7.8274 0.0000 -10626.5225 1471.0553 0.0000 0.0000 1750.8422 -7387.1491 302.9272 -9137.9912 -7384.2945 301.0649 219.6963 398.5334 29711.7957 1.6499 1.5350
TCL: Exiting due to exit command.
