Info: SIMULATION PARAMETERS:
Info: TIMESTEP               2
Info: NUMBER OF STEPS        0
Info: STEPS PER CYCLE        10
Info: PERIODIC CELL BASIS 1  36.592 0 0
Info: PERIODIC CELL BASIS 2  0 39.013 0
Info: PERIODIC CELL BASIS 3  0 0 31.349
Info: PERIODIC CELL CENTER   0 0 0
Info: WRAPPING WATERS AROUND PERIODIC BOUNDARIES ON OUTPUT.
Info: WRAPPING ALL CLUSTERS AROUND PERIODIC BOUNDARIES ON OUTPUT.
Info: FIRST LDB TIMESTEP     50
Info: LAST LDB TIMESTEP     -1
Info: HOM BACKGROUND SCALING 1
Info: PME BACKGROUND SCALING 1
Info: MIN ATOMS PER PATCH    40
Info: EMPTY PATCH LOAD       40 ATOMS
Info: INITIAL TEMPERATURE    300
Info: CENTER OF MASS MOVING INITIALLY? NO
Info: DIELECTRIC             1
Info: EXCLUDE                SCALED ONE-FOUR
Info: 1-4 ELECTROSTATICS SCALED BY 0.833333
Info: MODIFIED 1-4 VDW PARAMETERS WILL BE USED
Info: DCD FILENAME           mobley_4149784_equil.dcd
Info: DCD FREQUENCY          100000
Info: DCD FIRST STEP         100000
Info: DCD FILE WILL CONTAIN UNIT CELL DATA
Info: XST FILENAME           mobley_4149784_equil.xst
Info: XST FREQUENCY          100000
Info: NO VELOCITY DCD OUTPUT
Info: NO FORCE DCD OUTPUT
Info: OUTPUT FILENAME        mobley_4149784_equil
Info: BINARY OUTPUT FILES WILL BE USED
Info: RESTART FILENAME       mobley_4149784_equil.restart
Info: RESTART FREQUENCY      100000
Info: BINARY RESTART FILES WILL BE USED
Info: CUTOFF                 9
Info: PAIRLIST DISTANCE      11
Info: PAIRLIST SHRINK RATE   0.01
Info: PAIRLIST GROW RATE     0.01
Info: PAIRLIST TRIGGER       0.3
Info: PAIRLISTS PER CYCLE    2
Info: PAIRLISTS ENABLED
Info: MARGIN                 8
Info: HYDROGEN GROUP CUTOFF  2.5
Info: PATCH DIMENSION        21.5
Info: ENERGY OUTPUT STEPS    100000
Info: ENERGY EVALUATION STEPS    100000
Info: OUTPUT ENERGY PRECISION 4
Info: CROSSTERM ENERGY INCLUDED IN DIHEDRAL
Info: TIMING OUTPUT STEPS    1000000
Info: PRESSURE OUTPUT STEPS  100000
Info: LANGEVIN DYNAMICS ACTIVE
Info: LANGEVIN TEMPERATURE   30
Info: LANGEVIN USING BBK INTEGRATOR
Info: LANGEVIN DAMPING COEFFICIENT IS 1 INVERSE PS
Info: LANGEVIN DYNAMICS APPLIED TO HYDROGENS
Info: LANGEVIN PISTON PRESSURE CONTROL ACTIVE
Info:        TARGET PRESSURE IS 1.01325 BAR
Info:     OSCILLATION PERIOD IS 50 FS
Info:             DECAY TIME IS 25 FS
Info:     PISTON TEMPERATURE IS 300 K
Info:       PRESSURE CONTROL IS GROUP-BASED
Info:    INITIAL STRAIN RATE IS 0 0 0
Info:       CELL FLUCTUATION IS ISOTROPIC
Info: PARTICLE MESH EWALD (PME) ACTIVE
Info: PME TOLERANCE               1e-06
Info: PME EWALD COEFFICIENT       0.348832
Info: PME INTERPOLATION ORDER     4
Info: PME GRID DIMENSIONS         40 40 32
Info: PME MAXIMUM GRID SPACING    1
Info: FULL ELECTROSTATIC EVALUATION FREQUENCY      2
Info: USING VERLET I (r-RESPA) MTS SCHEME.
Info: C1 SPLITTING OF LONG RANGE ELECTROSTATICS
Info: PLACING ATOMS IN PATCHES BY HYDROGEN GROUPS
Info: RIGID BONDS TO HYDROGEN : ALL
Info:         ERROR TOLERANCE : 1e-08
Info:          MAX ITERATIONS : 100
Info: RIGID WATER USING SETTLE ALGORITHM
Info: RANDOM NUMBER SEED     1743220852
Info: USE HYDROGEN BONDS?    NO
Info: Using AMBER format force field!
Info: AMBER PARM FILE        mobley_4149784.prmtop
Info: COORDINATE PDB         mobley_4149784.pdb
Info: Exclusions will be read from PARM file!
Info: SCNB (VDW SCALING)     2
Info: USING ARITHMETIC MEAN TO COMBINE L-J SIGMA PARAMETERS
Info: BINARY COORDINATES     mobley_4149784_min.coor
Info: SUMMARY OF PARAMETERS:
Info: 6 BONDS
Info: 5 ANGLES
Info:   5 HARMONIC
Info:   0 COSINE-BASED
Info: 3 DIHEDRAL
Info: 0 IMPROPER
Info: 0 CROSSTERM
Info: 0 VDW
Info: 21 VDW_PAIRS
Info: 0 NBTHOLE_PAIRS
Info: STRUCTURE SUMMARY:
Info: 2953 ATOMS
Info: 2955 BONDS
Info: 38 ANGLES
Info: 68 DIHEDRALS
Info: 0 IMPROPERS
Info: 0 CROSSTERMS
Info: 3040 EXCLUSIONS
Info: 2937 RIGID BONDS
Info: 5922 DEGREES OF FREEDOM
Info: 993 HYDROGEN GROUPS
Info: 3 ATOMS IN LARGEST HYDROGEN GROUP
Info: 993 MIGRATION GROUPS
Info: 3 ATOMS IN LARGEST MIGRATION GROUP
Info: TOTAL MASS = 17854.7 amu
Info: TOTAL CHARGE = 9.99607e-05 e
Info: MASS DENSITY = 0.66251 g/cm^3
Info: ATOM DENSITY = 0.0659849 atoms/A^3
Info: ADDED 0 IMPLICIT EXCLUSIONS
Info: NONBONDED TABLE R-SQUARED SPACING: 0.0625
Info: NONBONDED TABLE SIZE: 705 POINTS
Info: REMOVING COM VELOCITY 0.113027 -0.0444961 -0.147801
TCL: Running for 100000 steps
ETITLE: TS BOND ANGLE DIHED IMPRP ELECT VDW BOUNDARY MISC KINETIC TOTAL TEMP POTENTIAL TOTAL3 TEMPAVG PRESSURE GPRESSURE VOLUME PRESSAVG GPRESSAVG
ENERGY: 0 0.4197 0.1557 0.1423 0.0000 -13565.8606 2366.7627 0.0000 0.0000 1753.8628 -9444.5173 298.0695 -11198.3801 -9444.1899 298.0695 264.3723 288.5461 44752.6943 264.3723 288.5461
ENERGY: 100000 0.8940 0.5206 1.1781 0.0000 -14112.0410 2448.9375 0.0000 0.0000 175.0451 -11485.4658 29.7490 -11660.5109 -11484.7089 30.9182 -79.1539 -1.1910 29540.8378 4.3461 4.3476
TCL: Running 100000 steps at 60 kelvin.
TCL: Setting parameter langevinTemp to 60
TCL: Running for 100000 steps
ETITLE: TS BOND ANGLE DIHED IMPRP ELECT VDW BOUNDARY MISC KINETIC TOTAL TEMP POTENTIAL TOTAL3 TEMPAVG PRESSURE GPRESSURE VOLUME PRESSAVG GPRESSAVG
ENERGY: 100000 0.8940 0.5206 1.1781 0.0000 -14112.0410 2448.9375 0.0000 0.0000 174.9555 -11485.5554 29.7337 -11660.5109 -11485.1551 29.7337 -58.6471 -0.8326 29540.8378 -58.6471 -0.8326
ENERGY: 200000 1.1242 0.8428 1.1861 0.0000 -14119.5351 2467.2023 0.0000 0.0000 345.3819 -11303.7977 58.6978 -11649.1797 -11302.5726 59.9201 387.1673 440.3122 28928.2298 5.4504 5.4179
TCL: Running 100000 steps at 90 kelvin.
TCL: Setting parameter langevinTemp to 90
TCL: Running for 100000 steps
ETITLE: TS BOND ANGLE DIHED IMPRP ELECT VDW BOUNDARY MISC KINETIC TOTAL TEMP POTENTIAL TOTAL3 TEMPAVG PRESSURE GPRESSURE VOLUME PRESSAVG GPRESSAVG
ENERGY: 200000 1.1242 0.8428 1.1861 0.0000 -14119.5351 2467.2023 0.0000 0.0000 345.2067 -11303.9730 58.6680 -11649.1797 -11303.2340 58.6680 393.5867 440.5000 28928.2298 393.5867 440.5000
ENERGY: 300000 2.9757 1.8859 2.7233 0.0000 -13877.1855 2298.8722 0.0000 0.0000 536.8822 -11033.8462 91.2433 -11570.7284 -11032.8558 89.8405 -687.1094 -644.6360 28769.8845 4.6056 4.6508
TCL: Running 100000 steps at 120 kelvin.
TCL: Setting parameter langevinTemp to 120
TCL: Running for 100000 steps
ETITLE: TS BOND ANGLE DIHED IMPRP ELECT VDW BOUNDARY MISC KINETIC TOTAL TEMP POTENTIAL TOTAL3 TEMPAVG PRESSURE GPRESSURE VOLUME PRESSAVG GPRESSAVG
ENERGY: 300000 2.9757 1.8859 2.7233 0.0000 -13877.1855 2298.8722 0.0000 0.0000 536.6276 -11034.1008 91.2000 -11570.7284 -11033.0090 91.2000 -701.5062 -644.3770 28769.8845 -701.5062 -644.3770
ENERGY: 400000 3.6843 2.5921 3.1607 0.0000 -13740.0820 2294.3618 0.0000 0.0000 704.4002 -10731.8828 119.7130 -11436.2831 -10730.2368 119.6446 -234.5727 -242.6058 28763.0056 5.3673 5.2722
TCL: Running 100000 steps at 150 kelvin.
TCL: Setting parameter langevinTemp to 150
TCL: Running for 100000 steps
ETITLE: TS BOND ANGLE DIHED IMPRP ELECT VDW BOUNDARY MISC KINETIC TOTAL TEMP POTENTIAL TOTAL3 TEMPAVG PRESSURE GPRESSURE VOLUME PRESSAVG GPRESSAVG
ENERGY: 400000 3.6843 2.5921 3.1607 0.0000 -13740.0820 2294.3618 0.0000 0.0000 704.0364 -10732.2467 119.6512 -11436.2831 -10730.8910 119.6512 -289.0583 -242.8962 28763.0056 -289.0583 -242.8962
ENERGY: 500000 2.6452 2.7507 2.7470 0.0000 -13391.8081 2100.8924 0.0000 0.0000 888.3710 -10394.4018 150.9789 -11282.7728 -10392.1808 149.8747 -1122.7526 -1067.6787 28775.7709 3.9380 3.9288
TCL: Running 100000 steps at 180 kelvin.
TCL: Setting parameter langevinTemp to 180
TCL: Running for 100000 steps
ETITLE: TS BOND ANGLE DIHED IMPRP ELECT VDW BOUNDARY MISC KINETIC TOTAL TEMP POTENTIAL TOTAL3 TEMPAVG PRESSURE GPRESSURE VOLUME PRESSAVG GPRESSAVG
ENERGY: 500000 2.6452 2.7507 2.7470 0.0000 -13391.8081 2100.8924 0.0000 0.0000 887.9254 -10394.8474 150.9032 -11282.7728 -10393.1302 150.9032 -1112.0808 -1068.2833 28775.7709 -1112.0808 -1068.2833
ENERGY: 600000 2.8178 2.1785 2.9328 0.0000 -13039.6103 2109.8887 0.0000 0.0000 1068.1554 -9853.6371 181.5333 -10921.7925 -9852.2629 180.2396 185.9419 260.0763 28863.2855 3.4349 3.2658
TCL: Running 100000 steps at 210 kelvin.
TCL: Setting parameter langevinTemp to 210
TCL: Running for 100000 steps
ETITLE: TS BOND ANGLE DIHED IMPRP ELECT VDW BOUNDARY MISC KINETIC TOTAL TEMP POTENTIAL TOTAL3 TEMPAVG PRESSURE GPRESSURE VOLUME PRESSAVG GPRESSAVG
ENERGY: 600000 2.8178 2.1785 2.9328 0.0000 -13039.6103 2109.8887 0.0000 0.0000 1067.6237 -9854.1688 181.4430 -10921.7925 -9852.0542 181.4430 187.2446 259.9450 28863.2855 187.2446 259.9450
ENERGY: 700000 4.0209 5.3975 5.7435 0.0000 -12425.8550 1924.3080 0.0000 0.0000 1253.5633 -9232.8220 213.0435 -10486.3853 -9229.1782 209.5405 389.5719 500.8685 28622.2281 4.6203 4.6078
TCL: Running 100000 steps at 240 kelvin.
TCL: Setting parameter langevinTemp to 240
TCL: Running for 100000 steps
ETITLE: TS BOND ANGLE DIHED IMPRP ELECT VDW BOUNDARY MISC KINETIC TOTAL TEMP POTENTIAL TOTAL3 TEMPAVG PRESSURE GPRESSURE VOLUME PRESSAVG GPRESSAVG
ENERGY: 700000 4.0209 5.3975 5.7435 0.0000 -12425.8550 1924.3080 0.0000 0.0000 1252.9654 -9233.4199 212.9419 -10486.3853 -9231.4211 212.9419 422.2502 500.5927 28622.2281 422.2502 500.5927
ENERGY: 800000 2.4746 2.9234 2.6147 0.0000 -11577.6788 1591.7736 0.0000 0.0000 1426.0418 -8551.8507 242.3563 -9977.8925 -8547.3526 239.6032 -827.1243 -713.9837 29448.3624 3.3119 3.3618
TCL: Running 100000 steps at 270 kelvin.
TCL: Setting parameter langevinTemp to 270
TCL: Running for 100000 steps
ETITLE: TS BOND ANGLE DIHED IMPRP ELECT VDW BOUNDARY MISC KINETIC TOTAL TEMP POTENTIAL TOTAL3 TEMPAVG PRESSURE GPRESSURE VOLUME PRESSAVG GPRESSAVG
ENERGY: 800000 2.4746 2.9234 2.6147 0.0000 -11577.6788 1591.7736 0.0000 0.0000 1425.3423 -8552.5501 242.2374 -9977.8925 -8549.1064 242.2374 -811.9132 -715.1923 29448.3624 -811.9132 -715.1923
ENERGY: 900000 2.3474 3.2353 6.6333 0.0000 -11098.3209 1535.4065 0.0000 0.0000 1640.0373 -7910.6612 278.7249 -9550.6984 -7907.3553 269.2033 145.6435 166.4684 30053.2072 3.2328 3.1600
TCL: Running 1000000 steps at 300 kelvin.
TCL: Setting parameter langevinTemp to 300
TCL: Running for 1000000 steps
ETITLE: TS BOND ANGLE DIHED IMPRP ELECT VDW BOUNDARY MISC KINETIC TOTAL TEMP POTENTIAL TOTAL3 TEMPAVG PRESSURE GPRESSURE VOLUME PRESSAVG GPRESSAVG
ENERGY: 900000 2.3474 3.2353 6.6333 0.0000 -11098.3209 1535.4065 0.0000 0.0000 1639.2600 -7911.4385 278.5928 -9550.6984 -7908.9370 278.5928 89.1652 165.3184 30053.2072 89.1652 165.3184
ENERGY: 1100000 6.4439 4.0503 3.7324 0.0000 -10597.1850 1352.8576 0.0000 0.0000 1784.9939 -7445.1068 303.3603 -9230.1008 -7441.0922 300.4412 -807.1768 -676.4215 30706.3995 3.2729 3.2527
ENERGY: 1300000 3.8730 6.5318 6.9842 0.0000 -10736.5598 1490.9690 0.0000 0.0000 1774.1795 -7454.0223 301.5224 -9228.2018 -7450.1706 300.6025 410.3246 519.1030 30609.0020 2.5407 2.4177
ENERGY: 1500000 4.7549 6.7008 3.9863 0.0000 -10651.6861 1439.4544 0.0000 0.0000 1759.8622 -7436.9276 299.0891 -9196.7898 -7435.7942 300.0549 167.5497 220.6005 30275.0682 3.2465 3.2522
ENERGY: 1700000 6.8165 4.9533 7.0740 0.0000 -10757.9309 1440.6136 0.0000 0.0000 1728.4871 -7569.9864 293.7569 -9298.4735 -7566.5174 300.2913 -451.1946 -380.4926 30796.9511 3.9149 3.6527
ENERGY: 1900000 3.5160 6.0036 1.6197 0.0000 -10670.2511 1387.3993 0.0000 0.0000 1807.8544 -7463.8581 307.2454 -9271.7125 -7459.2404 300.1533 -198.8367 -64.6312 29874.8788 2.9412 2.8898
TCL: Exiting due to exit command.
