Info: SIMULATION PARAMETERS:
Info: TIMESTEP               2
Info: NUMBER OF STEPS        0
Info: STEPS PER CYCLE        10
Info: PERIODIC CELL BASIS 1  37.435 0 0
Info: PERIODIC CELL BASIS 2  0 35.411 0
Info: PERIODIC CELL BASIS 3  0 0 33.088
Info: PERIODIC CELL CENTER   0 0 0
Info: WRAPPING WATERS AROUND PERIODIC BOUNDARIES ON OUTPUT.
Info: WRAPPING ALL CLUSTERS AROUND PERIODIC BOUNDARIES ON OUTPUT.
Info: FIRST LDB TIMESTEP     50
Info: LAST LDB TIMESTEP     -1
Info: HOM BACKGROUND SCALING 1
Info: PME BACKGROUND SCALING 1
Info: MIN ATOMS PER PATCH    40
Info: EMPTY PATCH LOAD       40 ATOMS
Info: INITIAL TEMPERATURE    300
Info: CENTER OF MASS MOVING INITIALLY? NO
Info: DIELECTRIC             1
Info: EXCLUDE                SCALED ONE-FOUR
Info: 1-4 ELECTROSTATICS SCALED BY 0.833333
Info: MODIFIED 1-4 VDW PARAMETERS WILL BE USED
Info: DCD FILENAME           mobley_5110043_equil.dcd
Info: DCD FREQUENCY          100000
Info: DCD FIRST STEP         100000
Info: DCD FILE WILL CONTAIN UNIT CELL DATA
Info: XST FILENAME           mobley_5110043_equil.xst
Info: XST FREQUENCY          100000
Info: NO VELOCITY DCD OUTPUT
Info: NO FORCE DCD OUTPUT
Info: OUTPUT FILENAME        mobley_5110043_equil
Info: BINARY OUTPUT FILES WILL BE USED
Info: RESTART FILENAME       mobley_5110043_equil.restart
Info: RESTART FREQUENCY      100000
Info: BINARY RESTART FILES WILL BE USED
Info: CUTOFF                 9
Info: PAIRLIST DISTANCE      11
Info: PAIRLIST SHRINK RATE   0.01
Info: PAIRLIST GROW RATE     0.01
Info: PAIRLIST TRIGGER       0.3
Info: PAIRLISTS PER CYCLE    2
Info: PAIRLISTS ENABLED
Info: MARGIN                 8
Info: HYDROGEN GROUP CUTOFF  2.5
Info: PATCH DIMENSION        21.5
Info: ENERGY OUTPUT STEPS    100000
Info: ENERGY EVALUATION STEPS    100000
Info: OUTPUT ENERGY PRECISION 4
Info: CROSSTERM ENERGY INCLUDED IN DIHEDRAL
Info: TIMING OUTPUT STEPS    1000000
Info: PRESSURE OUTPUT STEPS  100000
Info: LANGEVIN DYNAMICS ACTIVE
Info: LANGEVIN TEMPERATURE   30
Info: LANGEVIN USING BBK INTEGRATOR
Info: LANGEVIN DAMPING COEFFICIENT IS 1 INVERSE PS
Info: LANGEVIN DYNAMICS APPLIED TO HYDROGENS
Info: LANGEVIN PISTON PRESSURE CONTROL ACTIVE
Info:        TARGET PRESSURE IS 1.01325 BAR
Info:     OSCILLATION PERIOD IS 50 FS
Info:             DECAY TIME IS 25 FS
Info:     PISTON TEMPERATURE IS 300 K
Info:       PRESSURE CONTROL IS GROUP-BASED
Info:    INITIAL STRAIN RATE IS 0 0 0
Info:       CELL FLUCTUATION IS ISOTROPIC
Info: PARTICLE MESH EWALD (PME) ACTIVE
Info: PME TOLERANCE               1e-06
Info: PME EWALD COEFFICIENT       0.348832
Info: PME INTERPOLATION ORDER     4
Info: PME GRID DIMENSIONS         40 36 36
Info: PME MAXIMUM GRID SPACING    1
Info: FULL ELECTROSTATIC EVALUATION FREQUENCY      2
Info: USING VERLET I (r-RESPA) MTS SCHEME.
Info: C1 SPLITTING OF LONG RANGE ELECTROSTATICS
Info: PLACING ATOMS IN PATCHES BY HYDROGEN GROUPS
Info: RIGID BONDS TO HYDROGEN : ALL
Info:         ERROR TOLERANCE : 1e-08
Info:          MAX ITERATIONS : 100
Info: RIGID WATER USING SETTLE ALGORITHM
Info: RANDOM NUMBER SEED     1743221039
Info: USE HYDROGEN BONDS?    NO
Info: Using AMBER format force field!
Info: AMBER PARM FILE        mobley_5110043.prmtop
Info: COORDINATE PDB         mobley_5110043.pdb
Info: Exclusions will be read from PARM file!
Info: SCNB (VDW SCALING)     2
Info: USING ARITHMETIC MEAN TO COMBINE L-J SIGMA PARAMETERS
Info: BINARY COORDINATES     mobley_5110043_min.coor
Info: SUMMARY OF PARAMETERS:
Info: 6 BONDS
Info: 5 ANGLES
Info:   5 HARMONIC
Info:   0 COSINE-BASED
Info: 3 DIHEDRAL
Info: 0 IMPROPER
Info: 0 CROSSTERM
Info: 0 VDW
Info: 21 VDW_PAIRS
Info: 0 NBTHOLE_PAIRS
Info: STRUCTURE SUMMARY:
Info: 2955 ATOMS
Info: 2956 BONDS
Info: 42 ANGLES
Info: 66 DIHEDRALS
Info: 0 IMPROPERS
Info: 0 CROSSTERMS
Info: 3048 EXCLUSIONS
Info: 2943 RIGID BONDS
Info: 5922 DEGREES OF FREEDOM
Info: 989 HYDROGEN GROUPS
Info: 4 ATOMS IN LARGEST HYDROGEN GROUP
Info: 989 MIGRATION GROUPS
Info: 4 ATOMS IN LARGEST MIGRATION GROUP
Info: TOTAL MASS = 17757.8 amu
Info: TOTAL CHARGE = -9.99793e-05 e
Info: MASS DENSITY = 0.6723 g/cm^3
Info: ATOM DENSITY = 0.0673707 atoms/A^3
Info: ADDED 0 IMPLICIT EXCLUSIONS
Info: NONBONDED TABLE R-SQUARED SPACING: 0.0625
Info: NONBONDED TABLE SIZE: 705 POINTS
Info: REMOVING COM VELOCITY 0.208109 -0.146503 0.00236508
TCL: Running for 100000 steps
ETITLE: TS BOND ANGLE DIHED IMPRP ELECT VDW BOUNDARY MISC KINETIC TOTAL TEMP POTENTIAL TOTAL3 TEMPAVG PRESSURE GPRESSURE VOLUME PRESSAVG GPRESSAVG
ENERGY: 0 0.2927 0.1438 0.0496 0.0000 -13613.8100 2407.3889 0.0000 0.0000 1773.6461 -9432.2889 301.4317 -11205.9350 -9431.9287 301.4317 489.5845 530.9922 43861.8097 489.5845 530.9922
ENERGY: 100000 1.6084 0.7709 0.5896 0.0000 -14189.1296 2470.0349 0.0000 0.0000 171.2504 -11544.8754 29.1041 -11716.1258 -11544.5196 30.9299 -142.2287 -49.0367 28827.2893 5.3294 5.3097
TCL: Running 100000 steps at 60 kelvin.
TCL: Setting parameter langevinTemp to 60
TCL: Running for 100000 steps
ETITLE: TS BOND ANGLE DIHED IMPRP ELECT VDW BOUNDARY MISC KINETIC TOTAL TEMP POTENTIAL TOTAL3 TEMPAVG PRESSURE GPRESSURE VOLUME PRESSAVG GPRESSAVG
ENERGY: 100000 1.6084 0.7709 0.5896 0.0000 -14189.1296 2470.0349 0.0000 0.0000 171.1635 -11544.9623 29.0893 -11716.1258 -11544.4899 29.0893 -99.3348 -49.3398 28827.2893 -99.3348 -49.3398
ENERGY: 200000 1.3446 1.6826 0.7096 0.0000 -13923.4082 2286.9794 0.0000 0.0000 352.2148 -11280.4772 59.8590 -11632.6920 -11278.9097 60.0010 -1152.2415 -1070.1949 28772.8275 3.4741 3.4421
TCL: Running 100000 steps at 90 kelvin.
TCL: Setting parameter langevinTemp to 90
TCL: Running for 100000 steps
ETITLE: TS BOND ANGLE DIHED IMPRP ELECT VDW BOUNDARY MISC KINETIC TOTAL TEMP POTENTIAL TOTAL3 TEMPAVG PRESSURE GPRESSURE VOLUME PRESSAVG GPRESSAVG
ENERGY: 200000 1.3446 1.6826 0.7096 0.0000 -13923.4082 2286.9794 0.0000 0.0000 352.0484 -11280.6436 59.8307 -11632.6920 -11279.8318 59.8307 -1132.9473 -1069.4995 28772.8275 -1132.9473 -1069.4995
ENERGY: 300000 1.8889 2.9950 0.7658 0.0000 -13982.9636 2435.4667 0.0000 0.0000 512.7985 -11029.0487 87.1503 -11541.8472 -11027.9964 90.1123 540.5421 601.8531 28640.4132 3.7071 3.6222
TCL: Running 100000 steps at 120 kelvin.
TCL: Setting parameter langevinTemp to 120
TCL: Running for 100000 steps
ETITLE: TS BOND ANGLE DIHED IMPRP ELECT VDW BOUNDARY MISC KINETIC TOTAL TEMP POTENTIAL TOTAL3 TEMPAVG PRESSURE GPRESSURE VOLUME PRESSAVG GPRESSAVG
ENERGY: 300000 1.8889 2.9950 0.7658 0.0000 -13982.9636 2435.4667 0.0000 0.0000 512.5402 -11029.3070 87.1064 -11541.8472 -11028.3502 87.1064 540.4263 601.7082 28640.4132 540.4263 601.7082
ENERGY: 400000 2.6533 3.3707 1.6759 0.0000 -13823.4211 2408.2707 0.0000 0.0000 717.7111 -10689.7394 121.9752 -11407.4505 -10687.7690 120.0009 1019.4744 1079.0043 28462.3599 4.3393 4.3306
TCL: Running 100000 steps at 150 kelvin.
TCL: Setting parameter langevinTemp to 150
TCL: Running for 100000 steps
ETITLE: TS BOND ANGLE DIHED IMPRP ELECT VDW BOUNDARY MISC KINETIC TOTAL TEMP POTENTIAL TOTAL3 TEMPAVG PRESSURE GPRESSURE VOLUME PRESSAVG GPRESSAVG
ENERGY: 400000 2.6533 3.3707 1.6759 0.0000 -13823.4211 2408.2707 0.0000 0.0000 717.3650 -10690.0855 121.9164 -11407.4505 -10688.7067 121.9164 1033.3350 1078.6726 28462.3599 1033.3350 1078.6726
ENERGY: 500000 2.6573 3.2846 2.9619 0.0000 -13435.3311 2177.4061 0.0000 0.0000 890.4581 -10358.5631 151.3336 -11249.0212 -10356.2465 150.2507 -621.3033 -522.3153 28767.6645 5.1531 5.1224
TCL: Running 100000 steps at 180 kelvin.
TCL: Setting parameter langevinTemp to 180
TCL: Running for 100000 steps
ETITLE: TS BOND ANGLE DIHED IMPRP ELECT VDW BOUNDARY MISC KINETIC TOTAL TEMP POTENTIAL TOTAL3 TEMPAVG PRESSURE GPRESSURE VOLUME PRESSAVG GPRESSAVG
ENERGY: 500000 2.6573 3.2846 2.9619 0.0000 -13435.3311 2177.4061 0.0000 0.0000 890.0219 -10358.9993 151.2595 -11249.0212 -10357.1332 151.2595 -575.9500 -522.0061 28767.6645 -575.9500 -522.0061
ENERGY: 600000 2.7140 4.7662 1.8892 0.0000 -13155.5317 2167.2408 0.0000 0.0000 1062.7437 -9916.1779 180.6136 -10978.9215 -9913.3039 180.1439 412.2221 467.5354 28874.5358 3.9664 4.1216
TCL: Running 100000 steps at 210 kelvin.
TCL: Setting parameter langevinTemp to 210
TCL: Running for 100000 steps
ETITLE: TS BOND ANGLE DIHED IMPRP ELECT VDW BOUNDARY MISC KINETIC TOTAL TEMP POTENTIAL TOTAL3 TEMPAVG PRESSURE GPRESSURE VOLUME PRESSAVG GPRESSAVG
ENERGY: 600000 2.7140 4.7662 1.8892 0.0000 -13155.5317 2167.2408 0.0000 0.0000 1062.2288 -9916.6928 180.5261 -10978.9215 -9914.8178 180.5261 410.1308 468.4086 28874.5358 410.1308 468.4086
ENERGY: 700000 1.2700 4.4072 2.4306 0.0000 -12310.3914 1819.6927 0.0000 0.0000 1242.2904 -9240.3005 211.1276 -10482.5908 -9236.5433 209.6698 14.0432 28.7310 28263.0551 3.8140 3.8256
TCL: Running 100000 steps at 240 kelvin.
TCL: Setting parameter langevinTemp to 240
TCL: Running for 100000 steps
ETITLE: TS BOND ANGLE DIHED IMPRP ELECT VDW BOUNDARY MISC KINETIC TOTAL TEMP POTENTIAL TOTAL3 TEMPAVG PRESSURE GPRESSURE VOLUME PRESSAVG GPRESSAVG
ENERGY: 700000 1.2700 4.4072 2.4306 0.0000 -12310.3914 1819.6927 0.0000 0.0000 1241.6676 -9240.9232 211.0218 -10482.5908 -9238.9231 211.0218 -38.3056 30.6218 28263.0551 -38.3056 30.6218
ENERGY: 800000 4.4630 6.6171 2.2089 0.0000 -11688.0573 1646.6576 0.0000 0.0000 1410.9584 -8617.1523 239.7928 -10028.1107 -8613.9926 240.7179 -708.2522 -607.8960 29189.3914 2.0514 2.3299
TCL: Running 100000 steps at 270 kelvin.
TCL: Setting parameter langevinTemp to 270
TCL: Running for 100000 steps
ETITLE: TS BOND ANGLE DIHED IMPRP ELECT VDW BOUNDARY MISC KINETIC TOTAL TEMP POTENTIAL TOTAL3 TEMPAVG PRESSURE GPRESSURE VOLUME PRESSAVG GPRESSAVG
ENERGY: 800000 4.4630 6.6171 2.2089 0.0000 -11688.0573 1646.6576 0.0000 0.0000 1410.2503 -8617.8603 239.6725 -10028.1107 -8615.5464 239.6725 -702.7105 -608.2752 29189.3914 -702.7105 -608.2752
ENERGY: 900000 2.4428 6.3322 5.4970 0.0000 -11206.9730 1578.6504 0.0000 0.0000 1585.2049 -8028.8457 269.4061 -9614.0506 -8027.8158 269.8261 652.5455 755.2090 28868.3004 2.8073 3.0290
TCL: Running 1000000 steps at 300 kelvin.
TCL: Setting parameter langevinTemp to 300
TCL: Running for 1000000 steps
ETITLE: TS BOND ANGLE DIHED IMPRP ELECT VDW BOUNDARY MISC KINETIC TOTAL TEMP POTENTIAL TOTAL3 TEMPAVG PRESSURE GPRESSURE VOLUME PRESSAVG GPRESSAVG
ENERGY: 900000 2.4428 6.3322 5.4970 0.0000 -11206.9730 1578.6504 0.0000 0.0000 1584.4364 -8029.6142 269.2755 -9614.0506 -8026.5738 269.2755 660.8879 754.7016 28868.3004 660.8879 754.7016
ENERGY: 1100000 3.1238 6.2167 9.0950 0.0000 -10766.4634 1453.7715 0.0000 0.0000 1816.3041 -7477.9522 308.6815 -9294.2563 -7473.2421 299.7669 -47.7785 21.6979 30260.7147 1.9713 1.8804
ENERGY: 1300000 4.0122 9.0099 3.3741 0.0000 -10495.2847 1329.6198 0.0000 0.0000 1776.0330 -7373.2356 301.8374 -9149.2686 -7368.4050 300.2497 -717.2996 -622.7982 30470.1693 2.0232 2.0659
ENERGY: 1500000 5.6340 5.5516 6.0831 0.0000 -10636.8986 1456.4969 0.0000 0.0000 1756.1863 -7406.9468 298.4644 -9163.1330 -7403.8425 300.8748 234.1372 265.7385 30811.7610 4.2100 4.3147
ENERGY: 1700000 7.5685 7.0182 5.2542 0.0000 -10553.0383 1345.3084 0.0000 0.0000 1724.7118 -7463.1772 293.1153 -9187.8890 -7459.5329 299.8819 -813.6106 -801.3965 30699.4073 3.4877 3.5593
ENERGY: 1900000 6.2887 4.6190 2.4742 0.0000 -10639.8269 1424.6432 0.0000 0.0000 1793.9410 -7407.8609 304.8809 -9201.8019 -7405.0403 300.2537 -78.9424 -29.2794 30447.9666 3.5561 3.6759
TCL: Exiting due to exit command.
