Info: SIMULATION PARAMETERS:
Info: TIMESTEP               2
Info: NUMBER OF STEPS        0
Info: STEPS PER CYCLE        10
Info: PERIODIC CELL BASIS 1  36.281 0 0
Info: PERIODIC CELL BASIS 2  0 34.1 0
Info: PERIODIC CELL BASIS 3  0 0 36.199
Info: PERIODIC CELL CENTER   0 0 0
Info: WRAPPING WATERS AROUND PERIODIC BOUNDARIES ON OUTPUT.
Info: WRAPPING ALL CLUSTERS AROUND PERIODIC BOUNDARIES ON OUTPUT.
Info: FIRST LDB TIMESTEP     50
Info: LAST LDB TIMESTEP     -1
Info: HOM BACKGROUND SCALING 1
Info: PME BACKGROUND SCALING 1
Info: MIN ATOMS PER PATCH    40
Info: EMPTY PATCH LOAD       40 ATOMS
Info: INITIAL TEMPERATURE    300
Info: CENTER OF MASS MOVING INITIALLY? NO
Info: DIELECTRIC             1
Info: EXCLUDE                SCALED ONE-FOUR
Info: 1-4 ELECTROSTATICS SCALED BY 0.833333
Info: MODIFIED 1-4 VDW PARAMETERS WILL BE USED
Info: DCD FILENAME           mobley_2681549_equil.dcd
Info: DCD FREQUENCY          100000
Info: DCD FIRST STEP         100000
Info: DCD FILE WILL CONTAIN UNIT CELL DATA
Info: XST FILENAME           mobley_2681549_equil.xst
Info: XST FREQUENCY          100000
Info: NO VELOCITY DCD OUTPUT
Info: NO FORCE DCD OUTPUT
Info: OUTPUT FILENAME        mobley_2681549_equil
Info: BINARY OUTPUT FILES WILL BE USED
Info: RESTART FILENAME       mobley_2681549_equil.restart
Info: RESTART FREQUENCY      100000
Info: BINARY RESTART FILES WILL BE USED
Info: CUTOFF                 9
Info: PAIRLIST DISTANCE      11
Info: PAIRLIST SHRINK RATE   0.01
Info: PAIRLIST GROW RATE     0.01
Info: PAIRLIST TRIGGER       0.3
Info: PAIRLISTS PER CYCLE    2
Info: PAIRLISTS ENABLED
Info: MARGIN                 8
Info: HYDROGEN GROUP CUTOFF  2.5
Info: PATCH DIMENSION        21.5
Info: ENERGY OUTPUT STEPS    100000
Info: ENERGY EVALUATION STEPS    100000
Info: OUTPUT ENERGY PRECISION 4
Info: CROSSTERM ENERGY INCLUDED IN DIHEDRAL
Info: TIMING OUTPUT STEPS    1000000
Info: PRESSURE OUTPUT STEPS  100000
Info: LANGEVIN DYNAMICS ACTIVE
Info: LANGEVIN TEMPERATURE   30
Info: LANGEVIN USING BBK INTEGRATOR
Info: LANGEVIN DAMPING COEFFICIENT IS 1 INVERSE PS
Info: LANGEVIN DYNAMICS APPLIED TO HYDROGENS
Info: LANGEVIN PISTON PRESSURE CONTROL ACTIVE
Info:        TARGET PRESSURE IS 1.01325 BAR
Info:     OSCILLATION PERIOD IS 50 FS
Info:             DECAY TIME IS 25 FS
Info:     PISTON TEMPERATURE IS 300 K
Info:       PRESSURE CONTROL IS GROUP-BASED
Info:    INITIAL STRAIN RATE IS 0 0 0
Info:       CELL FLUCTUATION IS ISOTROPIC
Info: PARTICLE MESH EWALD (PME) ACTIVE
Info: PME TOLERANCE               1e-06
Info: PME EWALD COEFFICIENT       0.348832
Info: PME INTERPOLATION ORDER     4
Info: PME GRID DIMENSIONS         40 36 40
Info: PME MAXIMUM GRID SPACING    1
Info: FULL ELECTROSTATIC EVALUATION FREQUENCY      2
Info: USING VERLET I (r-RESPA) MTS SCHEME.
Info: C1 SPLITTING OF LONG RANGE ELECTROSTATICS
Info: PLACING ATOMS IN PATCHES BY HYDROGEN GROUPS
Info: RIGID BONDS TO HYDROGEN : ALL
Info:         ERROR TOLERANCE : 1e-08
Info:          MAX ITERATIONS : 100
Info: RIGID WATER USING SETTLE ALGORITHM
Info: RANDOM NUMBER SEED     1743162660
Info: USE HYDROGEN BONDS?    NO
Info: Using AMBER format force field!
Info: AMBER PARM FILE        mobley_2681549.prmtop
Info: COORDINATE PDB         mobley_2681549.pdb
Info: Exclusions will be read from PARM file!
Info: SCNB (VDW SCALING)     2
Info: USING ARITHMETIC MEAN TO COMBINE L-J SIGMA PARAMETERS
Info: BINARY COORDINATES     mobley_2681549_min.coor
Info: SUMMARY OF PARAMETERS:
Info: 5 BONDS
Info: 3 ANGLES
Info:   3 HARMONIC
Info:   0 COSINE-BASED
Info: 2 DIHEDRAL
Info: 0 IMPROPER
Info: 0 CROSSTERM
Info: 0 VDW
Info: 15 VDW_PAIRS
Info: 0 NBTHOLE_PAIRS
Info: STRUCTURE SUMMARY:
Info: 2991 ATOMS
Info: 2991 BONDS
Info: 18 ANGLES
Info: 30 DIHEDRALS
Info: 0 IMPROPERS
Info: 0 CROSSTERMS
Info: 3030 EXCLUSIONS
Info: 2982 RIGID BONDS
Info: 5991 DEGREES OF FREEDOM
Info: 1002 HYDROGEN GROUPS
Info: 3 ATOMS IN LARGEST HYDROGEN GROUP
Info: 1002 MIGRATION GROUPS
Info: 3 ATOMS IN LARGEST MIGRATION GROUP
Info: TOTAL MASS = 18071.3 amu
Info: TOTAL CHARGE = 0.000199992 e
Info: MASS DENSITY = 0.670068 g/cm^3
Info: ATOM DENSITY = 0.0667861 atoms/A^3
Info: ADDED 0 IMPLICIT EXCLUSIONS
Info: NONBONDED TABLE R-SQUARED SPACING: 0.0625
Info: NONBONDED TABLE SIZE: 705 POINTS
Info: REMOVING COM VELOCITY -0.163996 0.070418 -0.0420847
TCL: Running for 100000 steps
ETITLE: TS BOND ANGLE DIHED IMPRP ELECT VDW BOUNDARY MISC KINETIC TOTAL TEMP POTENTIAL TOTAL3 TEMPAVG PRESSURE GPRESSURE VOLUME PRESSAVG GPRESSAVG
ENERGY: 0 0.1145 0.0418 0.0080 0.0000 -13910.6120 2458.3401 0.0000 0.0000 1796.2227 -9655.8849 301.7528 -11452.1076 -9655.5420 301.7528 558.5289 595.9182 44784.7548 558.5289 595.9182
ENERGY: 100000 0.3771 0.5797 0.3507 0.0000 -14318.9236 2446.1196 0.0000 0.0000 177.7159 -11693.7806 29.8550 -11871.4965 -11693.4347 30.8487 -579.1859 -532.2164 30215.6002 4.9087 4.9214
TCL: Running 100000 steps at 60 kelvin.
TCL: Setting parameter langevinTemp to 60
TCL: Running for 100000 steps
ETITLE: TS BOND ANGLE DIHED IMPRP ELECT VDW BOUNDARY MISC KINETIC TOTAL TEMP POTENTIAL TOTAL3 TEMPAVG PRESSURE GPRESSURE VOLUME PRESSAVG GPRESSAVG
ENERGY: 100000 0.3771 0.5797 0.3507 0.0000 -14318.9236 2446.1196 0.0000 0.0000 177.6254 -11693.8711 29.8398 -11871.4965 -11693.3726 29.8398 -591.7010 -532.3563 30215.6002 -591.7010 -532.3563
ENERGY: 200000 0.8753 0.8567 0.5105 0.0000 -14313.5413 2489.0370 0.0000 0.0000 353.1849 -11469.0768 59.3326 -11822.2618 -11468.1794 59.9733 -110.3685 -45.4673 29860.1209 4.2362 4.1864
TCL: Running 100000 steps at 90 kelvin.
TCL: Setting parameter langevinTemp to 90
TCL: Running for 100000 steps
ETITLE: TS BOND ANGLE DIHED IMPRP ELECT VDW BOUNDARY MISC KINETIC TOTAL TEMP POTENTIAL TOTAL3 TEMPAVG PRESSURE GPRESSURE VOLUME PRESSAVG GPRESSAVG
ENERGY: 200000 0.8753 0.8567 0.5105 0.0000 -14313.5413 2489.0370 0.0000 0.0000 353.0103 -11469.2515 59.3032 -11822.2618 -11468.5644 59.3032 -97.6093 -45.4127 29860.1209 -97.6093 -45.4127
ENERGY: 300000 0.7509 1.1099 0.8396 0.0000 -14305.0943 2581.5920 0.0000 0.0000 527.8841 -11192.9177 88.6808 -11720.8019 -11192.3014 89.7797 1145.9413 1188.7510 29426.2730 4.7151 4.7675
TCL: Running 100000 steps at 120 kelvin.
TCL: Setting parameter langevinTemp to 120
TCL: Running for 100000 steps
ETITLE: TS BOND ANGLE DIHED IMPRP ELECT VDW BOUNDARY MISC KINETIC TOTAL TEMP POTENTIAL TOTAL3 TEMPAVG PRESSURE GPRESSURE VOLUME PRESSAVG GPRESSAVG
ENERGY: 300000 0.7509 1.1099 0.8396 0.0000 -14305.0943 2581.5920 0.0000 0.0000 527.6181 -11193.1838 88.6361 -11720.8019 -11192.1781 88.6361 1130.0632 1188.5696 29426.2730 1130.0632 1188.5696
ENERGY: 400000 1.7903 1.0517 1.3316 0.0000 -14000.2896 2376.9981 0.0000 0.0000 728.1304 -10890.9875 122.3208 -11619.1179 -10889.0223 119.8658 -159.2639 -79.4443 29436.7841 3.0201 2.9965
TCL: Running 100000 steps at 150 kelvin.
TCL: Setting parameter langevinTemp to 150
TCL: Running for 100000 steps
ETITLE: TS BOND ANGLE DIHED IMPRP ELECT VDW BOUNDARY MISC KINETIC TOTAL TEMP POTENTIAL TOTAL3 TEMPAVG PRESSURE GPRESSURE VOLUME PRESSAVG GPRESSAVG
ENERGY: 400000 1.7903 1.0517 1.3316 0.0000 -14000.2896 2376.9981 0.0000 0.0000 727.7653 -10891.3526 122.2594 -11619.1179 -10889.5227 122.2594 -136.2710 -78.6935 29436.7841 -136.2710 -78.6935
ENERGY: 500000 1.3096 0.6170 1.6649 0.0000 -13760.5753 2286.2049 0.0000 0.0000 915.4911 -10555.2878 153.7961 -11470.7789 -10553.5245 150.0477 -442.9798 -372.9278 29730.8172 3.9923 3.9934
TCL: Running 100000 steps at 180 kelvin.
TCL: Setting parameter langevinTemp to 180
TCL: Running for 100000 steps
ETITLE: TS BOND ANGLE DIHED IMPRP ELECT VDW BOUNDARY MISC KINETIC TOTAL TEMP POTENTIAL TOTAL3 TEMPAVG PRESSURE GPRESSURE VOLUME PRESSAVG GPRESSAVG
ENERGY: 500000 1.3096 0.6170 1.6649 0.0000 -13760.5753 2286.2049 0.0000 0.0000 915.0595 -10555.7194 153.7236 -11470.7789 -10554.1377 153.7236 -427.8826 -373.8409 29730.8172 -427.8826 -373.8409
ENERGY: 600000 1.2750 1.1359 1.4061 0.0000 -13270.9909 2128.4065 0.0000 0.0000 1063.7385 -10075.0289 178.7006 -11138.7673 -10073.2777 179.7351 -316.4060 -187.4856 29520.6462 4.1449 4.1325
TCL: Running 100000 steps at 210 kelvin.
TCL: Setting parameter langevinTemp to 210
TCL: Running for 100000 steps
ETITLE: TS BOND ANGLE DIHED IMPRP ELECT VDW BOUNDARY MISC KINETIC TOTAL TEMP POTENTIAL TOTAL3 TEMPAVG PRESSURE GPRESSURE VOLUME PRESSAVG GPRESSAVG
ENERGY: 600000 1.2750 1.1359 1.4061 0.0000 -13270.9909 2128.4065 0.0000 0.0000 1063.1936 -10075.5737 178.6090 -11138.7673 -10073.1994 178.6090 -250.1418 -187.3764 29520.6462 -250.1418 -187.3764
ENERGY: 700000 2.4036 1.6911 1.9189 0.0000 -12557.9898 1895.0979 0.0000 0.0000 1287.6273 -9369.2510 216.3123 -10656.8783 -9365.7835 210.0223 -240.3565 -206.1636 29233.1192 2.9905 3.1358
TCL: Running 100000 steps at 240 kelvin.
TCL: Setting parameter langevinTemp to 240
TCL: Running for 100000 steps
ETITLE: TS BOND ANGLE DIHED IMPRP ELECT VDW BOUNDARY MISC KINETIC TOTAL TEMP POTENTIAL TOTAL3 TEMPAVG PRESSURE GPRESSURE VOLUME PRESSAVG GPRESSAVG
ENERGY: 700000 2.4036 1.6911 1.9189 0.0000 -12557.9898 1895.0979 0.0000 0.0000 1287.0113 -9369.8670 216.2088 -10656.8783 -9367.4525 216.2088 -293.1063 -206.1638 29233.1192 -293.1063 -206.1638
ENERGY: 800000 2.1093 4.3091 1.4628 0.0000 -11923.1431 1682.7606 0.0000 0.0000 1420.6069 -8811.8946 238.6519 -10232.5015 -8809.9233 239.7606 -525.6210 -437.9924 29627.3475 4.5719 4.5267
TCL: Running 100000 steps at 270 kelvin.
TCL: Setting parameter langevinTemp to 270
TCL: Running for 100000 steps
ETITLE: TS BOND ANGLE DIHED IMPRP ELECT VDW BOUNDARY MISC KINETIC TOTAL TEMP POTENTIAL TOTAL3 TEMPAVG PRESSURE GPRESSURE VOLUME PRESSAVG GPRESSAVG
ENERGY: 800000 2.1093 4.3091 1.4628 0.0000 -11923.1431 1682.7606 0.0000 0.0000 1419.9083 -8812.5932 238.5346 -10232.5015 -8810.3866 238.5346 -523.2881 -438.8646 29627.3475 -523.2881 -438.8646
ENERGY: 900000 1.4783 3.0599 2.4886 0.0000 -11375.7469 1579.4641 0.0000 0.0000 1618.1328 -8171.1231 271.8349 -9789.2559 -8164.4267 269.9016 -4.3355 108.9756 29854.8728 4.3860 4.3322
TCL: Running 1000000 steps at 300 kelvin.
TCL: Setting parameter langevinTemp to 300
TCL: Running for 1000000 steps
ETITLE: TS BOND ANGLE DIHED IMPRP ELECT VDW BOUNDARY MISC KINETIC TOTAL TEMP POTENTIAL TOTAL3 TEMPAVG PRESSURE GPRESSURE VOLUME PRESSAVG GPRESSAVG
ENERGY: 900000 1.4783 3.0599 2.4886 0.0000 -11375.7469 1579.4641 0.0000 0.0000 1617.3004 -8171.9556 271.6951 -9789.2559 -8169.7606 271.6951 11.5247 111.5625 29854.8728 11.5247 111.5625
ENERGY: 1100000 2.5675 2.3523 0.8630 0.0000 -10942.9192 1490.6778 0.0000 0.0000 1800.1507 -7646.3078 302.4126 -9446.4585 -7642.8928 300.3499 310.2688 365.8193 30690.3039 2.7264 2.7829
ENERGY: 1300000 2.2625 2.0914 1.2793 0.0000 -10808.3509 1457.9523 0.0000 0.0000 1805.6402 -7539.1252 303.3348 -9344.7653 -7534.6583 300.1320 -7.4455 76.3694 31157.7986 3.3602 3.1615
ENERGY: 1500000 2.8566 2.2561 3.0920 0.0000 -10936.0203 1478.3342 0.0000 0.0000 1773.9974 -7675.4841 298.0191 -9449.4815 -7669.0380 300.0441 -86.9224 -48.2143 30856.2339 4.0588 4.0204
ENERGY: 1700000 3.5326 4.1621 1.7486 0.0000 -10937.9650 1528.3731 0.0000 0.0000 1812.2397 -7587.9088 304.4435 -9400.1485 -7583.7731 300.1537 710.0426 784.7121 30394.9152 3.1108 3.1543
ENERGY: 1900000 5.1495 1.4448 1.7848 0.0000 -10840.6013 1504.7995 0.0000 0.0000 1743.7179 -7583.7048 292.9323 -9327.4227 -7580.2587 299.8381 333.7711 377.7285 31033.9550 3.1361 3.1469
TCL: Exiting due to exit command.
