Info: SIMULATION PARAMETERS:
Info: TIMESTEP               2
Info: NUMBER OF STEPS        0
Info: STEPS PER CYCLE        10
Info: PERIODIC CELL BASIS 1  35.89 0 0
Info: PERIODIC CELL BASIS 2  0 35.779 0
Info: PERIODIC CELL BASIS 3  0 0 34.954
Info: PERIODIC CELL CENTER   0 0 0
Info: WRAPPING WATERS AROUND PERIODIC BOUNDARIES ON OUTPUT.
Info: WRAPPING ALL CLUSTERS AROUND PERIODIC BOUNDARIES ON OUTPUT.
Info: FIRST LDB TIMESTEP     50
Info: LAST LDB TIMESTEP     -1
Info: HOM BACKGROUND SCALING 1
Info: PME BACKGROUND SCALING 1
Info: MIN ATOMS PER PATCH    40
Info: EMPTY PATCH LOAD       40 ATOMS
Info: INITIAL TEMPERATURE    300
Info: CENTER OF MASS MOVING INITIALLY? NO
Info: DIELECTRIC             1
Info: EXCLUDE                SCALED ONE-FOUR
Info: 1-4 ELECTROSTATICS SCALED BY 0.833333
Info: MODIFIED 1-4 VDW PARAMETERS WILL BE USED
Info: DCD FILENAME           mobley_6303022_equil.dcd
Info: DCD FREQUENCY          100000
Info: DCD FIRST STEP         100000
Info: DCD FILE WILL CONTAIN UNIT CELL DATA
Info: XST FILENAME           mobley_6303022_equil.xst
Info: XST FREQUENCY          100000
Info: NO VELOCITY DCD OUTPUT
Info: NO FORCE DCD OUTPUT
Info: OUTPUT FILENAME        mobley_6303022_equil
Info: BINARY OUTPUT FILES WILL BE USED
Info: RESTART FILENAME       mobley_6303022_equil.restart
Info: RESTART FREQUENCY      100000
Info: BINARY RESTART FILES WILL BE USED
Info: CUTOFF                 9
Info: PAIRLIST DISTANCE      11
Info: PAIRLIST SHRINK RATE   0.01
Info: PAIRLIST GROW RATE     0.01
Info: PAIRLIST TRIGGER       0.3
Info: PAIRLISTS PER CYCLE    2
Info: PAIRLISTS ENABLED
Info: MARGIN                 8
Info: HYDROGEN GROUP CUTOFF  2.5
Info: PATCH DIMENSION        21.5
Info: ENERGY OUTPUT STEPS    100000
Info: ENERGY EVALUATION STEPS    100000
Info: OUTPUT ENERGY PRECISION 4
Info: CROSSTERM ENERGY INCLUDED IN DIHEDRAL
Info: TIMING OUTPUT STEPS    1000000
Info: PRESSURE OUTPUT STEPS  100000
Info: LANGEVIN DYNAMICS ACTIVE
Info: LANGEVIN TEMPERATURE   30
Info: LANGEVIN USING BBK INTEGRATOR
Info: LANGEVIN DAMPING COEFFICIENT IS 1 INVERSE PS
Info: LANGEVIN DYNAMICS APPLIED TO HYDROGENS
Info: LANGEVIN PISTON PRESSURE CONTROL ACTIVE
Info:        TARGET PRESSURE IS 1.01325 BAR
Info:     OSCILLATION PERIOD IS 50 FS
Info:             DECAY TIME IS 25 FS
Info:     PISTON TEMPERATURE IS 300 K
Info:       PRESSURE CONTROL IS GROUP-BASED
Info:    INITIAL STRAIN RATE IS 0 0 0
Info:       CELL FLUCTUATION IS ISOTROPIC
Info: PARTICLE MESH EWALD (PME) ACTIVE
Info: PME TOLERANCE               1e-06
Info: PME EWALD COEFFICIENT       0.348832
Info: PME INTERPOLATION ORDER     4
Info: PME GRID DIMENSIONS         36 36 36
Info: PME MAXIMUM GRID SPACING    1
Info: FULL ELECTROSTATIC EVALUATION FREQUENCY      2
Info: USING VERLET I (r-RESPA) MTS SCHEME.
Info: C1 SPLITTING OF LONG RANGE ELECTROSTATICS
Info: PLACING ATOMS IN PATCHES BY HYDROGEN GROUPS
Info: RIGID BONDS TO HYDROGEN : ALL
Info:         ERROR TOLERANCE : 1e-08
Info:          MAX ITERATIONS : 100
Info: RIGID WATER USING SETTLE ALGORITHM
Info: RANDOM NUMBER SEED     1743231604
Info: USE HYDROGEN BONDS?    NO
Info: Using AMBER format force field!
Info: AMBER PARM FILE        mobley_6303022.prmtop
Info: COORDINATE PDB         mobley_6303022.pdb
Info: Exclusions will be read from PARM file!
Info: SCNB (VDW SCALING)     2
Info: USING ARITHMETIC MEAN TO COMBINE L-J SIGMA PARAMETERS
Info: BINARY COORDINATES     mobley_6303022_min.coor
Info: SUMMARY OF PARAMETERS:
Info: 9 BONDS
Info: 11 ANGLES
Info:   11 HARMONIC
Info:   0 COSINE-BASED
Info: 6 DIHEDRAL
Info: 0 IMPROPER
Info: 0 CROSSTERM
Info: 0 VDW
Info: 36 VDW_PAIRS
Info: 0 NBTHOLE_PAIRS
Info: STRUCTURE SUMMARY:
Info: 2951 ATOMS
Info: 2951 BONDS
Info: 28 ANGLES
Info: 40 DIHEDRALS
Info: 0 IMPROPERS
Info: 0 CROSSTERMS
Info: 3011 EXCLUSIONS
Info: 2943 RIGID BONDS
Info: 5910 DEGREES OF FREEDOM
Info: 986 HYDROGEN GROUPS
Info: 4 ATOMS IN LARGEST HYDROGEN GROUP
Info: 986 MIGRATION GROUPS
Info: 4 ATOMS IN LARGEST MIGRATION GROUP
Info: TOTAL MASS = 17726.8 amu
Info: TOTAL CHARGE = -7.45058e-09 e
Info: MASS DENSITY = 0.65583 g/cm^3
Info: ATOM DENSITY = 0.0657462 atoms/A^3
Info: ADDED 0 IMPLICIT EXCLUSIONS
Info: NONBONDED TABLE R-SQUARED SPACING: 0.0625
Info: NONBONDED TABLE SIZE: 705 POINTS
Info: REMOVING COM VELOCITY 0.0476891 -0.0673513 -0.165981
TCL: Running for 100000 steps
ETITLE: TS BOND ANGLE DIHED IMPRP ELECT VDW BOUNDARY MISC KINETIC TOTAL TEMP POTENTIAL TOTAL3 TEMPAVG PRESSURE GPRESSURE VOLUME PRESSAVG GPRESSAVG
ENERGY: 0 0.1498 0.2953 0.0755 0.0000 -13636.4358 2417.6068 0.0000 0.0000 1712.1001 -9506.2083 291.5628 -11218.3084 -9505.8807 291.5628 420.9136 454.4126 44884.7219 420.9136 454.4126
ENERGY: 100000 0.1431 1.1091 0.2332 0.0000 -14273.0020 2515.8603 0.0000 0.0000 176.2406 -11579.4157 30.0130 -11755.6563 -11579.1101 30.8911 261.2254 342.8817 28734.5189 5.1037 5.1617
TCL: Running 100000 steps at 60 kelvin.
TCL: Setting parameter langevinTemp to 60
TCL: Running for 100000 steps
ETITLE: TS BOND ANGLE DIHED IMPRP ELECT VDW BOUNDARY MISC KINETIC TOTAL TEMP POTENTIAL TOTAL3 TEMPAVG PRESSURE GPRESSURE VOLUME PRESSAVG GPRESSAVG
ENERGY: 100000 0.1431 1.1091 0.2332 0.0000 -14273.0020 2515.8603 0.0000 0.0000 176.1544 -11579.5019 29.9983 -11755.6563 -11579.1925 29.9983 267.1347 342.8611 28734.5189 267.1347 342.8611
ENERGY: 200000 0.3919 0.8167 0.4031 0.0000 -14139.6262 2428.3836 0.0000 0.0000 351.3348 -11358.2962 59.8307 -11709.6310 -11357.5403 60.0474 -286.6626 -245.4071 28907.7645 3.7059 3.6941
TCL: Running 100000 steps at 90 kelvin.
TCL: Setting parameter langevinTemp to 90
TCL: Running for 100000 steps
ETITLE: TS BOND ANGLE DIHED IMPRP ELECT VDW BOUNDARY MISC KINETIC TOTAL TEMP POTENTIAL TOTAL3 TEMPAVG PRESSURE GPRESSURE VOLUME PRESSAVG GPRESSAVG
ENERGY: 200000 0.3919 0.8167 0.4031 0.0000 -14139.6262 2428.3836 0.0000 0.0000 351.1639 -11358.4671 59.8016 -11709.6310 -11357.6796 59.8016 -290.6019 -245.2855 28907.7645 -290.6019 -245.2855
ENERGY: 300000 0.6576 2.2989 0.4439 0.0000 -14014.9671 2411.8831 0.0000 0.0000 526.0755 -11073.6081 89.5882 -11599.6836 -11072.2047 90.1893 226.9289 301.9106 28653.8548 2.9894 2.9464
TCL: Running 100000 steps at 120 kelvin.
TCL: Setting parameter langevinTemp to 120
TCL: Running for 100000 steps
ETITLE: TS BOND ANGLE DIHED IMPRP ELECT VDW BOUNDARY MISC KINETIC TOTAL TEMP POTENTIAL TOTAL3 TEMPAVG PRESSURE GPRESSURE VOLUME PRESSAVG GPRESSAVG
ENERGY: 300000 0.6576 2.2989 0.4439 0.0000 -14014.9671 2411.8831 0.0000 0.0000 525.8103 -11073.8733 89.5431 -11599.6836 -11072.5319 89.5431 249.9692 301.6263 28653.8548 249.9692 301.6263
ENERGY: 400000 1.5503 2.2323 1.4090 0.0000 -13745.5090 2288.9745 0.0000 0.0000 701.1324 -10750.2105 119.3996 -11451.3429 -10748.6270 119.9307 -362.3933 -296.5617 28798.4300 4.2101 4.3005
TCL: Running 100000 steps at 150 kelvin.
TCL: Setting parameter langevinTemp to 150
TCL: Running for 100000 steps
ETITLE: TS BOND ANGLE DIHED IMPRP ELECT VDW BOUNDARY MISC KINETIC TOTAL TEMP POTENTIAL TOTAL3 TEMPAVG PRESSURE GPRESSURE VOLUME PRESSAVG GPRESSAVG
ENERGY: 400000 1.5503 2.2323 1.4090 0.0000 -13745.5090 2288.9745 0.0000 0.0000 700.7928 -10750.5502 119.3418 -11451.3429 -10749.1006 119.3418 -339.7743 -296.3928 28798.4300 -339.7743 -296.3928
ENERGY: 500000 2.8452 3.7009 1.8357 0.0000 -13480.8331 2172.9196 0.0000 0.0000 878.4372 -10421.0943 149.5938 -11299.5316 -10419.2610 150.1316 -1067.4279 -1052.9832 29356.2987 4.3070 4.3627
TCL: Running 100000 steps at 180 kelvin.
TCL: Setting parameter langevinTemp to 180
TCL: Running for 100000 steps
ETITLE: TS BOND ANGLE DIHED IMPRP ELECT VDW BOUNDARY MISC KINETIC TOTAL TEMP POTENTIAL TOTAL3 TEMPAVG PRESSURE GPRESSURE VOLUME PRESSAVG GPRESSAVG
ENERGY: 500000 2.8452 3.7009 1.8357 0.0000 -13480.8331 2172.9196 0.0000 0.0000 878.0024 -10421.5291 149.5198 -11299.5316 -10419.6641 149.5198 -1108.7443 -1053.0289 29356.2987 -1108.7443 -1053.0289
ENERGY: 600000 1.9656 4.0849 1.2721 0.0000 -13077.1770 2091.4706 0.0000 0.0000 1040.5647 -9937.8190 177.2034 -10978.3837 -9936.3447 179.9788 -208.8996 -96.9693 28919.9721 3.1685 3.2415
TCL: Running 100000 steps at 210 kelvin.
TCL: Setting parameter langevinTemp to 210
TCL: Running for 100000 steps
ETITLE: TS BOND ANGLE DIHED IMPRP ELECT VDW BOUNDARY MISC KINETIC TOTAL TEMP POTENTIAL TOTAL3 TEMPAVG PRESSURE GPRESSURE VOLUME PRESSAVG GPRESSAVG
ENERGY: 600000 1.9656 4.0849 1.2721 0.0000 -13077.1770 2091.4706 0.0000 0.0000 1040.0529 -9938.3309 177.1162 -10978.3837 -9935.9588 177.1162 -161.5354 -97.6990 28919.9721 -161.5354 -97.6990
ENERGY: 700000 1.7975 5.1308 4.1432 0.0000 -12479.2964 1925.2700 0.0000 0.0000 1220.9320 -9322.0229 207.9191 -10542.9549 -9320.2251 209.7952 61.4915 106.4474 28789.1142 1.9954 2.1012
TCL: Running 100000 steps at 240 kelvin.
TCL: Setting parameter langevinTemp to 240
TCL: Running for 100000 steps
ETITLE: TS BOND ANGLE DIHED IMPRP ELECT VDW BOUNDARY MISC KINETIC TOTAL TEMP POTENTIAL TOTAL3 TEMPAVG PRESSURE GPRESSURE VOLUME PRESSAVG GPRESSAVG
ENERGY: 700000 1.7975 5.1308 4.1432 0.0000 -12479.2964 1925.2700 0.0000 0.0000 1220.3143 -9322.6405 207.8139 -10542.9549 -9320.1870 207.8139 33.6625 104.9047 28789.1142 33.6625 104.9047
ENERGY: 800000 2.0630 5.5157 2.6893 0.0000 -11836.2153 1748.6501 0.0000 0.0000 1391.1558 -8686.1414 236.9074 -10077.2972 -8680.9664 240.4499 -84.1472 -70.2896 29537.2840 2.4639 2.4278
TCL: Running 100000 steps at 270 kelvin.
TCL: Setting parameter langevinTemp to 270
TCL: Running for 100000 steps
ETITLE: TS BOND ANGLE DIHED IMPRP ELECT VDW BOUNDARY MISC KINETIC TOTAL TEMP POTENTIAL TOTAL3 TEMPAVG PRESSURE GPRESSURE VOLUME PRESSAVG GPRESSAVG
ENERGY: 800000 2.0630 5.5157 2.6893 0.0000 -11836.2153 1748.6501 0.0000 0.0000 1390.4837 -8686.8135 236.7930 -10077.2972 -8684.2352 236.7930 -162.3001 -70.2282 29537.2840 -162.3001 -70.2282
ENERGY: 900000 2.2124 4.6968 1.6842 0.0000 -11256.3354 1567.3820 0.0000 0.0000 1590.7368 -8089.6232 270.8951 -9680.3600 -8086.6300 269.9060 -118.8743 -83.9136 29716.2564 4.5685 4.4375
TCL: Running 1000000 steps at 300 kelvin.
TCL: Setting parameter langevinTemp to 300
TCL: Running for 1000000 steps
ETITLE: TS BOND ANGLE DIHED IMPRP ELECT VDW BOUNDARY MISC KINETIC TOTAL TEMP POTENTIAL TOTAL3 TEMPAVG PRESSURE GPRESSURE VOLUME PRESSAVG GPRESSAVG
ENERGY: 900000 2.2124 4.6968 1.6842 0.0000 -11256.3354 1567.3820 0.0000 0.0000 1589.9903 -8090.3697 270.7680 -9680.3600 -8088.6780 270.7680 -169.3850 -83.2653 29716.2564 -169.3850 -83.2653
ENERGY: 1100000 2.0498 5.9052 3.5570 0.0000 -10707.6009 1428.0009 0.0000 0.0000 1815.4662 -7452.6217 309.1655 -9268.0880 -7447.9786 300.2223 -74.5576 7.5150 30423.1774 4.0649 4.0677
ENERGY: 1300000 2.7740 3.0767 5.6213 0.0000 -10699.9632 1433.1713 0.0000 0.0000 1762.9071 -7492.4128 300.2150 -9255.3199 -7488.5340 299.8301 -148.5181 -53.5574 30621.8512 2.6564 2.8038
ENERGY: 1500000 1.7317 6.8210 2.4377 0.0000 -11082.7530 1689.7187 0.0000 0.0000 1710.1203 -7671.9236 291.2256 -9382.0439 -7669.6429 299.0018 1603.4574 1689.6886 30012.0869 2.1925 2.0556
ENERGY: 1700000 2.8929 4.7618 3.6886 0.0000 -10779.9814 1397.0928 0.0000 0.0000 1781.3557 -7590.1896 303.3567 -9371.5453 -7585.7622 300.5498 -131.7657 -175.9358 29820.8164 3.5303 3.6204
ENERGY: 1900000 3.1590 4.1720 1.3979 0.0000 -10734.8955 1454.1518 0.0000 0.0000 1811.8568 -7460.1581 308.5509 -9272.0150 -7456.7482 300.5314 46.3207 144.4166 30560.0840 3.3183 3.3820
TCL: Exiting due to exit command.
