Info: SIMULATION PARAMETERS:
Info: TIMESTEP               2
Info: NUMBER OF STEPS        0
Info: STEPS PER CYCLE        10
Info: PERIODIC CELL BASIS 1  35.01 0 0
Info: PERIODIC CELL BASIS 2  0 35.411 0
Info: PERIODIC CELL BASIS 3  0 0 35.723
Info: PERIODIC CELL CENTER   0 0 0
Info: WRAPPING WATERS AROUND PERIODIC BOUNDARIES ON OUTPUT.
Info: WRAPPING ALL CLUSTERS AROUND PERIODIC BOUNDARIES ON OUTPUT.
Info: FIRST LDB TIMESTEP     50
Info: LAST LDB TIMESTEP     -1
Info: HOM BACKGROUND SCALING 1
Info: PME BACKGROUND SCALING 1
Info: MIN ATOMS PER PATCH    40
Info: EMPTY PATCH LOAD       40 ATOMS
Info: INITIAL TEMPERATURE    300
Info: CENTER OF MASS MOVING INITIALLY? NO
Info: DIELECTRIC             1
Info: EXCLUDE                SCALED ONE-FOUR
Info: 1-4 ELECTROSTATICS SCALED BY 0.833333
Info: MODIFIED 1-4 VDW PARAMETERS WILL BE USED
Info: DCD FILENAME           mobley_1563176_equil.dcd
Info: DCD FREQUENCY          100000
Info: DCD FIRST STEP         100000
Info: DCD FILE WILL CONTAIN UNIT CELL DATA
Info: XST FILENAME           mobley_1563176_equil.xst
Info: XST FREQUENCY          100000
Info: NO VELOCITY DCD OUTPUT
Info: NO FORCE DCD OUTPUT
Info: OUTPUT FILENAME        mobley_1563176_equil
Info: BINARY OUTPUT FILES WILL BE USED
Info: RESTART FILENAME       mobley_1563176_equil.restart
Info: RESTART FREQUENCY      100000
Info: BINARY RESTART FILES WILL BE USED
Info: CUTOFF                 9
Info: PAIRLIST DISTANCE      11
Info: PAIRLIST SHRINK RATE   0.01
Info: PAIRLIST GROW RATE     0.01
Info: PAIRLIST TRIGGER       0.3
Info: PAIRLISTS PER CYCLE    2
Info: PAIRLISTS ENABLED
Info: MARGIN                 8
Info: HYDROGEN GROUP CUTOFF  2.5
Info: PATCH DIMENSION        21.5
Info: ENERGY OUTPUT STEPS    100000
Info: ENERGY EVALUATION STEPS    100000
Info: OUTPUT ENERGY PRECISION 4
Info: CROSSTERM ENERGY INCLUDED IN DIHEDRAL
Info: TIMING OUTPUT STEPS    1000000
Info: PRESSURE OUTPUT STEPS  100000
Info: LANGEVIN DYNAMICS ACTIVE
Info: LANGEVIN TEMPERATURE   30
Info: LANGEVIN USING BBK INTEGRATOR
Info: LANGEVIN DAMPING COEFFICIENT IS 1 INVERSE PS
Info: LANGEVIN DYNAMICS APPLIED TO HYDROGENS
Info: LANGEVIN PISTON PRESSURE CONTROL ACTIVE
Info:        TARGET PRESSURE IS 1.01325 BAR
Info:     OSCILLATION PERIOD IS 50 FS
Info:             DECAY TIME IS 25 FS
Info:     PISTON TEMPERATURE IS 300 K
Info:       PRESSURE CONTROL IS GROUP-BASED
Info:    INITIAL STRAIN RATE IS 0 0 0
Info:       CELL FLUCTUATION IS ISOTROPIC
Info: PARTICLE MESH EWALD (PME) ACTIVE
Info: PME TOLERANCE               1e-06
Info: PME EWALD COEFFICIENT       0.348832
Info: PME INTERPOLATION ORDER     4
Info: PME GRID DIMENSIONS         36 36 36
Info: PME MAXIMUM GRID SPACING    1
Info: FULL ELECTROSTATIC EVALUATION FREQUENCY      2
Info: USING VERLET I (r-RESPA) MTS SCHEME.
Info: C1 SPLITTING OF LONG RANGE ELECTROSTATICS
Info: PLACING ATOMS IN PATCHES BY HYDROGEN GROUPS
Info: RIGID BONDS TO HYDROGEN : ALL
Info:         ERROR TOLERANCE : 1e-08
Info:          MAX ITERATIONS : 100
Info: RIGID WATER USING SETTLE ALGORITHM
Info: RANDOM NUMBER SEED     1743240074
Info: USE HYDROGEN BONDS?    NO
Info: Using AMBER format force field!
Info: AMBER PARM FILE        mobley_1563176.prmtop
Info: COORDINATE PDB         mobley_1563176.pdb
Info: Exclusions will be read from PARM file!
Info: SCNB (VDW SCALING)     2
Info: USING ARITHMETIC MEAN TO COMBINE L-J SIGMA PARAMETERS
Info: BINARY COORDINATES     mobley_1563176_min.coor
Info: SUMMARY OF PARAMETERS:
Info: 7 BONDS
Info: 8 ANGLES
Info: 7 DIHEDRAL
Info: 0 IMPROPER
Info: 0 CROSSTERM
Info: 0 VDW
Info: 28 VDW_PAIRS
Info: 0 NBTHOLE_PAIRS
Info: STRUCTURE SUMMARY:
Info: 2973 ATOMS
Info: 2972 BONDS
Info: 25 ANGLES
Info: 32 DIHEDRALS
Info: 0 IMPROPERS
Info: 0 CROSSTERMS
Info: 3027 EXCLUSIONS
Info: 2968 RIGID BONDS
Info: 5951 DEGREES OF FREEDOM
Info: 991 HYDROGEN GROUPS
Info: 4 ATOMS IN LARGEST HYDROGEN GROUP
Info: 991 MIGRATION GROUPS
Info: 4 ATOMS IN LARGEST MIGRATION GROUP
Info: TOTAL MASS = 17854 amu
Info: TOTAL CHARGE = 6.98492e-09 e
Info: MASS DENSITY = 0.669446 g/cm^3
Info: ATOM DENSITY = 0.06713 atoms/A^3
Info: ADDED 0 IMPLICIT EXCLUSIONS
Info: NONBONDED TABLE R-SQUARED SPACING: 0.0625
Info: NONBONDED TABLE SIZE: 705 POINTS
Info: REMOVING COM VELOCITY 0.0394866 0.0561785 0.0988122
TCL: Running for 100000 steps
ETITLE: TS BOND ANGLE DIHED IMPRP ELECT VDW BOUNDARY MISC KINETIC TOTAL TEMP POTENTIAL TOTAL3 TEMPAVG PRESSURE GPRESSURE VOLUME PRESSAVG GPRESSAVG
ENERGY: 0 0.0267 0.1273 0.5053 0.0000 -13763.0686 2437.4907 0.0000 0.0000 1748.1380 -9576.7806 295.6488 -11324.9186 -9576.4561 295.6488 509.3547 542.4656 44287.2002 509.3547 542.4656
ENERGY: 100000 0.7970 0.5484 0.6706 0.0000 -14124.8905 2341.3342 0.0000 0.0000 175.9325 -11605.6078 29.7541 -11781.5403 -11604.8253 30.9473 -1181.9667 -1144.4211 29235.2477 4.5199 4.5044
TCL: Running 100000 steps at 60 kelvin.
TCL: Setting parameter langevinTemp to 60
TCL: Running for 100000 steps
ETITLE: TS BOND ANGLE DIHED IMPRP ELECT VDW BOUNDARY MISC KINETIC TOTAL TEMP POTENTIAL TOTAL3 TEMPAVG PRESSURE GPRESSURE VOLUME PRESSAVG GPRESSAVG
ENERGY: 100000 0.7970 0.5484 0.6706 0.0000 -14124.8905 2341.3342 0.0000 0.0000 175.8449 -11605.6954 29.7393 -11781.5403 -11605.2223 29.7393 -1184.1839 -1144.2097 29235.2477 -1184.1839 -1144.2097
ENERGY: 200000 0.2935 1.0805 1.0124 0.0000 -14060.1594 2288.1505 0.0000 0.0000 361.9166 -11407.7059 61.2081 -11769.6226 -11406.4385 59.9583 -1379.5512 -1310.4813 28949.2056 5.4122 5.3536
TCL: Running 100000 steps at 90 kelvin.
TCL: Setting parameter langevinTemp to 90
TCL: Running for 100000 steps
ETITLE: TS BOND ANGLE DIHED IMPRP ELECT VDW BOUNDARY MISC KINETIC TOTAL TEMP POTENTIAL TOTAL3 TEMPAVG PRESSURE GPRESSURE VOLUME PRESSAVG GPRESSAVG
ENERGY: 200000 0.2935 1.0805 1.0124 0.0000 -14060.1594 2288.1505 0.0000 0.0000 361.7284 -11407.8942 61.1763 -11769.6226 -11407.0819 61.1763 -1359.1160 -1310.3105 28949.2056 -1359.1160 -1310.3105
ENERGY: 300000 0.4674 2.6377 0.6183 0.0000 -14084.5572 2414.8191 0.0000 0.0000 540.0987 -11125.9161 91.3426 -11666.0148 -11124.9188 89.9003 204.6042 266.9908 28654.8850 3.8396 3.8402
TCL: Running 100000 steps at 120 kelvin.
TCL: Setting parameter langevinTemp to 120
TCL: Running for 100000 steps
ETITLE: TS BOND ANGLE DIHED IMPRP ELECT VDW BOUNDARY MISC KINETIC TOTAL TEMP POTENTIAL TOTAL3 TEMPAVG PRESSURE GPRESSURE VOLUME PRESSAVG GPRESSAVG
ENERGY: 300000 0.4674 2.6377 0.6183 0.0000 -14084.5572 2414.8191 0.0000 0.0000 539.8345 -11126.1803 91.2980 -11666.0148 -11125.0866 91.2980 196.0728 266.7331 28654.8850 196.0728 266.7331
ENERGY: 400000 1.5430 3.2900 0.8373 0.0000 -13901.9645 2370.6576 0.0000 0.0000 699.9262 -10825.7104 118.3730 -11525.6366 -10825.0529 119.7353 258.8009 306.8607 28752.5592 5.8501 5.9109
TCL: Running 100000 steps at 150 kelvin.
TCL: Setting parameter langevinTemp to 150
TCL: Running for 100000 steps
ETITLE: TS BOND ANGLE DIHED IMPRP ELECT VDW BOUNDARY MISC KINETIC TOTAL TEMP POTENTIAL TOTAL3 TEMPAVG PRESSURE GPRESSURE VOLUME PRESSAVG GPRESSAVG
ENERGY: 400000 1.5430 3.2900 0.8373 0.0000 -13901.9645 2370.6576 0.0000 0.0000 699.5782 -10826.0584 118.3142 -11525.6366 -10824.7586 118.3142 254.8660 306.1902 28752.5592 254.8660 306.1902
ENERGY: 500000 0.2139 3.2120 0.9201 0.0000 -13475.7267 2132.5444 0.0000 0.0000 861.4646 -10477.3716 145.6927 -11338.8362 -10475.8273 149.9799 -1289.4575 -1219.8946 29554.8420 2.8525 2.8947
TCL: Running 100000 steps at 180 kelvin.
TCL: Setting parameter langevinTemp to 180
TCL: Running for 100000 steps
ETITLE: TS BOND ANGLE DIHED IMPRP ELECT VDW BOUNDARY MISC KINETIC TOTAL TEMP POTENTIAL TOTAL3 TEMPAVG PRESSURE GPRESSURE VOLUME PRESSAVG GPRESSAVG
ENERGY: 500000 0.2139 3.2120 0.9201 0.0000 -13475.7267 2132.5444 0.0000 0.0000 861.0359 -10477.8003 145.6202 -11338.8362 -10475.7052 145.6202 -1280.5978 -1222.2605 29554.8420 -1280.5978 -1222.2605
ENERGY: 600000 1.5184 1.9667 0.6902 0.0000 -13082.9582 2086.1425 0.0000 0.0000 1056.1258 -9936.5146 178.6142 -10992.6404 -9933.1917 180.0355 -316.9837 -193.2645 29127.6894 5.0309 5.0487
TCL: Running 100000 steps at 210 kelvin.
TCL: Setting parameter langevinTemp to 210
TCL: Running for 100000 steps
ETITLE: TS BOND ANGLE DIHED IMPRP ELECT VDW BOUNDARY MISC KINETIC TOTAL TEMP POTENTIAL TOTAL3 TEMPAVG PRESSURE GPRESSURE VOLUME PRESSAVG GPRESSAVG
ENERGY: 600000 1.5184 1.9667 0.6902 0.0000 -13082.9582 2086.1425 0.0000 0.0000 1055.5813 -9937.0591 178.5222 -10992.6404 -9935.3240 178.5222 -243.7948 -192.0912 29127.6894 -243.7948 -192.0912
ENERGY: 700000 0.5213 4.1114 1.1277 0.0000 -12492.0263 1855.8183 0.0000 0.0000 1242.9424 -9387.5051 210.2091 -10630.4475 -9383.8396 209.8394 -437.0824 -379.8672 28770.9571 2.6530 2.7184
TCL: Running 100000 steps at 240 kelvin.
TCL: Setting parameter langevinTemp to 240
TCL: Running for 100000 steps
ETITLE: TS BOND ANGLE DIHED IMPRP ELECT VDW BOUNDARY MISC KINETIC TOTAL TEMP POTENTIAL TOTAL3 TEMPAVG PRESSURE GPRESSURE VOLUME PRESSAVG GPRESSAVG
ENERGY: 700000 0.5213 4.1114 1.1277 0.0000 -12492.0263 1855.8183 0.0000 0.0000 1242.3286 -9388.1190 210.1053 -10630.4476 -9385.3428 210.1053 -454.7941 -379.3787 28770.9571 -454.7941 -379.3787
ENERGY: 800000 1.1444 4.2205 1.2394 0.0000 -12039.2365 1867.9576 0.0000 0.0000 1434.0596 -8730.6150 242.5312 -10164.6746 -8729.3804 240.0812 1400.4049 1453.2401 28808.1596 3.3472 3.3542
TCL: Running 100000 steps at 270 kelvin.
TCL: Setting parameter langevinTemp to 270
TCL: Running for 100000 steps
ETITLE: TS BOND ANGLE DIHED IMPRP ELECT VDW BOUNDARY MISC KINETIC TOTAL TEMP POTENTIAL TOTAL3 TEMPAVG PRESSURE GPRESSURE VOLUME PRESSAVG GPRESSAVG
ENERGY: 800000 1.1444 4.2205 1.2394 0.0000 -12039.2365 1867.9576 0.0000 0.0000 1433.3683 -8731.3063 242.4143 -10164.6746 -8729.2400 242.4143 1370.9635 1453.2884 28808.1596 1370.9635 1453.2884
ENERGY: 900000 0.7975 4.0112 0.9884 0.0000 -11140.8372 1446.0615 0.0000 0.0000 1625.5607 -8063.4179 274.9183 -9688.9786 -8059.0996 270.3364 -924.7047 -838.6811 29879.3847 3.2909 3.2968
TCL: Running 1000000 steps at 300 kelvin.
TCL: Setting parameter langevinTemp to 300
TCL: Running for 1000000 steps
ETITLE: TS BOND ANGLE DIHED IMPRP ELECT VDW BOUNDARY MISC KINETIC TOTAL TEMP POTENTIAL TOTAL3 TEMPAVG PRESSURE GPRESSURE VOLUME PRESSAVG GPRESSAVG
ENERGY: 900000 0.7975 4.0112 0.9884 0.0000 -11140.8372 1446.0615 0.0000 0.0000 1624.7518 -8064.2267 274.7815 -9688.9786 -8060.8047 274.7815 -920.9635 -838.1886 29879.3847 -920.9635 -838.1886
ENERGY: 1100000 2.3549 7.5793 2.2173 0.0000 -10767.1279 1473.2572 0.0000 0.0000 1763.9813 -7517.7380 298.3283 -9281.7193 -7514.3568 300.0216 233.0241 364.6561 30531.3369 2.3942 2.3242
ENERGY: 1300000 1.1502 5.4012 3.9669 0.0000 -10740.5032 1476.4982 0.0000 0.0000 1797.7186 -7455.7680 304.0340 -9253.4866 -7453.7657 300.7450 293.3457 353.0264 30773.0773 3.9097 3.7225
ENERGY: 1500000 0.7278 6.2799 2.3121 0.0000 -10778.2932 1474.1231 0.0000 0.0000 1776.3112 -7518.5391 300.4135 -9294.8504 -7516.2084 300.0815 367.1563 463.4254 30396.0834 3.7062 3.6193
ENERGY: 1700000 0.3572 5.4724 2.2790 0.0000 -10866.5354 1479.7580 0.0000 0.0000 1736.0500 -7642.6189 293.6045 -9378.6689 -7638.2614 300.4927 65.3332 161.9577 30367.8916 2.9323 3.0107
ENERGY: 1900000 1.6321 6.6586 2.7982 0.0000 -10822.8601 1409.6970 0.0000 0.0000 1762.1392 -7639.9350 298.0167 -9402.0742 -7632.9001 300.0532 -488.9439 -367.6470 30561.5184 1.7199 1.7244
TCL: Exiting due to exit command.
