Info: SIMULATION PARAMETERS:
Info: TIMESTEP               2
Info: NUMBER OF STEPS        0
Info: STEPS PER CYCLE        10
Info: PERIODIC CELL BASIS 1  37.133 0 0
Info: PERIODIC CELL BASIS 2  0 35.779 0
Info: PERIODIC CELL BASIS 3  0 0 33.876
Info: PERIODIC CELL CENTER   0 0 0
Info: WRAPPING WATERS AROUND PERIODIC BOUNDARIES ON OUTPUT.
Info: WRAPPING ALL CLUSTERS AROUND PERIODIC BOUNDARIES ON OUTPUT.
Info: FIRST LDB TIMESTEP     50
Info: LAST LDB TIMESTEP     -1
Info: HOM BACKGROUND SCALING 1
Info: PME BACKGROUND SCALING 1
Info: MIN ATOMS PER PATCH    40
Info: EMPTY PATCH LOAD       40 ATOMS
Info: INITIAL TEMPERATURE    300
Info: CENTER OF MASS MOVING INITIALLY? NO
Info: DIELECTRIC             1
Info: EXCLUDE                SCALED ONE-FOUR
Info: 1-4 ELECTROSTATICS SCALED BY 0.833333
Info: MODIFIED 1-4 VDW PARAMETERS WILL BE USED
Info: DCD FILENAME           mobley_2487143_equil.dcd
Info: DCD FREQUENCY          100000
Info: DCD FIRST STEP         100000
Info: DCD FILE WILL CONTAIN UNIT CELL DATA
Info: XST FILENAME           mobley_2487143_equil.xst
Info: XST FREQUENCY          100000
Info: NO VELOCITY DCD OUTPUT
Info: NO FORCE DCD OUTPUT
Info: OUTPUT FILENAME        mobley_2487143_equil
Info: BINARY OUTPUT FILES WILL BE USED
Info: RESTART FILENAME       mobley_2487143_equil.restart
Info: RESTART FREQUENCY      100000
Info: BINARY RESTART FILES WILL BE USED
Info: CUTOFF                 9
Info: PAIRLIST DISTANCE      11
Info: PAIRLIST SHRINK RATE   0.01
Info: PAIRLIST GROW RATE     0.01
Info: PAIRLIST TRIGGER       0.3
Info: PAIRLISTS PER CYCLE    2
Info: PAIRLISTS ENABLED
Info: MARGIN                 8
Info: HYDROGEN GROUP CUTOFF  2.5
Info: PATCH DIMENSION        21.5
Info: ENERGY OUTPUT STEPS    100000
Info: ENERGY EVALUATION STEPS    100000
Info: OUTPUT ENERGY PRECISION 4
Info: CROSSTERM ENERGY INCLUDED IN DIHEDRAL
Info: TIMING OUTPUT STEPS    1000000
Info: PRESSURE OUTPUT STEPS  100000
Info: LANGEVIN DYNAMICS ACTIVE
Info: LANGEVIN TEMPERATURE   30
Info: LANGEVIN USING BBK INTEGRATOR
Info: LANGEVIN DAMPING COEFFICIENT IS 1 INVERSE PS
Info: LANGEVIN DYNAMICS APPLIED TO HYDROGENS
Info: LANGEVIN PISTON PRESSURE CONTROL ACTIVE
Info:        TARGET PRESSURE IS 1.01325 BAR
Info:     OSCILLATION PERIOD IS 50 FS
Info:             DECAY TIME IS 25 FS
Info:     PISTON TEMPERATURE IS 300 K
Info:       PRESSURE CONTROL IS GROUP-BASED
Info:    INITIAL STRAIN RATE IS 0 0 0
Info:       CELL FLUCTUATION IS ISOTROPIC
Info: PARTICLE MESH EWALD (PME) ACTIVE
Info: PME TOLERANCE               1e-06
Info: PME EWALD COEFFICIENT       0.348832
Info: PME INTERPOLATION ORDER     4
Info: PME GRID DIMENSIONS         40 36 36
Info: PME MAXIMUM GRID SPACING    1
Info: FULL ELECTROSTATIC EVALUATION FREQUENCY      2
Info: USING VERLET I (r-RESPA) MTS SCHEME.
Info: C1 SPLITTING OF LONG RANGE ELECTROSTATICS
Info: PLACING ATOMS IN PATCHES BY HYDROGEN GROUPS
Info: RIGID BONDS TO HYDROGEN : ALL
Info:         ERROR TOLERANCE : 1e-08
Info:          MAX ITERATIONS : 100
Info: RIGID WATER USING SETTLE ALGORITHM
Info: RANDOM NUMBER SEED     1743249641
Info: USE HYDROGEN BONDS?    NO
Info: Using AMBER format force field!
Info: AMBER PARM FILE        mobley_2487143.prmtop
Info: COORDINATE PDB         mobley_2487143.pdb
Info: Exclusions will be read from PARM file!
Info: SCNB (VDW SCALING)     2
Info: USING ARITHMETIC MEAN TO COMBINE L-J SIGMA PARAMETERS
Info: BINARY COORDINATES     mobley_2487143_min.coor
Info: SUMMARY OF PARAMETERS:
Info: 6 BONDS
Info: 7 ANGLES
Info:   7 HARMONIC
Info:   0 COSINE-BASED
Info: 11 DIHEDRAL
Info: 0 IMPROPER
Info: 0 CROSSTERM
Info: 0 VDW
Info: 21 VDW_PAIRS
Info: 0 NBTHOLE_PAIRS
Info: STRUCTURE SUMMARY:
Info: 2983 ATOMS
Info: 2982 BONDS
Info: 33 ANGLES
Info: 52 DIHEDRALS
Info: 0 IMPROPERS
Info: 0 CROSSTERMS
Info: 3054 EXCLUSIONS
Info: 2976 RIGID BONDS
Info: 5973 DEGREES OF FREEDOM
Info: 995 HYDROGEN GROUPS
Info: 4 ATOMS IN LARGEST HYDROGEN GROUP
Info: 995 MIGRATION GROUPS
Info: 4 ATOMS IN LARGEST MIGRATION GROUP
Info: TOTAL MASS = 17900 amu
Info: TOTAL CHARGE = -1.49012e-08 e
Info: MASS DENSITY = 0.660436 g/cm^3
Info: ATOM DENSITY = 0.0662785 atoms/A^3
Info: ADDED 0 IMPLICIT EXCLUSIONS
Info: NONBONDED TABLE R-SQUARED SPACING: 0.0625
Info: NONBONDED TABLE SIZE: 705 POINTS
Info: REMOVING COM VELOCITY 0.259859 0.0319715 -0.0485157
TCL: Running for 100000 steps
ETITLE: TS BOND ANGLE DIHED IMPRP ELECT VDW BOUNDARY MISC KINETIC TOTAL TEMP POTENTIAL TOTAL3 TEMPAVG PRESSURE GPRESSURE VOLUME PRESSAVG GPRESSAVG
ENERGY: 0 0.0579 0.4681 3.6433 0.0000 -13771.4437 2426.6173 0.0000 0.0000 1769.9105 -9570.7466 298.2285 -11340.6571 -9570.3978 298.2285 399.9724 430.9931 45007.0305 399.9724 430.9931
ENERGY: 100000 0.1192 0.7939 3.7617 0.0000 -14584.4346 2700.4370 0.0000 0.0000 182.2763 -11697.0465 30.7134 -11879.3228 -11696.6213 30.9242 1633.4094 1677.8297 29198.3016 4.1914 4.2052
TCL: Running 100000 steps at 60 kelvin.
TCL: Setting parameter langevinTemp to 60
TCL: Running for 100000 steps
ETITLE: TS BOND ANGLE DIHED IMPRP ELECT VDW BOUNDARY MISC KINETIC TOTAL TEMP POTENTIAL TOTAL3 TEMPAVG PRESSURE GPRESSURE VOLUME PRESSAVG GPRESSAVG
ENERGY: 100000 0.1192 0.7939 3.7617 0.0000 -14584.4346 2700.4370 0.0000 0.0000 182.1890 -11697.1338 30.6987 -11879.3228 -11696.7603 30.6987 1627.8452 1677.9414 29198.3016 1627.8452 1677.9414
ENERGY: 200000 0.2246 1.2675 4.1608 0.0000 -14295.2908 2496.3671 0.0000 0.0000 352.8723 -11440.3985 59.4587 -11793.2707 -11439.4904 60.0027 388.3465 449.7875 29158.9961 4.3422 4.3089
TCL: Running 100000 steps at 90 kelvin.
TCL: Setting parameter langevinTemp to 90
TCL: Running for 100000 steps
ETITLE: TS BOND ANGLE DIHED IMPRP ELECT VDW BOUNDARY MISC KINETIC TOTAL TEMP POTENTIAL TOTAL3 TEMPAVG PRESSURE GPRESSURE VOLUME PRESSAVG GPRESSAVG
ENERGY: 200000 0.2246 1.2675 4.1608 0.0000 -14295.2908 2496.3671 0.0000 0.0000 352.6992 -11440.5715 59.4295 -11793.2707 -11440.0712 59.4295 398.7737 450.2295 29158.9961 398.7737 450.2295
ENERGY: 300000 0.8883 2.6034 4.0530 0.0000 -14164.2210 2470.6107 0.0000 0.0000 531.2964 -11154.7692 89.5230 -11686.0657 -11152.9527 90.0409 564.7069 599.6189 29172.7484 3.1971 3.2400
TCL: Running 100000 steps at 120 kelvin.
TCL: Setting parameter langevinTemp to 120
TCL: Running for 100000 steps
ETITLE: TS BOND ANGLE DIHED IMPRP ELECT VDW BOUNDARY MISC KINETIC TOTAL TEMP POTENTIAL TOTAL3 TEMPAVG PRESSURE GPRESSURE VOLUME PRESSAVG GPRESSAVG
ENERGY: 300000 0.8883 2.6034 4.0530 0.0000 -14164.2211 2470.6107 0.0000 0.0000 531.0291 -11155.0366 89.4780 -11686.0657 -11153.9758 89.4780 539.9228 600.0963 29172.7484 539.9228 600.0963
ENERGY: 400000 0.5380 2.5585 4.2597 0.0000 -13966.8801 2413.1936 0.0000 0.0000 711.0451 -10835.2852 119.8105 -11546.3303 -10833.8370 119.8951 325.7678 396.1832 29585.5383 2.7683 2.8151
TCL: Running 100000 steps at 150 kelvin.
TCL: Setting parameter langevinTemp to 150
TCL: Running for 100000 steps
ETITLE: TS BOND ANGLE DIHED IMPRP ELECT VDW BOUNDARY MISC KINETIC TOTAL TEMP POTENTIAL TOTAL3 TEMPAVG PRESSURE GPRESSURE VOLUME PRESSAVG GPRESSAVG
ENERGY: 400000 0.5380 2.5585 4.2597 0.0000 -13966.8801 2413.1936 0.0000 0.0000 710.6917 -10835.6387 119.7510 -11546.3303 -10833.9367 119.7510 346.9722 395.9280 29585.5383 346.9722 395.9280
ENERGY: 500000 0.5363 3.2161 4.4647 0.0000 -13647.4919 2247.7708 0.0000 0.0000 879.2692 -10512.2347 148.1562 -11391.5039 -10510.1390 150.2514 -25.4298 45.2905 28950.7916 2.9259 2.9795
TCL: Running 100000 steps at 180 kelvin.
TCL: Setting parameter langevinTemp to 180
TCL: Running for 100000 steps
ETITLE: TS BOND ANGLE DIHED IMPRP ELECT VDW BOUNDARY MISC KINETIC TOTAL TEMP POTENTIAL TOTAL3 TEMPAVG PRESSURE GPRESSURE VOLUME PRESSAVG GPRESSAVG
ENERGY: 500000 0.5363 3.2161 4.4647 0.0000 -13647.4919 2247.7708 0.0000 0.0000 878.8424 -10512.6615 148.0843 -11391.5039 -10510.5028 148.0843 -5.7556 45.2288 28950.7916 -5.7556 45.2288
ENERGY: 600000 1.4285 4.0938 3.9410 0.0000 -13221.1618 2125.0257 0.0000 0.0000 1082.4698 -10004.2030 182.3953 -11086.6728 -10001.2093 180.0372 -154.1717 -73.5477 29163.0696 3.5169 3.5269
TCL: Running 100000 steps at 210 kelvin.
TCL: Setting parameter langevinTemp to 210
TCL: Running for 100000 steps
ETITLE: TS BOND ANGLE DIHED IMPRP ELECT VDW BOUNDARY MISC KINETIC TOTAL TEMP POTENTIAL TOTAL3 TEMPAVG PRESSURE GPRESSURE VOLUME PRESSAVG GPRESSAVG
ENERGY: 600000 1.4285 4.0938 3.9410 0.0000 -13221.1618 2125.0257 0.0000 0.0000 1081.9240 -10004.7488 182.3033 -11086.6728 -10003.0039 182.3033 -131.7454 -72.9913 29163.0696 -131.7454 -72.9913
ENERGY: 700000 2.0840 10.2402 4.3435 0.0000 -12491.4447 1821.9110 0.0000 0.0000 1222.0003 -9430.8657 205.9061 -10652.8660 -9428.6046 209.9855 -923.9100 -852.6871 29328.3797 4.4744 4.5293
TCL: Running 100000 steps at 240 kelvin.
TCL: Setting parameter langevinTemp to 240
TCL: Running for 100000 steps
ETITLE: TS BOND ANGLE DIHED IMPRP ELECT VDW BOUNDARY MISC KINETIC TOTAL TEMP POTENTIAL TOTAL3 TEMPAVG PRESSURE GPRESSURE VOLUME PRESSAVG GPRESSAVG
ENERGY: 700000 2.0840 10.2402 4.3435 0.0000 -12491.4447 1821.9110 0.0000 0.0000 1221.3372 -9431.5287 205.7944 -10652.8660 -9429.0489 205.7944 -924.5843 -852.8261 29328.3797 -924.5843 -852.8261
ENERGY: 800000 1.0231 5.9176 8.1095 0.0000 -11925.2424 1676.2320 0.0000 0.0000 1450.6797 -8783.2805 244.4384 -10233.9602 -8779.8353 239.7379 -878.8506 -795.7405 29761.5050 4.1841 4.1929
TCL: Running 100000 steps at 270 kelvin.
TCL: Setting parameter langevinTemp to 270
TCL: Running for 100000 steps
ETITLE: TS BOND ANGLE DIHED IMPRP ELECT VDW BOUNDARY MISC KINETIC TOTAL TEMP POTENTIAL TOTAL3 TEMPAVG PRESSURE GPRESSURE VOLUME PRESSAVG GPRESSAVG
ENERGY: 800000 1.0231 5.9176 8.1095 0.0000 -11925.2424 1676.2320 0.0000 0.0000 1449.9752 -8783.9850 244.3197 -10233.9602 -8781.5381 244.3197 -883.8244 -794.1259 29761.5050 -883.8244 -794.1259
ENERGY: 900000 1.2617 7.9907 6.4406 0.0000 -11197.1395 1503.8925 0.0000 0.0000 1566.3185 -8111.2355 263.9234 -9677.5540 -8107.1611 269.7108 -547.8934 -471.1145 30364.2406 3.3396 3.3027
TCL: Running 1000000 steps at 300 kelvin.
TCL: Setting parameter langevinTemp to 300
TCL: Running for 1000000 steps
ETITLE: TS BOND ANGLE DIHED IMPRP ELECT VDW BOUNDARY MISC KINETIC TOTAL TEMP POTENTIAL TOTAL3 TEMPAVG PRESSURE GPRESSURE VOLUME PRESSAVG GPRESSAVG
ENERGY: 900000 1.2617 7.9907 6.4406 0.0000 -11197.1395 1503.8925 0.0000 0.0000 1565.5511 -8112.0029 263.7941 -9677.5540 -8109.0241 263.7941 -545.9078 -470.1552 30364.2406 -545.9078 -470.1552
ENERGY: 1100000 3.0788 10.3597 4.1305 0.0000 -10796.6090 1510.0766 0.0000 0.0000 1763.4168 -7505.5466 297.1343 -9268.9634 -7502.8247 300.4128 608.9853 694.8833 30548.4107 3.9745 4.0359
ENERGY: 1300000 1.7016 8.7813 4.5589 0.0000 -10783.0951 1497.5078 0.0000 0.0000 1790.1987 -7480.3469 301.6471 -9270.5456 -7478.8030 300.1684 363.6826 475.9871 31129.8094 2.8144 2.6775
ENERGY: 1500000 1.5959 6.9590 4.7600 0.0000 -10832.3102 1449.9398 0.0000 0.0000 1783.2214 -7585.8340 300.4714 -9369.0555 -7581.1413 300.0552 -50.7711 81.2895 30502.8825 4.8738 4.8789
ENERGY: 1700000 1.6134 8.6936 5.1426 0.0000 -10804.5588 1429.8685 0.0000 0.0000 1742.4868 -7616.7539 293.6077 -9359.2407 -7614.5138 299.9491 -324.5021 -312.1645 30870.7000 2.7361 2.7107
ENERGY: 1900000 3.8354 7.2545 6.4717 0.0000 -10790.0104 1425.5764 0.0000 0.0000 1743.1033 -7603.7690 293.7115 -9346.8723 -7599.3528 301.0859 -191.1048 -144.5950 30877.6628 2.3289 2.3426
TCL: Exiting due to exit command.
