Info: SIMULATION PARAMETERS:
Info: TIMESTEP               2
Info: NUMBER OF STEPS        0
Info: STEPS PER CYCLE        10
Info: PERIODIC CELL BASIS 1  34.207 0 0
Info: PERIODIC CELL BASIS 2  0 34.1 0
Info: PERIODIC CELL BASIS 3  0 0 37.195
Info: PERIODIC CELL CENTER   0 0 0
Info: WRAPPING WATERS AROUND PERIODIC BOUNDARIES ON OUTPUT.
Info: WRAPPING ALL CLUSTERS AROUND PERIODIC BOUNDARIES ON OUTPUT.
Info: FIRST LDB TIMESTEP     50
Info: LAST LDB TIMESTEP     -1
Info: HOM BACKGROUND SCALING 1
Info: PME BACKGROUND SCALING 1
Info: MIN ATOMS PER PATCH    40
Info: EMPTY PATCH LOAD       40 ATOMS
Info: INITIAL TEMPERATURE    300
Info: CENTER OF MASS MOVING INITIALLY? NO
Info: DIELECTRIC             1
Info: EXCLUDE                SCALED ONE-FOUR
Info: 1-4 ELECTROSTATICS SCALED BY 0.833333
Info: MODIFIED 1-4 VDW PARAMETERS WILL BE USED
Info: DCD FILENAME           mobley_7943327_equil.dcd
Info: DCD FREQUENCY          100000
Info: DCD FIRST STEP         100000
Info: DCD FILE WILL CONTAIN UNIT CELL DATA
Info: XST FILENAME           mobley_7943327_equil.xst
Info: XST FREQUENCY          100000
Info: NO VELOCITY DCD OUTPUT
Info: NO FORCE DCD OUTPUT
Info: OUTPUT FILENAME        mobley_7943327_equil
Info: BINARY OUTPUT FILES WILL BE USED
Info: RESTART FILENAME       mobley_7943327_equil.restart
Info: RESTART FREQUENCY      100000
Info: BINARY RESTART FILES WILL BE USED
Info: CUTOFF                 9
Info: PAIRLIST DISTANCE      11
Info: PAIRLIST SHRINK RATE   0.01
Info: PAIRLIST GROW RATE     0.01
Info: PAIRLIST TRIGGER       0.3
Info: PAIRLISTS PER CYCLE    2
Info: PAIRLISTS ENABLED
Info: MARGIN                 8
Info: HYDROGEN GROUP CUTOFF  2.5
Info: PATCH DIMENSION        21.5
Info: ENERGY OUTPUT STEPS    100000
Info: ENERGY EVALUATION STEPS    100000
Info: OUTPUT ENERGY PRECISION 4
Info: CROSSTERM ENERGY INCLUDED IN DIHEDRAL
Info: TIMING OUTPUT STEPS    1000000
Info: PRESSURE OUTPUT STEPS  100000
Info: LANGEVIN DYNAMICS ACTIVE
Info: LANGEVIN TEMPERATURE   30
Info: LANGEVIN USING BBK INTEGRATOR
Info: LANGEVIN DAMPING COEFFICIENT IS 1 INVERSE PS
Info: LANGEVIN DYNAMICS APPLIED TO HYDROGENS
Info: LANGEVIN PISTON PRESSURE CONTROL ACTIVE
Info:        TARGET PRESSURE IS 1.01325 BAR
Info:     OSCILLATION PERIOD IS 50 FS
Info:             DECAY TIME IS 25 FS
Info:     PISTON TEMPERATURE IS 300 K
Info:       PRESSURE CONTROL IS GROUP-BASED
Info:    INITIAL STRAIN RATE IS 0 0 0
Info:       CELL FLUCTUATION IS ISOTROPIC
Info: PARTICLE MESH EWALD (PME) ACTIVE
Info: PME TOLERANCE               1e-06
Info: PME EWALD COEFFICIENT       0.348832
Info: PME INTERPOLATION ORDER     4
Info: PME GRID DIMENSIONS         36 36 40
Info: PME MAXIMUM GRID SPACING    1
Info: FULL ELECTROSTATIC EVALUATION FREQUENCY      2
Info: USING VERLET I (r-RESPA) MTS SCHEME.
Info: C1 SPLITTING OF LONG RANGE ELECTROSTATICS
Info: PLACING ATOMS IN PATCHES BY HYDROGEN GROUPS
Info: RIGID BONDS TO HYDROGEN : ALL
Info:         ERROR TOLERANCE : 1e-08
Info:          MAX ITERATIONS : 100
Info: RIGID WATER USING SETTLE ALGORITHM
Info: RANDOM NUMBER SEED     1743241954
Info: USE HYDROGEN BONDS?    NO
Info: Using AMBER format force field!
Info: AMBER PARM FILE        mobley_7943327.prmtop
Info: COORDINATE PDB         mobley_7943327.pdb
Info: Exclusions will be read from PARM file!
Info: SCNB (VDW SCALING)     2
Info: USING ARITHMETIC MEAN TO COMBINE L-J SIGMA PARAMETERS
Info: BINARY COORDINATES     mobley_7943327_min.coor
Info: SUMMARY OF PARAMETERS:
Info: 9 BONDS
Info: 12 ANGLES
Info:   12 HARMONIC
Info:   0 COSINE-BASED
Info: 16 DIHEDRAL
Info: 0 IMPROPER
Info: 0 CROSSTERM
Info: 0 VDW
Info: 36 VDW_PAIRS
Info: 0 NBTHOLE_PAIRS
Info: STRUCTURE SUMMARY:
Info: 2933 ATOMS
Info: 2932 BONDS
Info: 28 ANGLES
Info: 41 DIHEDRALS
Info: 0 IMPROPERS
Info: 0 CROSSTERMS
Info: 2989 EXCLUSIONS
Info: 2926 RIGID BONDS
Info: 5873 DEGREES OF FREEDOM
Info: 979 HYDROGEN GROUPS
Info: 4 ATOMS IN LARGEST HYDROGEN GROUP
Info: 979 MIGRATION GROUPS
Info: 4 ATOMS IN LARGEST MIGRATION GROUP
Info: TOTAL MASS = 17613.7 amu
Info: TOTAL CHARGE = 4.84288e-08 e
Info: MASS DENSITY = 0.674148 g/cm^3
Info: ATOM DENSITY = 0.0676018 atoms/A^3
Info: ADDED 0 IMPLICIT EXCLUSIONS
Info: NONBONDED TABLE R-SQUARED SPACING: 0.0625
Info: NONBONDED TABLE SIZE: 705 POINTS
Info: REMOVING COM VELOCITY 0.0639204 -0.0260166 0.167656
TCL: Running for 100000 steps
ETITLE: TS BOND ANGLE DIHED IMPRP ELECT VDW BOUNDARY MISC KINETIC TOTAL TEMP POTENTIAL TOTAL3 TEMPAVG PRESSURE GPRESSURE VOLUME PRESSAVG GPRESSAVG
ENERGY: 0 0.0649 0.5659 3.2056 0.0000 -13595.7910 2412.8589 0.0000 0.0000 1735.0892 -9444.0064 297.3392 -11179.0956 -9443.6710 297.3392 636.0590 666.3946 43386.4313 636.0590 666.3946
ENERGY: 100000 0.1085 1.9200 3.4236 0.0000 -14239.4326 2542.9974 0.0000 0.0000 178.5932 -11512.3900 30.6052 -11690.9832 -11512.0614 30.9047 766.3882 799.9178 28328.3674 3.9482 3.9532
TCL: Running 100000 steps at 60 kelvin.
TCL: Setting parameter langevinTemp to 60
TCL: Running for 100000 steps
ETITLE: TS BOND ANGLE DIHED IMPRP ELECT VDW BOUNDARY MISC KINETIC TOTAL TEMP POTENTIAL TOTAL3 TEMPAVG PRESSURE GPRESSURE VOLUME PRESSAVG GPRESSAVG
ENERGY: 100000 0.1085 1.9200 3.4236 0.0000 -14239.4326 2542.9974 0.0000 0.0000 178.5039 -11512.4793 30.5899 -11690.9832 -11512.1912 30.5899 756.9254 799.7874 28328.3674 756.9254 799.7874
ENERGY: 200000 0.4209 1.8810 3.3389 0.0000 -13952.1144 2317.2654 0.0000 0.0000 341.2581 -11287.9502 58.4808 -11629.2082 -11286.9167 59.9732 -806.6330 -755.2015 28334.1856 5.1373 5.0647
TCL: Running 100000 steps at 90 kelvin.
TCL: Setting parameter langevinTemp to 90
TCL: Running for 100000 steps
ETITLE: TS BOND ANGLE DIHED IMPRP ELECT VDW BOUNDARY MISC KINETIC TOTAL TEMP POTENTIAL TOTAL3 TEMPAVG PRESSURE GPRESSURE VOLUME PRESSAVG GPRESSAVG
ENERGY: 200000 0.4209 1.8810 3.3389 0.0000 -13952.1144 2317.2654 0.0000 0.0000 341.0796 -11288.1287 58.4502 -11629.2082 -11287.3502 58.4502 -816.7321 -755.4674 28334.1856 -816.7321 -755.4674
ENERGY: 300000 1.1679 2.8059 3.7874 0.0000 -13893.5818 2388.9084 0.0000 0.0000 533.7662 -10963.1461 91.4706 -11496.9123 -10961.5414 89.9318 515.9423 594.6067 28111.8183 3.5791 3.5871
TCL: Running 100000 steps at 120 kelvin.
TCL: Setting parameter langevinTemp to 120
TCL: Running for 100000 steps
ETITLE: TS BOND ANGLE DIHED IMPRP ELECT VDW BOUNDARY MISC KINETIC TOTAL TEMP POTENTIAL TOTAL3 TEMPAVG PRESSURE GPRESSURE VOLUME PRESSAVG GPRESSAVG
ENERGY: 300000 1.1679 2.8059 3.7874 0.0000 -13893.5818 2388.9084 0.0000 0.0000 533.5008 -10963.4115 91.4251 -11496.9122 -10962.3079 91.4251 523.9995 594.6217 28111.8183 523.9995 594.6217
ENERGY: 400000 0.2875 2.3313 4.2700 0.0000 -13569.7118 2167.1267 0.0000 0.0000 709.7526 -10685.9437 121.6291 -11395.6963 -10684.8032 119.9626 -977.1765 -924.8240 28218.7983 4.0627 3.9383
TCL: Running 100000 steps at 150 kelvin.
TCL: Setting parameter langevinTemp to 150
TCL: Running for 100000 steps
ETITLE: TS BOND ANGLE DIHED IMPRP ELECT VDW BOUNDARY MISC KINETIC TOTAL TEMP POTENTIAL TOTAL3 TEMPAVG PRESSURE GPRESSURE VOLUME PRESSAVG GPRESSAVG
ENERGY: 400000 0.2875 2.3313 4.2700 0.0000 -13569.7118 2167.1267 0.0000 0.0000 709.4034 -10686.2929 121.5692 -11395.6963 -10684.6308 121.5692 -983.7269 -925.2570 28218.7983 -983.7269 -925.2570
ENERGY: 500000 0.6347 5.9473 3.8268 0.0000 -13524.8065 2280.2857 0.0000 0.0000 861.9066 -10372.2054 147.7034 -11234.1120 -10370.3050 150.0467 361.5847 427.4169 28395.5404 4.9283 4.8825
TCL: Running 100000 steps at 180 kelvin.
TCL: Setting parameter langevinTemp to 180
TCL: Running for 100000 steps
ETITLE: TS BOND ANGLE DIHED IMPRP ELECT VDW BOUNDARY MISC KINETIC TOTAL TEMP POTENTIAL TOTAL3 TEMPAVG PRESSURE GPRESSURE VOLUME PRESSAVG GPRESSAVG
ENERGY: 500000 0.6347 5.9473 3.8268 0.0000 -13524.8065 2280.2857 0.0000 0.0000 861.4584 -10372.6536 147.6266 -11234.1120 -10371.0003 147.6266 363.3347 426.5542 28395.5404 363.3347 426.5542
ENERGY: 600000 0.9692 5.0021 3.3625 0.0000 -13018.3362 2077.4138 0.0000 0.0000 1038.1901 -9893.3985 177.9128 -10931.5886 -9892.2631 180.0351 -371.4271 -325.8729 28920.4919 4.6340 4.5213
TCL: Running 100000 steps at 210 kelvin.
TCL: Setting parameter langevinTemp to 210
TCL: Running for 100000 steps
ETITLE: TS BOND ANGLE DIHED IMPRP ELECT VDW BOUNDARY MISC KINETIC TOTAL TEMP POTENTIAL TOTAL3 TEMPAVG PRESSURE GPRESSURE VOLUME PRESSAVG GPRESSAVG
ENERGY: 600000 0.9692 5.0021 3.3625 0.0000 -13018.3362 2077.4138 0.0000 0.0000 1037.6707 -9893.9179 177.8238 -10931.5886 -9891.6040 177.8238 -372.7133 -327.2282 28920.4919 -372.7133 -327.2282
ENERGY: 700000 0.9713 6.0022 4.2462 0.0000 -12243.0857 1800.6511 0.0000 0.0000 1253.1458 -9178.0691 214.7494 -10431.2149 -9175.9567 210.4101 -742.8340 -696.9170 28678.4893 3.5623 3.5198
TCL: Running 100000 steps at 240 kelvin.
TCL: Setting parameter langevinTemp to 240
TCL: Running for 100000 steps
ETITLE: TS BOND ANGLE DIHED IMPRP ELECT VDW BOUNDARY MISC KINETIC TOTAL TEMP POTENTIAL TOTAL3 TEMPAVG PRESSURE GPRESSURE VOLUME PRESSAVG GPRESSAVG
ENERGY: 700000 0.9713 6.0022 4.2462 0.0000 -12243.0857 1800.6511 0.0000 0.0000 1252.5331 -9178.6818 214.6444 -10431.2149 -9176.3827 214.6444 -783.0983 -698.2354 28678.4893 -783.0983 -698.2354
ENERGY: 800000 0.9316 6.8590 5.2960 0.0000 -11674.6902 1660.2598 0.0000 0.0000 1396.4198 -8604.9240 239.3020 -10001.3438 -8602.3262 240.0762 -316.4567 -236.1952 28634.7670 2.7751 2.6440
TCL: Running 100000 steps at 270 kelvin.
TCL: Setting parameter langevinTemp to 270
TCL: Running for 100000 steps
ETITLE: TS BOND ANGLE DIHED IMPRP ELECT VDW BOUNDARY MISC KINETIC TOTAL TEMP POTENTIAL TOTAL3 TEMPAVG PRESSURE GPRESSURE VOLUME PRESSAVG GPRESSAVG
ENERGY: 800000 0.9316 6.8590 5.2960 0.0000 -11674.6902 1660.2598 0.0000 0.0000 1395.7160 -8605.6278 239.1814 -10001.3438 -8603.4833 239.1814 -338.1496 -235.0366 28634.7670 -338.1496 -235.0366
ENERGY: 900000 1.7180 5.7721 5.2688 0.0000 -11152.8478 1491.2409 0.0000 0.0000 1557.5703 -8091.2775 266.9181 -9648.8479 -8088.1041 270.4349 -462.6590 -359.7652 29267.8227 3.8966 3.9249
TCL: Running 1000000 steps at 300 kelvin.
TCL: Setting parameter langevinTemp to 300
TCL: Running for 1000000 steps
ETITLE: TS BOND ANGLE DIHED IMPRP ELECT VDW BOUNDARY MISC KINETIC TOTAL TEMP POTENTIAL TOTAL3 TEMPAVG PRESSURE GPRESSURE VOLUME PRESSAVG GPRESSAVG
ENERGY: 900000 1.7180 5.7721 5.2688 0.0000 -11152.8478 1491.2409 0.0000 0.0000 1556.7956 -8092.0523 266.7853 -9648.8479 -8089.4963 266.7853 -437.7335 -358.9567 29267.8227 -437.7335 -358.9567
ENERGY: 1100000 1.7536 7.9019 4.5019 0.0000 -10636.0674 1340.2790 0.0000 0.0000 1770.7944 -7510.8365 303.4580 -9281.6310 -7508.4451 299.4958 -861.1914 -815.3564 30119.7059 4.2470 4.0581
ENERGY: 1300000 1.2475 9.2239 3.9408 0.0000 -10718.3253 1461.9520 0.0000 0.0000 1692.5718 -7549.3894 290.0531 -9241.9612 -7548.4551 300.2042 189.7962 270.7185 29905.9901 4.7985 4.8718
ENERGY: 1500000 2.7079 7.3100 4.5173 0.0000 -10654.3014 1374.1515 0.0000 0.0000 1741.5986 -7524.0161 298.4547 -9265.6148 -7520.5152 299.9662 -623.3103 -624.5745 30407.5358 3.7310 3.6500
ENERGY: 1700000 2.3041 9.1391 6.1547 0.0000 -10613.1225 1402.7235 0.0000 0.0000 1732.9711 -7459.8300 296.9762 -9192.8011 -7456.2800 300.6239 -358.0713 -302.7718 30494.3642 2.5927 2.5194
ENERGY: 1900000 0.5486 6.4768 3.0289 0.0000 -10525.2023 1391.7373 0.0000 0.0000 1757.7086 -7365.7022 301.2155 -9123.4108 -7360.3246 300.1751 -199.5991 -144.3435 30711.3189 1.2364 1.2231
TCL: Exiting due to exit command.
