Info: SIMULATION PARAMETERS:
Info: TIMESTEP               2
Info: NUMBER OF STEPS        0
Info: STEPS PER CYCLE        10
Info: PERIODIC CELL BASIS 1  36.592 0 0
Info: PERIODIC CELL BASIS 2  0 34.1 0
Info: PERIODIC CELL BASIS 3  0 0 35.897
Info: PERIODIC CELL CENTER   0 0 0
Info: WRAPPING WATERS AROUND PERIODIC BOUNDARIES ON OUTPUT.
Info: WRAPPING ALL CLUSTERS AROUND PERIODIC BOUNDARIES ON OUTPUT.
Info: FIRST LDB TIMESTEP     50
Info: LAST LDB TIMESTEP     -1
Info: HOM BACKGROUND SCALING 1
Info: PME BACKGROUND SCALING 1
Info: MIN ATOMS PER PATCH    40
Info: EMPTY PATCH LOAD       40 ATOMS
Info: INITIAL TEMPERATURE    300
Info: CENTER OF MASS MOVING INITIALLY? NO
Info: DIELECTRIC             1
Info: EXCLUDE                SCALED ONE-FOUR
Info: 1-4 ELECTROSTATICS SCALED BY 0.833333
Info: MODIFIED 1-4 VDW PARAMETERS WILL BE USED
Info: DCD FILENAME           mobley_7203421_equil.dcd
Info: DCD FREQUENCY          100000
Info: DCD FIRST STEP         100000
Info: DCD FILE WILL CONTAIN UNIT CELL DATA
Info: XST FILENAME           mobley_7203421_equil.xst
Info: XST FREQUENCY          100000
Info: NO VELOCITY DCD OUTPUT
Info: NO FORCE DCD OUTPUT
Info: OUTPUT FILENAME        mobley_7203421_equil
Info: BINARY OUTPUT FILES WILL BE USED
Info: RESTART FILENAME       mobley_7203421_equil.restart
Info: RESTART FREQUENCY      100000
Info: BINARY RESTART FILES WILL BE USED
Info: CUTOFF                 9
Info: PAIRLIST DISTANCE      11
Info: PAIRLIST SHRINK RATE   0.01
Info: PAIRLIST GROW RATE     0.01
Info: PAIRLIST TRIGGER       0.3
Info: PAIRLISTS PER CYCLE    2
Info: PAIRLISTS ENABLED
Info: MARGIN                 8
Info: HYDROGEN GROUP CUTOFF  2.5
Info: PATCH DIMENSION        21.5
Info: ENERGY OUTPUT STEPS    100000
Info: ENERGY EVALUATION STEPS    100000
Info: OUTPUT ENERGY PRECISION 4
Info: CROSSTERM ENERGY INCLUDED IN DIHEDRAL
Info: TIMING OUTPUT STEPS    1000000
Info: PRESSURE OUTPUT STEPS  100000
Info: LANGEVIN DYNAMICS ACTIVE
Info: LANGEVIN TEMPERATURE   30
Info: LANGEVIN USING BBK INTEGRATOR
Info: LANGEVIN DAMPING COEFFICIENT IS 1 INVERSE PS
Info: LANGEVIN DYNAMICS APPLIED TO HYDROGENS
Info: LANGEVIN PISTON PRESSURE CONTROL ACTIVE
Info:        TARGET PRESSURE IS 1.01325 BAR
Info:     OSCILLATION PERIOD IS 50 FS
Info:             DECAY TIME IS 25 FS
Info:     PISTON TEMPERATURE IS 300 K
Info:       PRESSURE CONTROL IS GROUP-BASED
Info:    INITIAL STRAIN RATE IS 0 0 0
Info:       CELL FLUCTUATION IS ISOTROPIC
Info: PARTICLE MESH EWALD (PME) ACTIVE
Info: PME TOLERANCE               1e-06
Info: PME EWALD COEFFICIENT       0.348832
Info: PME INTERPOLATION ORDER     4
Info: PME GRID DIMENSIONS         40 36 36
Info: PME MAXIMUM GRID SPACING    1
Info: FULL ELECTROSTATIC EVALUATION FREQUENCY      2
Info: USING VERLET I (r-RESPA) MTS SCHEME.
Info: C1 SPLITTING OF LONG RANGE ELECTROSTATICS
Info: PLACING ATOMS IN PATCHES BY HYDROGEN GROUPS
Info: RIGID BONDS TO HYDROGEN : ALL
Info:         ERROR TOLERANCE : 1e-08
Info:          MAX ITERATIONS : 100
Info: RIGID WATER USING SETTLE ALGORITHM
Info: RANDOM NUMBER SEED     1743254983
Info: USE HYDROGEN BONDS?    NO
Info: Using AMBER format force field!
Info: AMBER PARM FILE        mobley_7203421.prmtop
Info: COORDINATE PDB         mobley_7203421.pdb
Info: Exclusions will be read from PARM file!
Info: SCNB (VDW SCALING)     2
Info: USING ARITHMETIC MEAN TO COMBINE L-J SIGMA PARAMETERS
Info: BINARY COORDINATES     mobley_7203421_min.coor
Info: SUMMARY OF PARAMETERS:
Info: 8 BONDS
Info: 10 ANGLES
Info:   10 HARMONIC
Info:   0 COSINE-BASED
Info: 16 DIHEDRAL
Info: 0 IMPROPER
Info: 0 CROSSTERM
Info: 0 VDW
Info: 36 VDW_PAIRS
Info: 0 NBTHOLE_PAIRS
Info: STRUCTURE SUMMARY:
Info: 2994 ATOMS
Info: 2993 BONDS
Info: 36 ANGLES
Info: 59 DIHEDRALS
Info: 0 IMPROPERS
Info: 0 CROSSTERMS
Info: 3075 EXCLUSIONS
Info: 2986 RIGID BONDS
Info: 5996 DEGREES OF FREEDOM
Info: 999 HYDROGEN GROUPS
Info: 4 ATOMS IN LARGEST HYDROGEN GROUP
Info: 999 MIGRATION GROUPS
Info: 4 ATOMS IN LARGEST MIGRATION GROUP
Info: TOTAL MASS = 17969 amu
Info: TOTAL CHARGE = 0.000199981 e
Info: MASS DENSITY = 0.66617 g/cm^3
Info: ATOM DENSITY = 0.0668426 atoms/A^3
Info: ADDED 0 IMPLICIT EXCLUSIONS
Info: NONBONDED TABLE R-SQUARED SPACING: 0.0625
Info: NONBONDED TABLE SIZE: 705 POINTS
Info: REMOVING COM VELOCITY -0.0619268 -0.129517 0.233803
TCL: Running for 100000 steps
ETITLE: TS BOND ANGLE DIHED IMPRP ELECT VDW BOUNDARY MISC KINETIC TOTAL TEMP POTENTIAL TOTAL3 TEMPAVG PRESSURE GPRESSURE VOLUME PRESSAVG GPRESSAVG
ENERGY: 0 0.2765 0.9334 5.9327 0.0000 -13782.0743 2436.4899 0.0000 0.0000 1766.8797 -9571.5619 296.5758 -11338.4416 -9571.2133 296.5758 554.2835 594.5793 44791.8171 554.2835 594.5793
ENERGY: 100000 0.2765 1.9628 6.1804 0.0000 -14357.6479 2444.0265 0.0000 0.0000 180.6825 -11724.5193 30.3281 -11905.2017 -11723.9506 30.9388 -299.4077 -238.1519 29264.5379 3.0343 3.0127
TCL: Running 100000 steps at 60 kelvin.
TCL: Setting parameter langevinTemp to 60
TCL: Running for 100000 steps
ETITLE: TS BOND ANGLE DIHED IMPRP ELECT VDW BOUNDARY MISC KINETIC TOTAL TEMP POTENTIAL TOTAL3 TEMPAVG PRESSURE GPRESSURE VOLUME PRESSAVG GPRESSAVG
ENERGY: 100000 0.2765 1.9628 6.1804 0.0000 -14357.6479 2444.0265 0.0000 0.0000 180.5950 -11724.6068 30.3134 -11905.2017 -11724.2063 30.3134 -292.7378 -238.1248 29264.5379 -292.7378 -238.1248
ENERGY: 200000 0.3299 1.9877 6.3282 0.0000 -14294.8595 2418.4443 0.0000 0.0000 350.2801 -11517.4893 58.7955 -11867.7694 -11516.9828 59.9663 -534.0549 -462.5702 29435.7736 2.0402 2.0975
TCL: Running 100000 steps at 90 kelvin.
TCL: Setting parameter langevinTemp to 90
TCL: Running for 100000 steps
ETITLE: TS BOND ANGLE DIHED IMPRP ELECT VDW BOUNDARY MISC KINETIC TOTAL TEMP POTENTIAL TOTAL3 TEMPAVG PRESSURE GPRESSURE VOLUME PRESSAVG GPRESSAVG
ENERGY: 200000 0.3299 1.9877 6.3282 0.0000 -14294.8595 2418.4443 0.0000 0.0000 350.1046 -11517.6647 58.7661 -11867.7694 -11516.6975 58.7661 -526.6552 -462.7531 29435.7736 -526.6552 -462.7531
ENERGY: 300000 0.5601 5.1182 6.1960 0.0000 -14168.2679 2383.6600 0.0000 0.0000 526.5132 -11246.2204 88.3768 -11772.7336 -11244.7826 90.0833 -353.8610 -292.1054 29135.5948 4.3805 4.4314
TCL: Running 100000 steps at 120 kelvin.
TCL: Setting parameter langevinTemp to 120
TCL: Running for 100000 steps
ETITLE: TS BOND ANGLE DIHED IMPRP ELECT VDW BOUNDARY MISC KINETIC TOTAL TEMP POTENTIAL TOTAL3 TEMPAVG PRESSURE GPRESSURE VOLUME PRESSAVG GPRESSAVG
ENERGY: 300000 0.5601 5.1182 6.1960 0.0000 -14168.2679 2383.6600 0.0000 0.0000 526.2573 -11246.4763 88.3338 -11772.7336 -11245.2380 88.3338 -344.5149 -292.0624 29135.5948 -344.5149 -292.0624
ENERGY: 400000 0.6993 2.5622 6.8676 0.0000 -14084.9101 2467.1866 0.0000 0.0000 722.0061 -10885.5883 121.1908 -11607.5944 -10883.8568 120.0287 989.9686 1071.7472 28893.8865 4.3150 4.3458
TCL: Running 100000 steps at 150 kelvin.
TCL: Setting parameter langevinTemp to 150
TCL: Running for 100000 steps
ETITLE: TS BOND ANGLE DIHED IMPRP ELECT VDW BOUNDARY MISC KINETIC TOTAL TEMP POTENTIAL TOTAL3 TEMPAVG PRESSURE GPRESSURE VOLUME PRESSAVG GPRESSAVG
ENERGY: 400000 0.6993 2.5622 6.8676 0.0000 -14084.9101 2467.1866 0.0000 0.0000 721.6690 -10885.9254 121.1342 -11607.5944 -10884.6113 121.1342 1006.8132 1071.4672 28893.8865 1006.8132 1071.4672
ENERGY: 500000 2.1767 3.9470 7.7792 0.0000 -13796.6808 2324.1928 0.0000 0.0000 881.2614 -10577.3236 147.9223 -11458.5850 -10575.3161 149.9563 200.4991 260.9336 29419.6887 3.7350 3.6628
TCL: Running 100000 steps at 180 kelvin.
TCL: Setting parameter langevinTemp to 180
TCL: Running for 100000 steps
ETITLE: TS BOND ANGLE DIHED IMPRP ELECT VDW BOUNDARY MISC KINETIC TOTAL TEMP POTENTIAL TOTAL3 TEMPAVG PRESSURE GPRESSURE VOLUME PRESSAVG GPRESSAVG
ENERGY: 500000 2.1767 3.9470 7.7792 0.0000 -13796.6808 2324.1928 0.0000 0.0000 880.8153 -10577.7697 147.8474 -11458.5850 -10576.0465 147.8474 203.1326 259.9762 29419.6887 203.1326 259.9762
ENERGY: 600000 0.9358 4.4371 6.6726 0.0000 -13298.2181 2127.6749 0.0000 0.0000 1062.0378 -10096.4598 178.2661 -11158.4976 -10093.9911 179.8153 -238.7983 -160.3584 29203.1920 4.4391 4.6004
TCL: Running 100000 steps at 210 kelvin.
TCL: Setting parameter langevinTemp to 210
TCL: Running for 100000 steps
ETITLE: TS BOND ANGLE DIHED IMPRP ELECT VDW BOUNDARY MISC KINETIC TOTAL TEMP POTENTIAL TOTAL3 TEMPAVG PRESSURE GPRESSURE VOLUME PRESSAVG GPRESSAVG
ENERGY: 600000 0.9358 4.4371 6.6726 0.0000 -13298.2181 2127.6749 0.0000 0.0000 1061.5149 -10096.9827 178.1783 -11158.4976 -10094.7859 178.1783 -228.2780 -160.8679 29203.1920 -228.2780 -160.8679
ENERGY: 700000 0.4561 4.3698 8.1002 0.0000 -12771.4346 1994.3543 0.0000 0.0000 1261.9610 -9502.1934 211.8238 -10764.1543 -9499.0571 210.1099 357.5224 418.5729 29212.3661 3.1052 2.9623
TCL: Running 100000 steps at 240 kelvin.
TCL: Setting parameter langevinTemp to 240
TCL: Running for 100000 steps
ETITLE: TS BOND ANGLE DIHED IMPRP ELECT VDW BOUNDARY MISC KINETIC TOTAL TEMP POTENTIAL TOTAL3 TEMPAVG PRESSURE GPRESSURE VOLUME PRESSAVG GPRESSAVG
ENERGY: 700000 0.4561 4.3698 8.1002 0.0000 -12771.4346 1994.3543 0.0000 0.0000 1261.3270 -9502.8274 211.7173 -10764.1543 -9500.5020 211.7173 341.8730 418.7136 29212.3661 341.8730 418.7136
ENERGY: 800000 1.3966 10.7121 9.9467 0.0000 -12022.0440 1763.1272 0.0000 0.0000 1482.5290 -8754.3325 248.8467 -10236.8615 -8751.8273 239.8159 387.7469 516.8802 29229.4395 2.8493 2.6674
TCL: Running 100000 steps at 270 kelvin.
TCL: Setting parameter langevinTemp to 270
TCL: Running for 100000 steps
ETITLE: TS BOND ANGLE DIHED IMPRP ELECT VDW BOUNDARY MISC KINETIC TOTAL TEMP POTENTIAL TOTAL3 TEMPAVG PRESSURE GPRESSURE VOLUME PRESSAVG GPRESSAVG
ENERGY: 800000 1.3966 10.7121 9.9467 0.0000 -12022.0440 1763.1272 0.0000 0.0000 1481.7890 -8755.0724 248.7225 -10236.8615 -8752.8024 248.7225 430.2610 516.7507 29229.4395 430.2610 516.7507
ENERGY: 900000 1.9169 7.1186 9.3327 0.0000 -11372.0704 1566.7582 0.0000 0.0000 1596.5828 -8190.3612 267.9910 -9786.9440 -8184.9311 269.6150 -118.5128 -78.5125 30140.2570 2.8687 2.7812
TCL: Running 1000000 steps at 300 kelvin.
TCL: Setting parameter langevinTemp to 300
TCL: Running for 1000000 steps
ETITLE: TS BOND ANGLE DIHED IMPRP ELECT VDW BOUNDARY MISC KINETIC TOTAL TEMP POTENTIAL TOTAL3 TEMPAVG PRESSURE GPRESSURE VOLUME PRESSAVG GPRESSAVG
ENERGY: 900000 1.9169 7.1186 9.3327 0.0000 -11372.0704 1566.7582 0.0000 0.0000 1595.7927 -8191.1513 267.8584 -9786.9440 -8188.3894 267.8584 -165.0062 -78.3102 30140.2570 -165.0062 -78.3102
ENERGY: 1100000 1.9882 15.4264 11.2228 0.0000 -10924.2254 1413.2207 0.0000 0.0000 1798.5645 -7683.8029 301.8942 -9482.3674 -7677.9940 300.7331 -473.9071 -275.8608 30702.1879 2.1999 2.2411
ENERGY: 1300000 2.2531 9.1902 8.9596 0.0000 -10840.1929 1459.1056 0.0000 0.0000 1807.4000 -7553.2845 303.3773 -9360.6845 -7551.1238 300.1372 89.7439 181.6523 31061.4800 1.3285 1.2342
ENERGY: 1500000 2.0505 12.7553 10.7158 0.0000 -10828.6605 1449.0558 0.0000 0.0000 1752.3211 -7601.7620 294.1321 -9354.0831 -7599.2561 300.4045 -18.7979 1.3185 31039.7059 4.1923 4.1611
ENERGY: 1700000 1.0432 8.1235 7.4093 0.0000 -10912.2481 1487.4529 0.0000 0.0000 1811.5038 -7596.7154 304.0661 -9408.2192 -7593.0964 300.6645 172.1337 270.1931 31005.1995 1.7046 1.7705
ENERGY: 1900000 2.7038 8.9015 9.3060 0.0000 -10764.8436 1355.8954 0.0000 0.0000 1759.4780 -7628.5589 295.3334 -9388.0369 -7625.4532 299.9091 -649.7871 -610.7357 30959.6405 2.0325 1.9306
TCL: Exiting due to exit command.
