Info: SIMULATION PARAMETERS:
Info: TIMESTEP               2
Info: NUMBER OF STEPS        0
Info: STEPS PER CYCLE        10
Info: PERIODIC CELL BASIS 1  34.207 0 0
Info: PERIODIC CELL BASIS 2  0 35.779 0
Info: PERIODIC CELL BASIS 3  0 0 35.856
Info: PERIODIC CELL CENTER   0 0 0
Info: WRAPPING WATERS AROUND PERIODIC BOUNDARIES ON OUTPUT.
Info: WRAPPING ALL CLUSTERS AROUND PERIODIC BOUNDARIES ON OUTPUT.
Info: FIRST LDB TIMESTEP     50
Info: LAST LDB TIMESTEP     -1
Info: HOM BACKGROUND SCALING 1
Info: PME BACKGROUND SCALING 1
Info: MIN ATOMS PER PATCH    40
Info: EMPTY PATCH LOAD       40 ATOMS
Info: INITIAL TEMPERATURE    300
Info: CENTER OF MASS MOVING INITIALLY? NO
Info: DIELECTRIC             1
Info: EXCLUDE                SCALED ONE-FOUR
Info: 1-4 ELECTROSTATICS SCALED BY 0.833333
Info: MODIFIED 1-4 VDW PARAMETERS WILL BE USED
Info: DCD FILENAME           mobley_1139153_equil.dcd
Info: DCD FREQUENCY          100000
Info: DCD FIRST STEP         100000
Info: DCD FILE WILL CONTAIN UNIT CELL DATA
Info: XST FILENAME           mobley_1139153_equil.xst
Info: XST FREQUENCY          100000
Info: NO VELOCITY DCD OUTPUT
Info: NO FORCE DCD OUTPUT
Info: OUTPUT FILENAME        mobley_1139153_equil
Info: BINARY OUTPUT FILES WILL BE USED
Info: RESTART FILENAME       mobley_1139153_equil.restart
Info: RESTART FREQUENCY      100000
Info: BINARY RESTART FILES WILL BE USED
Info: CUTOFF                 9
Info: PAIRLIST DISTANCE      11
Info: PAIRLIST SHRINK RATE   0.01
Info: PAIRLIST GROW RATE     0.01
Info: PAIRLIST TRIGGER       0.3
Info: PAIRLISTS PER CYCLE    2
Info: PAIRLISTS ENABLED
Info: MARGIN                 8
Info: HYDROGEN GROUP CUTOFF  2.5
Info: PATCH DIMENSION        21.5
Info: ENERGY OUTPUT STEPS    100000
Info: ENERGY EVALUATION STEPS    100000
Info: OUTPUT ENERGY PRECISION 4
Info: CROSSTERM ENERGY INCLUDED IN DIHEDRAL
Info: TIMING OUTPUT STEPS    1000000
Info: PRESSURE OUTPUT STEPS  100000
Info: LANGEVIN DYNAMICS ACTIVE
Info: LANGEVIN TEMPERATURE   30
Info: LANGEVIN USING BBK INTEGRATOR
Info: LANGEVIN DAMPING COEFFICIENT IS 1 INVERSE PS
Info: LANGEVIN DYNAMICS APPLIED TO HYDROGENS
Info: LANGEVIN PISTON PRESSURE CONTROL ACTIVE
Info:        TARGET PRESSURE IS 1.01325 BAR
Info:     OSCILLATION PERIOD IS 50 FS
Info:             DECAY TIME IS 25 FS
Info:     PISTON TEMPERATURE IS 300 K
Info:       PRESSURE CONTROL IS GROUP-BASED
Info:    INITIAL STRAIN RATE IS 0 0 0
Info:       CELL FLUCTUATION IS ISOTROPIC
Info: PARTICLE MESH EWALD (PME) ACTIVE
Info: PME TOLERANCE               1e-06
Info: PME EWALD COEFFICIENT       0.348832
Info: PME INTERPOLATION ORDER     4
Info: PME GRID DIMENSIONS         36 36 36
Info: PME MAXIMUM GRID SPACING    1
Info: FULL ELECTROSTATIC EVALUATION FREQUENCY      2
Info: USING VERLET I (r-RESPA) MTS SCHEME.
Info: C1 SPLITTING OF LONG RANGE ELECTROSTATICS
Info: PLACING ATOMS IN PATCHES BY HYDROGEN GROUPS
Info: RIGID BONDS TO HYDROGEN : ALL
Info:         ERROR TOLERANCE : 1e-08
Info:          MAX ITERATIONS : 100
Info: RIGID WATER USING SETTLE ALGORITHM
Info: RANDOM NUMBER SEED     1743237240
Info: USE HYDROGEN BONDS?    NO
Info: Using AMBER format force field!
Info: AMBER PARM FILE        mobley_1139153.prmtop
Info: COORDINATE PDB         mobley_1139153.pdb
Info: Exclusions will be read from PARM file!
Info: SCNB (VDW SCALING)     2
Info: USING ARITHMETIC MEAN TO COMBINE L-J SIGMA PARAMETERS
Info: BINARY COORDINATES     mobley_1139153_min.coor
Info: SUMMARY OF PARAMETERS:
Info: 4 BONDS
Info: 3 ANGLES
Info:   3 HARMONIC
Info:   0 COSINE-BASED
Info: 5 DIHEDRAL
Info: 0 IMPROPER
Info: 0 CROSSTERM
Info: 0 VDW
Info: 10 VDW_PAIRS
Info: 0 NBTHOLE_PAIRS
Info: STRUCTURE SUMMARY:
Info: 2939 ATOMS
Info: 2938 BONDS
Info: 48 ANGLES
Info: 73 DIHEDRALS
Info: 0 IMPROPERS
Info: 0 CROSSTERMS
Info: 3049 EXCLUSIONS
Info: 2931 RIGID BONDS
Info: 5886 DEGREES OF FREEDOM
Info: 979 HYDROGEN GROUPS
Info: 4 ATOMS IN LARGEST HYDROGEN GROUP
Info: 979 MIGRATION GROUPS
Info: 4 ATOMS IN LARGEST MIGRATION GROUP
Info: TOTAL MASS = 17607.8 amu
Info: TOTAL CHARGE = -0.000100009 e
Info: MASS DENSITY = 0.666282 g/cm^3
Info: ATOM DENSITY = 0.0669722 atoms/A^3
Info: ADDED 0 IMPLICIT EXCLUSIONS
Info: NONBONDED TABLE R-SQUARED SPACING: 0.0625
Info: NONBONDED TABLE SIZE: 705 POINTS
Info: REMOVING COM VELOCITY 0.213629 0.267855 0.0690264
TCL: Running for 100000 steps
ETITLE: TS BOND ANGLE DIHED IMPRP ELECT VDW BOUNDARY MISC KINETIC TOTAL TEMP POTENTIAL TOTAL3 TEMPAVG PRESSURE GPRESSURE VOLUME PRESSAVG GPRESSAVG
ENERGY: 0 0.8371 5.6772 3.7081 0.0000 -13534.6593 2396.0377 0.0000 0.0000 1776.7280 -9351.6712 303.8023 -11128.3992 -9351.3146 303.8023 507.7666 551.1676 43883.8806 507.7666 551.1676
ENERGY: 100000 0.8066 6.5279 3.6962 0.0000 -14102.5430 2454.4798 0.0000 0.0000 178.2798 -11458.7528 30.4840 -11637.0325 -11458.1780 30.9808 -24.4397 31.0636 28760.4417 5.5488 5.5423
TCL: Running 100000 steps at 60 kelvin.
TCL: Setting parameter langevinTemp to 60
TCL: Running for 100000 steps
ETITLE: TS BOND ANGLE DIHED IMPRP ELECT VDW BOUNDARY MISC KINETIC TOTAL TEMP POTENTIAL TOTAL3 TEMPAVG PRESSURE GPRESSURE VOLUME PRESSAVG GPRESSAVG
ENERGY: 100000 0.8066 6.5279 3.6962 0.0000 -14102.5430 2454.4798 0.0000 0.0000 178.1911 -11458.8414 30.4689 -11637.0325 -11458.4909 30.4689 -31.2909 30.9205 28760.4417 -31.2909 30.9205
ENERGY: 200000 0.8083 7.2951 4.0068 0.0000 -14020.2811 2462.3251 0.0000 0.0000 346.1778 -11199.6681 59.1929 -11545.8459 -11198.8658 59.9628 536.1286 618.0677 28466.5276 3.2287 3.1338
TCL: Running 100000 steps at 90 kelvin.
TCL: Setting parameter langevinTemp to 90
TCL: Running for 100000 steps
ETITLE: TS BOND ANGLE DIHED IMPRP ELECT VDW BOUNDARY MISC KINETIC TOTAL TEMP POTENTIAL TOTAL3 TEMPAVG PRESSURE GPRESSURE VOLUME PRESSAVG GPRESSAVG
ENERGY: 200000 0.8083 7.2951 4.0068 0.0000 -14020.2811 2462.3251 0.0000 0.0000 345.9983 -11199.8476 59.1622 -11545.8459 -11199.0353 59.1622 548.9802 618.1289 28466.5276 548.9802 618.1289
ENERGY: 300000 1.3189 8.4643 3.8868 0.0000 -13715.1614 2229.0164 0.0000 0.0000 507.7530 -10964.7220 86.8206 -11472.4750 -10964.0508 90.1945 -1250.4404 -1164.6890 28580.3039 4.1939 4.3275
TCL: Running 100000 steps at 120 kelvin.
TCL: Setting parameter langevinTemp to 120
TCL: Running for 100000 steps
ETITLE: TS BOND ANGLE DIHED IMPRP ELECT VDW BOUNDARY MISC KINETIC TOTAL TEMP POTENTIAL TOTAL3 TEMPAVG PRESSURE GPRESSURE VOLUME PRESSAVG GPRESSAVG
ENERGY: 300000 1.3189 8.4643 3.8868 0.0000 -13715.1614 2229.0164 0.0000 0.0000 507.4950 -10964.9800 86.7764 -11472.4750 -10963.9089 86.7764 -1214.0935 -1165.3054 28580.3039 -1214.0935 -1165.3054
ENERGY: 400000 1.5547 8.9448 4.1030 0.0000 -13631.0056 2254.5663 0.0000 0.0000 684.9601 -10676.8767 117.1212 -11361.8368 -10674.7857 119.7072 -568.1758 -495.7518 28677.9280 5.2301 5.2218
TCL: Running 100000 steps at 150 kelvin.
TCL: Setting parameter langevinTemp to 150
TCL: Running for 100000 steps
ETITLE: TS BOND ANGLE DIHED IMPRP ELECT VDW BOUNDARY MISC KINETIC TOTAL TEMP POTENTIAL TOTAL3 TEMPAVG PRESSURE GPRESSURE VOLUME PRESSAVG GPRESSAVG
ENERGY: 400000 1.5547 8.9448 4.1030 0.0000 -13631.0056 2254.5663 0.0000 0.0000 684.6057 -10677.2311 117.0606 -11361.8368 -10675.4108 117.0606 -556.8024 -495.4918 28677.9280 -556.8024 -495.4918
ENERGY: 500000 2.3967 12.3728 4.8733 0.0000 -13474.1535 2262.8440 0.0000 0.0000 889.6950 -10301.9717 152.1287 -11191.6667 -10299.4860 149.7285 100.7937 146.2405 28549.3192 4.0121 3.9255
TCL: Running 100000 steps at 180 kelvin.
TCL: Setting parameter langevinTemp to 180
TCL: Running for 100000 steps
ETITLE: TS BOND ANGLE DIHED IMPRP ELECT VDW BOUNDARY MISC KINETIC TOTAL TEMP POTENTIAL TOTAL3 TEMPAVG PRESSURE GPRESSURE VOLUME PRESSAVG GPRESSAVG
ENERGY: 500000 2.3967 12.3728 4.8733 0.0000 -13474.1535 2262.8440 0.0000 0.0000 889.2481 -10302.4186 152.0523 -11191.6667 -10300.6114 152.0523 96.7404 146.8041 28549.3192 96.7404 146.8041
ENERGY: 600000 1.8025 10.7721 4.3363 0.0000 -13139.7905 2235.8297 0.0000 0.0000 1071.9408 -9815.1091 183.2909 -10887.0499 -9814.1192 180.0592 1440.6905 1536.6404 28285.6583 2.9002 2.8239
TCL: Running 100000 steps at 210 kelvin.
TCL: Setting parameter langevinTemp to 210
TCL: Running for 100000 steps
ETITLE: TS BOND ANGLE DIHED IMPRP ELECT VDW BOUNDARY MISC KINETIC TOTAL TEMP POTENTIAL TOTAL3 TEMPAVG PRESSURE GPRESSURE VOLUME PRESSAVG GPRESSAVG
ENERGY: 600000 1.8025 10.7721 4.3363 0.0000 -13139.7905 2235.8297 0.0000 0.0000 1071.4363 -9815.6137 183.2046 -10887.0499 -9813.3764 183.2046 1467.4450 1534.4987 28285.6583 1467.4450 1534.4987
ENERGY: 700000 1.9692 12.0966 4.0247 0.0000 -12367.1599 1950.6565 0.0000 0.0000 1195.4220 -9202.9910 204.4049 -10398.4130 -9201.6281 209.8318 523.5674 606.4973 28557.9925 3.1240 3.1158
TCL: Running 100000 steps at 240 kelvin.
TCL: Setting parameter langevinTemp to 240
TCL: Running for 100000 steps
ETITLE: TS BOND ANGLE DIHED IMPRP ELECT VDW BOUNDARY MISC KINETIC TOTAL TEMP POTENTIAL TOTAL3 TEMPAVG PRESSURE GPRESSURE VOLUME PRESSAVG GPRESSAVG
ENERGY: 700000 1.9692 12.0966 4.0247 0.0000 -12367.1599 1950.6565 0.0000 0.0000 1194.8022 -9203.6108 204.2989 -10398.4130 -9201.8054 204.2989 537.7085 606.7074 28557.9925 537.7085 606.7074
ENERGY: 800000 2.3943 13.2207 3.6761 0.0000 -11500.4062 1594.2832 0.0000 0.0000 1411.4793 -8475.3527 241.3485 -9886.8320 -8472.0018 240.3004 -538.1909 -443.6085 28892.4448 3.7532 3.8151
TCL: Running 100000 steps at 270 kelvin.
TCL: Setting parameter langevinTemp to 270
TCL: Running for 100000 steps
ETITLE: TS BOND ANGLE DIHED IMPRP ELECT VDW BOUNDARY MISC KINETIC TOTAL TEMP POTENTIAL TOTAL3 TEMPAVG PRESSURE GPRESSURE VOLUME PRESSAVG GPRESSAVG
ENERGY: 800000 2.3943 13.2207 3.6761 0.0000 -11500.4062 1594.2832 0.0000 0.0000 1410.7921 -8476.0400 241.2310 -9886.8320 -8473.2334 241.2310 -527.2567 -444.0811 28892.4448 -527.2567 -444.0811
ENERGY: 900000 1.4091 17.9239 4.5659 0.0000 -11223.6609 1616.1095 0.0000 0.0000 1566.3965 -8017.2559 267.8378 -9583.6524 -8011.6653 270.7223 434.0178 474.5945 29280.7242 2.8752 2.9964
TCL: Running 1000000 steps at 300 kelvin.
TCL: Setting parameter langevinTemp to 300
TCL: Running for 1000000 steps
ETITLE: TS BOND ANGLE DIHED IMPRP ELECT VDW BOUNDARY MISC KINETIC TOTAL TEMP POTENTIAL TOTAL3 TEMPAVG PRESSURE GPRESSURE VOLUME PRESSAVG GPRESSAVG
ENERGY: 900000 1.4091 17.9239 4.5659 0.0000 -11223.6609 1616.1095 0.0000 0.0000 1565.5775 -8018.0749 267.6977 -9583.6524 -8015.5084 267.6977 406.8252 477.2259 29280.7242 406.8252 477.2259
ENERGY: 1100000 5.0092 14.1444 3.6228 0.0000 -10490.3799 1345.6860 0.0000 0.0000 1702.5103 -7419.4072 291.1118 -9121.9175 -7415.3057 299.8491 -891.7751 -828.4360 30911.3127 3.0722 3.1927
ENERGY: 1300000 6.8278 13.2695 4.9463 0.0000 -10707.3870 1448.0601 0.0000 0.0000 1778.9808 -7455.3025 304.1875 -9234.2833 -7454.1415 300.6819 -174.2991 -128.3414 30274.8721 3.7822 3.7549
ENERGY: 1500000 4.2628 14.1481 5.4709 0.0000 -10450.0168 1369.4119 0.0000 0.0000 1781.9599 -7274.7631 304.6969 -9056.7231 -7270.2865 300.6248 -266.5646 -234.5876 30442.3918 3.2221 3.4643
ENERGY: 1700000 3.7273 14.7433 6.3551 0.0000 -10548.6603 1348.0038 0.0000 0.0000 1747.7094 -7428.1214 298.8404 -9175.8308 -7424.8556 299.9576 -533.8563 -501.8949 30138.4584 3.1946 3.0764
ENERGY: 1900000 5.1580 8.2675 4.4075 0.0000 -10614.5546 1325.6838 0.0000 0.0000 1712.1700 -7558.8678 292.7636 -9271.0378 -7557.1138 299.6775 -1101.6123 -1077.5266 30190.8809 2.9834 3.1160
TCL: Exiting due to exit command.
