Info: SIMULATION PARAMETERS:
Info: TIMESTEP               2
Info: NUMBER OF STEPS        0
Info: STEPS PER CYCLE        10
Info: PERIODIC CELL BASIS 1  34.207 0 0
Info: PERIODIC CELL BASIS 2  0 37.549 0
Info: PERIODIC CELL BASIS 3  0 0 35.516
Info: PERIODIC CELL CENTER   0 0 0
Info: WRAPPING WATERS AROUND PERIODIC BOUNDARIES ON OUTPUT.
Info: WRAPPING ALL CLUSTERS AROUND PERIODIC BOUNDARIES ON OUTPUT.
Info: FIRST LDB TIMESTEP     50
Info: LAST LDB TIMESTEP     -1
Info: HOM BACKGROUND SCALING 1
Info: PME BACKGROUND SCALING 1
Info: MIN ATOMS PER PATCH    40
Info: EMPTY PATCH LOAD       40 ATOMS
Info: INITIAL TEMPERATURE    300
Info: CENTER OF MASS MOVING INITIALLY? NO
Info: DIELECTRIC             1
Info: EXCLUDE                SCALED ONE-FOUR
Info: 1-4 ELECTROSTATICS SCALED BY 0.833333
Info: MODIFIED 1-4 VDW PARAMETERS WILL BE USED
Info: DCD FILENAME           mobley_9617923_equil.dcd
Info: DCD FREQUENCY          100000
Info: DCD FIRST STEP         100000
Info: DCD FILE WILL CONTAIN UNIT CELL DATA
Info: XST FILENAME           mobley_9617923_equil.xst
Info: XST FREQUENCY          100000
Info: NO VELOCITY DCD OUTPUT
Info: NO FORCE DCD OUTPUT
Info: OUTPUT FILENAME        mobley_9617923_equil
Info: BINARY OUTPUT FILES WILL BE USED
Info: RESTART FILENAME       mobley_9617923_equil.restart
Info: RESTART FREQUENCY      100000
Info: BINARY RESTART FILES WILL BE USED
Info: CUTOFF                 9
Info: PAIRLIST DISTANCE      11
Info: PAIRLIST SHRINK RATE   0.01
Info: PAIRLIST GROW RATE     0.01
Info: PAIRLIST TRIGGER       0.3
Info: PAIRLISTS PER CYCLE    2
Info: PAIRLISTS ENABLED
Info: MARGIN                 8
Info: HYDROGEN GROUP CUTOFF  2.5
Info: PATCH DIMENSION        21.5
Info: ENERGY OUTPUT STEPS    100000
Info: ENERGY EVALUATION STEPS    100000
Info: OUTPUT ENERGY PRECISION 4
Info: CROSSTERM ENERGY INCLUDED IN DIHEDRAL
Info: TIMING OUTPUT STEPS    1000000
Info: PRESSURE OUTPUT STEPS  100000
Info: LANGEVIN DYNAMICS ACTIVE
Info: LANGEVIN TEMPERATURE   30
Info: LANGEVIN USING BBK INTEGRATOR
Info: LANGEVIN DAMPING COEFFICIENT IS 1 INVERSE PS
Info: LANGEVIN DYNAMICS APPLIED TO HYDROGENS
Info: LANGEVIN PISTON PRESSURE CONTROL ACTIVE
Info:        TARGET PRESSURE IS 1.01325 BAR
Info:     OSCILLATION PERIOD IS 50 FS
Info:             DECAY TIME IS 25 FS
Info:     PISTON TEMPERATURE IS 300 K
Info:       PRESSURE CONTROL IS GROUP-BASED
Info:    INITIAL STRAIN RATE IS 0 0 0
Info:       CELL FLUCTUATION IS ISOTROPIC
Info: PARTICLE MESH EWALD (PME) ACTIVE
Info: PME TOLERANCE               1e-06
Info: PME EWALD COEFFICIENT       0.348832
Info: PME INTERPOLATION ORDER     4
Info: PME GRID DIMENSIONS         36 40 36
Info: PME MAXIMUM GRID SPACING    1
Info: FULL ELECTROSTATIC EVALUATION FREQUENCY      2
Info: USING VERLET I (r-RESPA) MTS SCHEME.
Info: C1 SPLITTING OF LONG RANGE ELECTROSTATICS
Info: PLACING ATOMS IN PATCHES BY HYDROGEN GROUPS
Info: RIGID BONDS TO HYDROGEN : ALL
Info:         ERROR TOLERANCE : 1e-08
Info:          MAX ITERATIONS : 100
Info: RIGID WATER USING SETTLE ALGORITHM
Info: RANDOM NUMBER SEED     1743263671
Info: USE HYDROGEN BONDS?    NO
Info: Using AMBER format force field!
Info: AMBER PARM FILE        mobley_9617923.prmtop
Info: COORDINATE PDB         mobley_9617923.pdb
Info: Exclusions will be read from PARM file!
Info: SCNB (VDW SCALING)     2
Info: USING ARITHMETIC MEAN TO COMBINE L-J SIGMA PARAMETERS
Info: BINARY COORDINATES     mobley_9617923_min.coor
Info: SUMMARY OF PARAMETERS:
Info: 6 BONDS
Info: 7 ANGLES
Info:   7 HARMONIC
Info:   0 COSINE-BASED
Info: 11 DIHEDRAL
Info: 0 IMPROPER
Info: 0 CROSSTERM
Info: 0 VDW
Info: 21 VDW_PAIRS
Info: 0 NBTHOLE_PAIRS
Info: STRUCTURE SUMMARY:
Info: 2944 ATOMS
Info: 2943 BONDS
Info: 57 ANGLES
Info: 96 DIHEDRALS
Info: 0 IMPROPERS
Info: 0 CROSSTERMS
Info: 3075 EXCLUSIONS
Info: 2933 RIGID BONDS
Info: 5899 DEGREES OF FREEDOM
Info: 982 HYDROGEN GROUPS
Info: 4 ATOMS IN LARGEST HYDROGEN GROUP
Info: 982 MIGRATION GROUPS
Info: 4 ATOMS IN LARGEST MIGRATION GROUP
Info: TOTAL MASS = 17649.8 amu
Info: TOTAL CHARGE = 0.0002 e
Info: MASS DENSITY = 0.642483 g/cm^3
Info: ATOM DENSITY = 0.0645358 atoms/A^3
Info: ADDED 0 IMPLICIT EXCLUSIONS
Info: NONBONDED TABLE R-SQUARED SPACING: 0.0625
Info: NONBONDED TABLE SIZE: 705 POINTS
Info: REMOVING COM VELOCITY -0.00357701 -0.154145 0.00898469
TCL: Running for 100000 steps
ETITLE: TS BOND ANGLE DIHED IMPRP ELECT VDW BOUNDARY MISC KINETIC TOTAL TEMP POTENTIAL TOTAL3 TEMPAVG PRESSURE GPRESSURE VOLUME PRESSAVG GPRESSAVG
ENERGY: 0 0.1315 0.5322 5.8481 0.0000 -13575.3549 2413.9772 0.0000 0.0000 1737.2453 -9417.6207 296.3965 -11154.8660 -9417.3115 296.3965 655.6701 689.2693 45618.1228 655.6701 689.2693
ENERGY: 100000 0.5335 2.8073 6.3812 0.0000 -14182.9786 2484.1776 0.0000 0.0000 170.4899 -11518.5891 29.0878 -11689.0790 -11518.1544 30.9333 469.8490 523.6523 27992.4202 5.1236 5.0977
TCL: Running 100000 steps at 60 kelvin.
TCL: Setting parameter langevinTemp to 60
TCL: Running for 100000 steps
ETITLE: TS BOND ANGLE DIHED IMPRP ELECT VDW BOUNDARY MISC KINETIC TOTAL TEMP POTENTIAL TOTAL3 TEMPAVG PRESSURE GPRESSURE VOLUME PRESSAVG GPRESSAVG
ENERGY: 100000 0.5335 2.8073 6.3812 0.0000 -14182.9786 2484.1776 0.0000 0.0000 170.3995 -11518.6795 29.0724 -11689.0790 -11518.3790 29.0724 468.2744 523.7238 27992.4202 468.2744 523.7238
ENERGY: 200000 2.0301 3.8580 5.5772 0.0000 -13895.5748 2286.8882 0.0000 0.0000 357.1426 -11240.0787 60.9332 -11597.2213 -11238.6622 59.9540 -967.1472 -924.9400 28434.8503 5.3126 5.3349
TCL: Running 100000 steps at 90 kelvin.
TCL: Setting parameter langevinTemp to 90
TCL: Running for 100000 steps
ETITLE: TS BOND ANGLE DIHED IMPRP ELECT VDW BOUNDARY MISC KINETIC TOTAL TEMP POTENTIAL TOTAL3 TEMPAVG PRESSURE GPRESSURE VOLUME PRESSAVG GPRESSAVG
ENERGY: 200000 2.0301 3.8580 5.5772 0.0000 -13895.5748 2286.8882 0.0000 0.0000 356.9639 -11240.2575 60.9027 -11597.2213 -11239.2802 60.9027 -983.3779 -925.0468 28434.8503 -983.3779 -925.0468
ENERGY: 300000 1.6522 5.0413 6.1958 0.0000 -13807.9718 2312.1681 0.0000 0.0000 516.8331 -10966.0813 88.1784 -11482.9144 -10964.6938 90.0247 -300.9983 -283.2022 28605.1626 5.1406 5.0842
TCL: Running 100000 steps at 120 kelvin.
TCL: Setting parameter langevinTemp to 120
TCL: Running for 100000 steps
ETITLE: TS BOND ANGLE DIHED IMPRP ELECT VDW BOUNDARY MISC KINETIC TOTAL TEMP POTENTIAL TOTAL3 TEMPAVG PRESSURE GPRESSURE VOLUME PRESSAVG GPRESSAVG
ENERGY: 300000 1.6522 5.0413 6.1958 0.0000 -13807.9718 2312.1681 0.0000 0.0000 516.5671 -10966.3473 88.1330 -11482.9144 -10965.1144 88.1330 -332.5532 -282.5261 28605.1626 -332.5532 -282.5261
ENERGY: 400000 1.2759 6.0707 6.7260 0.0000 -13756.6357 2372.1322 0.0000 0.0000 689.4121 -10681.0188 117.6226 -11370.4309 -10679.9418 120.0383 457.0128 475.7178 28775.6676 4.8499 4.7450
TCL: Running 100000 steps at 150 kelvin.
TCL: Setting parameter langevinTemp to 150
TCL: Running for 100000 steps
ETITLE: TS BOND ANGLE DIHED IMPRP ELECT VDW BOUNDARY MISC KINETIC TOTAL TEMP POTENTIAL TOTAL3 TEMPAVG PRESSURE GPRESSURE VOLUME PRESSAVG GPRESSAVG
ENERGY: 400000 1.2759 6.0707 6.7260 0.0000 -13756.6357 2372.1322 0.0000 0.0000 689.0783 -10681.3526 117.5657 -11370.4309 -10680.0626 117.5657 425.6942 475.0338 28775.6676 425.6942 475.0338
ENERGY: 500000 1.8256 8.4211 5.9640 0.0000 -13454.4248 2259.1305 0.0000 0.0000 865.1529 -10313.9307 147.6063 -11179.0836 -10311.9753 149.8265 369.5765 415.6686 28522.9700 4.1944 4.1772
TCL: Running 100000 steps at 180 kelvin.
TCL: Setting parameter langevinTemp to 180
TCL: Running for 100000 steps
ETITLE: TS BOND ANGLE DIHED IMPRP ELECT VDW BOUNDARY MISC KINETIC TOTAL TEMP POTENTIAL TOTAL3 TEMPAVG PRESSURE GPRESSURE VOLUME PRESSAVG GPRESSAVG
ENERGY: 500000 1.8256 8.4211 5.9640 0.0000 -13454.4248 2259.1305 0.0000 0.0000 864.6987 -10314.3848 147.5288 -11179.0836 -10312.5719 147.5288 353.6696 416.6953 28522.9700 353.6696 416.6953
ENERGY: 600000 1.4324 9.3057 7.6503 0.0000 -13110.2720 2159.1911 0.0000 0.0000 1047.5635 -9885.1290 178.7279 -10932.6925 -9884.6959 179.9395 613.8601 707.4666 28364.3763 4.2082 4.4101
TCL: Running 100000 steps at 210 kelvin.
TCL: Setting parameter langevinTemp to 210
TCL: Running for 100000 steps
ETITLE: TS BOND ANGLE DIHED IMPRP ELECT VDW BOUNDARY MISC KINETIC TOTAL TEMP POTENTIAL TOTAL3 TEMPAVG PRESSURE GPRESSURE VOLUME PRESSAVG GPRESSAVG
ENERGY: 600000 1.4324 9.3057 7.6503 0.0000 -13110.2720 2159.1911 0.0000 0.0000 1047.0317 -9885.6609 178.6372 -10932.6925 -9883.8370 178.6372 650.7155 706.0805 28364.3763 650.7155 706.0805
ENERGY: 700000 2.8824 6.9645 7.5721 0.0000 -12344.5737 1892.9418 0.0000 0.0000 1219.5946 -9214.6182 208.0786 -10434.2128 -9211.0046 209.6943 -61.3152 -1.1607 28908.5951 2.0222 2.0480
TCL: Running 100000 steps at 240 kelvin.
TCL: Setting parameter langevinTemp to 240
TCL: Running for 100000 steps
ETITLE: TS BOND ANGLE DIHED IMPRP ELECT VDW BOUNDARY MISC KINETIC TOTAL TEMP POTENTIAL TOTAL3 TEMPAVG PRESSURE GPRESSURE VOLUME PRESSAVG GPRESSAVG
ENERGY: 700000 2.8824 6.9645 7.5721 0.0000 -12344.5737 1892.9418 0.0000 0.0000 1218.9860 -9215.2268 207.9748 -10434.2128 -9212.4434 207.9748 -79.0582 -1.7122 28908.5951 -79.0582 -1.7122
ENERGY: 800000 2.6188 8.4866 7.6563 0.0000 -11874.1954 1779.2386 0.0000 0.0000 1382.7766 -8693.4184 235.9196 -10076.1951 -8689.7909 239.9862 311.7912 432.8628 28935.0854 3.4136 3.3646
TCL: Running 100000 steps at 270 kelvin.
TCL: Setting parameter langevinTemp to 270
TCL: Running for 100000 steps
ETITLE: TS BOND ANGLE DIHED IMPRP ELECT VDW BOUNDARY MISC KINETIC TOTAL TEMP POTENTIAL TOTAL3 TEMPAVG PRESSURE GPRESSURE VOLUME PRESSAVG GPRESSAVG
ENERGY: 800000 2.6188 8.4866 7.6563 0.0000 -11874.1954 1779.2386 0.0000 0.0000 1382.1070 -8694.0881 235.8054 -10076.1951 -8691.6543 235.8054 336.6397 432.4784 28935.0854 336.6397 432.4784
ENERGY: 900000 2.2873 15.0916 8.9244 0.0000 -11151.8130 1474.5682 0.0000 0.0000 1584.4841 -8066.4573 270.3335 -9650.9414 -8064.8820 269.7360 -1122.7560 -1006.4698 30036.5402 3.9852 4.0815
TCL: Running 1000000 steps at 300 kelvin.
TCL: Setting parameter langevinTemp to 300
TCL: Running for 1000000 steps
ETITLE: TS BOND ANGLE DIHED IMPRP ELECT VDW BOUNDARY MISC KINETIC TOTAL TEMP POTENTIAL TOTAL3 TEMPAVG PRESSURE GPRESSURE VOLUME PRESSAVG GPRESSAVG
ENERGY: 900000 2.2873 15.0916 8.9244 0.0000 -11151.8130 1474.5682 0.0000 0.0000 1583.6638 -8067.2776 270.1936 -9650.9414 -8064.0228 270.1936 -1091.4774 -1006.7707 30036.5402 -1091.4774 -1006.7707
ENERGY: 1100000 2.2369 10.8825 8.3564 0.0000 -10659.8159 1462.5852 0.0000 0.0000 1724.3404 -7451.4144 294.1948 -9175.7548 -7451.9765 300.4300 252.1511 351.1941 30332.8067 2.2650 2.2353
ENERGY: 1300000 2.3804 12.3690 9.4716 0.0000 -10693.4454 1436.4400 0.0000 0.0000 1733.9790 -7498.8054 295.8393 -9232.7843 -7496.4987 300.3597 -171.0208 -126.2275 30322.9215 2.0487 2.2110
ENERGY: 1500000 5.8736 11.7466 8.7049 0.0000 -10589.9540 1416.9377 0.0000 0.0000 1759.6884 -7387.0027 300.2256 -9146.6911 -7385.6751 300.3651 410.7720 410.3947 30060.7323 1.8516 1.8375
ENERGY: 1700000 4.3068 15.7845 8.8601 0.0000 -10518.9956 1353.6451 0.0000 0.0000 1771.7319 -7364.6672 302.2804 -9136.3991 -7360.3036 300.7511 -270.0567 -195.8141 30513.1881 3.0241 2.9525
ENERGY: 1900000 2.8895 24.8793 7.7538 0.0000 -10560.0593 1379.2368 0.0000 0.0000 1771.4355 -7373.8644 302.2298 -9145.2999 -7370.2659 300.1400 -206.4577 -175.4119 30344.4926 3.2995 3.3698
TCL: Exiting due to exit command.
