Info: SIMULATION PARAMETERS:
Info: TIMESTEP               2
Info: NUMBER OF STEPS        0
Info: STEPS PER CYCLE        10
Info: PERIODIC CELL BASIS 1  34.207 0 0
Info: PERIODIC CELL BASIS 2  0 35.847 0
Info: PERIODIC CELL BASIS 3  0 0 36.199
Info: PERIODIC CELL CENTER   0 0 0
Info: WRAPPING WATERS AROUND PERIODIC BOUNDARIES ON OUTPUT.
Info: WRAPPING ALL CLUSTERS AROUND PERIODIC BOUNDARIES ON OUTPUT.
Info: FIRST LDB TIMESTEP     50
Info: LAST LDB TIMESTEP     -1
Info: HOM BACKGROUND SCALING 1
Info: PME BACKGROUND SCALING 1
Info: MIN ATOMS PER PATCH    40
Info: EMPTY PATCH LOAD       40 ATOMS
Info: INITIAL TEMPERATURE    300
Info: CENTER OF MASS MOVING INITIALLY? NO
Info: DIELECTRIC             1
Info: EXCLUDE                SCALED ONE-FOUR
Info: 1-4 ELECTROSTATICS SCALED BY 0.833333
Info: MODIFIED 1-4 VDW PARAMETERS WILL BE USED
Info: DCD FILENAME           mobley_4506634_equil.dcd
Info: DCD FREQUENCY          100000
Info: DCD FIRST STEP         100000
Info: DCD FILE WILL CONTAIN UNIT CELL DATA
Info: XST FILENAME           mobley_4506634_equil.xst
Info: XST FREQUENCY          100000
Info: NO VELOCITY DCD OUTPUT
Info: NO FORCE DCD OUTPUT
Info: OUTPUT FILENAME        mobley_4506634_equil
Info: BINARY OUTPUT FILES WILL BE USED
Info: RESTART FILENAME       mobley_4506634_equil.restart
Info: RESTART FREQUENCY      100000
Info: BINARY RESTART FILES WILL BE USED
Info: CUTOFF                 9
Info: PAIRLIST DISTANCE      11
Info: PAIRLIST SHRINK RATE   0.01
Info: PAIRLIST GROW RATE     0.01
Info: PAIRLIST TRIGGER       0.3
Info: PAIRLISTS PER CYCLE    2
Info: PAIRLISTS ENABLED
Info: MARGIN                 8
Info: HYDROGEN GROUP CUTOFF  2.5
Info: PATCH DIMENSION        21.5
Info: ENERGY OUTPUT STEPS    100000
Info: ENERGY EVALUATION STEPS    100000
Info: OUTPUT ENERGY PRECISION 4
Info: CROSSTERM ENERGY INCLUDED IN DIHEDRAL
Info: TIMING OUTPUT STEPS    1000000
Info: PRESSURE OUTPUT STEPS  100000
Info: LANGEVIN DYNAMICS ACTIVE
Info: LANGEVIN TEMPERATURE   30
Info: LANGEVIN USING BBK INTEGRATOR
Info: LANGEVIN DAMPING COEFFICIENT IS 1 INVERSE PS
Info: LANGEVIN DYNAMICS APPLIED TO HYDROGENS
Info: LANGEVIN PISTON PRESSURE CONTROL ACTIVE
Info:        TARGET PRESSURE IS 1.01325 BAR
Info:     OSCILLATION PERIOD IS 50 FS
Info:             DECAY TIME IS 25 FS
Info:     PISTON TEMPERATURE IS 300 K
Info:       PRESSURE CONTROL IS GROUP-BASED
Info:    INITIAL STRAIN RATE IS 0 0 0
Info:       CELL FLUCTUATION IS ISOTROPIC
Info: PARTICLE MESH EWALD (PME) ACTIVE
Info: PME TOLERANCE               1e-06
Info: PME EWALD COEFFICIENT       0.348832
Info: PME INTERPOLATION ORDER     4
Info: PME GRID DIMENSIONS         36 36 40
Info: PME MAXIMUM GRID SPACING    1
Info: FULL ELECTROSTATIC EVALUATION FREQUENCY      2
Info: USING VERLET I (r-RESPA) MTS SCHEME.
Info: C1 SPLITTING OF LONG RANGE ELECTROSTATICS
Info: PLACING ATOMS IN PATCHES BY HYDROGEN GROUPS
Info: RIGID BONDS TO HYDROGEN : ALL
Info:         ERROR TOLERANCE : 1e-08
Info:          MAX ITERATIONS : 100
Info: RIGID WATER USING SETTLE ALGORITHM
Info: RANDOM NUMBER SEED     1743157904
Info: USE HYDROGEN BONDS?    NO
Info: Using AMBER format force field!
Info: AMBER PARM FILE        mobley_4506634.prmtop
Info: COORDINATE PDB         mobley_4506634.pdb
Info: Exclusions will be read from PARM file!
Info: SCNB (VDW SCALING)     2
Info: USING ARITHMETIC MEAN TO COMBINE L-J SIGMA PARAMETERS
Info: BINARY COORDINATES     mobley_4506634_min.coor
Info: SUMMARY OF PARAMETERS:
Info: 7 BONDS
Info: 8 ANGLES
Info:   8 HARMONIC
Info:   0 COSINE-BASED
Info: 1 DIHEDRAL
Info: 0 IMPROPER
Info: 0 CROSSTERM
Info: 0 VDW
Info: 28 VDW_PAIRS
Info: 0 NBTHOLE_PAIRS
Info: STRUCTURE SUMMARY:
Info: 2984 ATOMS
Info: 2983 BONDS
Info: 12 ANGLES
Info: 9 DIHEDRALS
Info: 0 IMPROPERS
Info: 0 CROSSTERMS
Info: 3004 EXCLUSIONS
Info: 2977 RIGID BONDS
Info: 5975 DEGREES OF FREEDOM
Info: 999 HYDROGEN GROUPS
Info: 3 ATOMS IN LARGEST HYDROGEN GROUP
Info: 999 MIGRATION GROUPS
Info: 3 ATOMS IN LARGEST MIGRATION GROUP
Info: TOTAL MASS = 18069.3 amu
Info: TOTAL CHARGE = 9.99905e-05 e
Info: MASS DENSITY = 0.675982 g/cm^3
Info: ATOM DENSITY = 0.0672256 atoms/A^3
Info: ADDED 0 IMPLICIT EXCLUSIONS
Info: NONBONDED TABLE R-SQUARED SPACING: 0.0625
Info: NONBONDED TABLE SIZE: 705 POINTS
Info: REMOVING COM VELOCITY 0.120798 -0.10607 -0.164633
TCL: Running for 100000 steps
ETITLE: TS BOND ANGLE DIHED IMPRP ELECT VDW BOUNDARY MISC KINETIC TOTAL TEMP POTENTIAL TOTAL3 TEMPAVG PRESSURE GPRESSURE VOLUME PRESSAVG GPRESSAVG
ENERGY: 0 0.0392 0.3467 0.0059 0.0000 -13818.0911 2462.0053 0.0000 0.0000 1819.8347 -9535.8593 306.5381 -11355.6940 -9535.4990 306.5381 715.4008 749.7131 44387.8773 715.4008 749.7131
ENERGY: 100000 0.4364 0.5323 0.0222 0.0000 -14248.8661 2312.8111 0.0000 0.0000 179.4456 -11755.6184 30.2263 -11935.0640 -11754.9138 30.9041 -1856.5594 -1801.7484 29433.8504 3.8578 3.8541
TCL: Running 100000 steps at 60 kelvin.
TCL: Setting parameter langevinTemp to 60
TCL: Running for 100000 steps
ETITLE: TS BOND ANGLE DIHED IMPRP ELECT VDW BOUNDARY MISC KINETIC TOTAL TEMP POTENTIAL TOTAL3 TEMPAVG PRESSURE GPRESSURE VOLUME PRESSAVG GPRESSAVG
ENERGY: 100000 0.4364 0.5323 0.0222 0.0000 -14248.8661 2312.8111 0.0000 0.0000 179.3566 -11755.7075 30.2113 -11935.0640 -11755.3181 30.2113 -1848.5525 -1801.3263 29433.8504 -1848.5525 -1801.3263
ENERGY: 200000 0.5635 1.5986 0.1217 0.0000 -14280.1344 2446.4272 0.0000 0.0000 348.8168 -11482.6067 58.7557 -11831.4235 -11481.8358 59.9308 -41.6339 35.3603 28852.9176 2.6801 2.6886
TCL: Running 100000 steps at 90 kelvin.
TCL: Setting parameter langevinTemp to 90
TCL: Running for 100000 steps
ETITLE: TS BOND ANGLE DIHED IMPRP ELECT VDW BOUNDARY MISC KINETIC TOTAL TEMP POTENTIAL TOTAL3 TEMPAVG PRESSURE GPRESSURE VOLUME PRESSAVG GPRESSAVG
ENERGY: 200000 0.5635 1.5986 0.1217 0.0000 -14280.1344 2446.4272 0.0000 0.0000 348.6438 -11482.7796 58.7265 -11831.4235 -11482.1638 58.7265 -33.3469 35.3177 28852.9176 -33.3469 35.3177
ENERGY: 300000 0.2408 1.0446 0.0169 0.0000 -14054.9811 2295.2987 0.0000 0.0000 515.6374 -11242.7427 86.8554 -11758.3801 -11241.0446 89.8920 -1132.6666 -1091.6998 29294.8983 3.5273 3.4499
TCL: Running 100000 steps at 120 kelvin.
TCL: Setting parameter langevinTemp to 120
TCL: Running for 100000 steps
ETITLE: TS BOND ANGLE DIHED IMPRP ELECT VDW BOUNDARY MISC KINETIC TOTAL TEMP POTENTIAL TOTAL3 TEMPAVG PRESSURE GPRESSURE VOLUME PRESSAVG GPRESSAVG
ENERGY: 300000 0.2408 1.0446 0.0169 0.0000 -14054.9811 2295.2987 0.0000 0.0000 515.3805 -11242.9996 86.8121 -11758.3801 -11241.8253 86.8121 -1136.7187 -1091.5250 29294.8983 -1136.7187 -1091.5250
ENERGY: 400000 1.0094 1.3285 0.1335 0.0000 -13963.2277 2304.4960 0.0000 0.0000 720.9945 -10935.2658 121.4463 -11656.2603 -10932.8639 119.8997 -768.0035 -735.2676 29373.2090 3.0773 3.0635
TCL: Running 100000 steps at 150 kelvin.
TCL: Setting parameter langevinTemp to 150
TCL: Running for 100000 steps
ETITLE: TS BOND ANGLE DIHED IMPRP ELECT VDW BOUNDARY MISC KINETIC TOTAL TEMP POTENTIAL TOTAL3 TEMPAVG PRESSURE GPRESSURE VOLUME PRESSAVG GPRESSAVG
ENERGY: 400000 1.0094 1.3285 0.1335 0.0000 -13963.2277 2304.4960 0.0000 0.0000 720.6378 -10935.6225 121.3863 -11656.2603 -10934.2145 121.3863 -780.3308 -734.3101 29373.2090 -780.3308 -734.3101
ENERGY: 500000 0.7962 1.0147 0.0151 0.0000 -13811.5652 2392.6374 0.0000 0.0000 879.1381 -10537.9637 148.0845 -11417.1018 -10535.5063 150.2869 836.5595 895.7692 29305.7088 4.1730 4.0984
TCL: Running 100000 steps at 180 kelvin.
TCL: Setting parameter langevinTemp to 180
TCL: Running for 100000 steps
ETITLE: TS BOND ANGLE DIHED IMPRP ELECT VDW BOUNDARY MISC KINETIC TOTAL TEMP POTENTIAL TOTAL3 TEMPAVG PRESSURE GPRESSURE VOLUME PRESSAVG GPRESSAVG
ENERGY: 500000 0.7962 1.0147 0.0151 0.0000 -13811.5652 2392.6374 0.0000 0.0000 878.7051 -10538.3968 148.0115 -11417.1018 -10536.6242 148.0115 852.8699 896.5741 29305.7088 852.8699 896.5741
ENERGY: 600000 0.6764 0.7806 0.0611 0.0000 -13147.6670 2043.7972 0.0000 0.0000 1081.9223 -10020.4294 182.2420 -11102.3517 -10018.2960 180.0177 -736.9223 -695.5899 29281.5564 3.7831 3.9018
TCL: Running 100000 steps at 210 kelvin.
TCL: Setting parameter langevinTemp to 210
TCL: Running for 100000 steps
ETITLE: TS BOND ANGLE DIHED IMPRP ELECT VDW BOUNDARY MISC KINETIC TOTAL TEMP POTENTIAL TOTAL3 TEMPAVG PRESSURE GPRESSURE VOLUME PRESSAVG GPRESSAVG
ENERGY: 600000 0.6764 0.7806 0.0611 0.0000 -13147.6670 2043.7972 0.0000 0.0000 1081.3663 -10020.9854 182.1484 -11102.3517 -10018.7533 182.1484 -758.1872 -695.8484 29281.5564 -758.1872 -695.8484
ENERGY: 700000 0.7644 2.4943 0.0304 0.0000 -12385.2917 1757.6933 0.0000 0.0000 1250.1378 -9374.1715 210.5767 -10624.3093 -9371.5584 209.9851 -1015.6093 -967.9695 28864.8821 3.5044 3.6419
TCL: Running 100000 steps at 240 kelvin.
TCL: Setting parameter langevinTemp to 240
TCL: Running for 100000 steps
ETITLE: TS BOND ANGLE DIHED IMPRP ELECT VDW BOUNDARY MISC KINETIC TOTAL TEMP POTENTIAL TOTAL3 TEMPAVG PRESSURE GPRESSURE VOLUME PRESSAVG GPRESSAVG
ENERGY: 700000 0.7644 2.4943 0.0304 0.0000 -12385.2917 1757.6933 0.0000 0.0000 1249.5157 -9374.7937 210.4719 -10624.3093 -9372.8915 210.4719 -1037.8200 -966.3994 28864.8821 -1037.8200 -966.3994
ENERGY: 800000 0.6583 2.1815 0.1361 0.0000 -11946.8532 1784.6806 0.0000 0.0000 1373.8466 -8785.3501 231.4146 -10159.1967 -8782.1591 239.9899 418.2165 498.3862 29466.9320 1.9178 1.5872
TCL: Running 100000 steps at 270 kelvin.
TCL: Setting parameter langevinTemp to 270
TCL: Running for 100000 steps
ETITLE: TS BOND ANGLE DIHED IMPRP ELECT VDW BOUNDARY MISC KINETIC TOTAL TEMP POTENTIAL TOTAL3 TEMPAVG PRESSURE GPRESSURE VOLUME PRESSAVG GPRESSAVG
ENERGY: 800000 0.6583 2.1815 0.1361 0.0000 -11946.8532 1784.6806 0.0000 0.0000 1373.1552 -8786.0415 231.2981 -10159.1967 -8783.8015 231.2981 426.9175 497.8324 29466.9320 426.9175 497.8324
ENERGY: 900000 1.3240 2.7113 0.5566 0.0000 -11317.4926 1581.0004 0.0000 0.0000 1574.5183 -8157.3821 265.2163 -9731.9003 -8154.4745 269.4401 -132.9318 -16.2359 30373.0284 3.1779 3.1977
TCL: Running 1000000 steps at 300 kelvin.
TCL: Setting parameter langevinTemp to 300
TCL: Running for 1000000 steps
ETITLE: TS BOND ANGLE DIHED IMPRP ELECT VDW BOUNDARY MISC KINETIC TOTAL TEMP POTENTIAL TOTAL3 TEMPAVG PRESSURE GPRESSURE VOLUME PRESSAVG GPRESSAVG
ENERGY: 900000 1.3240 2.7113 0.5566 0.0000 -11317.4926 1581.0004 0.0000 0.0000 1573.7178 -8158.1825 265.0814 -9731.9003 -8155.6686 265.0814 -106.7340 -17.5152 30373.0284 -106.7340 -17.5152
ENERGY: 1100000 2.1917 2.2178 0.0090 0.0000 -10966.2533 1508.3102 0.0000 0.0000 1812.7565 -7640.7681 305.3458 -9453.5246 -7637.8881 300.0534 87.2895 177.0446 30821.2004 0.6046 0.7091
ENERGY: 1300000 1.1910 6.9045 0.1645 0.0000 -10800.7597 1447.5687 0.0000 0.0000 1779.1304 -7565.8005 299.6817 -9344.9309 -7563.8109 299.9089 42.9786 105.2055 30936.0385 2.9314 2.9956
ENERGY: 1500000 2.5426 2.5179 0.0410 0.0000 -10955.6512 1501.8043 0.0000 0.0000 1735.4611 -7713.2844 292.3259 -9448.7455 -7709.9668 300.1661 145.5705 260.5037 30547.6680 2.4951 2.3692
ENERGY: 1700000 3.2337 1.4568 0.1052 0.0000 -10871.9964 1430.8142 0.0000 0.0000 1776.9255 -7659.4609 299.3103 -9436.3865 -7658.4320 300.5094 -680.0901 -570.7944 31644.1903 3.2459 3.3353
ENERGY: 1900000 3.2458 2.0785 0.0619 0.0000 -10906.3980 1467.1816 0.0000 0.0000 1803.6253 -7630.2049 303.8077 -9433.8302 -7627.2963 300.9630 -246.3320 -112.2170 31091.2085 3.3586 3.4719
TCL: Exiting due to exit command.
