Info: SIMULATION PARAMETERS:
Info: TIMESTEP               2
Info: NUMBER OF STEPS        0
Info: STEPS PER CYCLE        10
Info: PERIODIC CELL BASIS 1  35.01 0 0
Info: PERIODIC CELL BASIS 2  0 34.26 0
Info: PERIODIC CELL BASIS 3  0 0 35.723
Info: PERIODIC CELL CENTER   0 0 0
Info: WRAPPING WATERS AROUND PERIODIC BOUNDARIES ON OUTPUT.
Info: WRAPPING ALL CLUSTERS AROUND PERIODIC BOUNDARIES ON OUTPUT.
Info: FIRST LDB TIMESTEP     50
Info: LAST LDB TIMESTEP     -1
Info: HOM BACKGROUND SCALING 1
Info: PME BACKGROUND SCALING 1
Info: MIN ATOMS PER PATCH    40
Info: EMPTY PATCH LOAD       40 ATOMS
Info: INITIAL TEMPERATURE    300
Info: CENTER OF MASS MOVING INITIALLY? NO
Info: DIELECTRIC             1
Info: EXCLUDE                SCALED ONE-FOUR
Info: 1-4 ELECTROSTATICS SCALED BY 0.833333
Info: MODIFIED 1-4 VDW PARAMETERS WILL BE USED
Info: DCD FILENAME           mobley_2996632_equil.dcd
Info: DCD FREQUENCY          100000
Info: DCD FIRST STEP         100000
Info: DCD FILE WILL CONTAIN UNIT CELL DATA
Info: XST FILENAME           mobley_2996632_equil.xst
Info: XST FREQUENCY          100000
Info: NO VELOCITY DCD OUTPUT
Info: NO FORCE DCD OUTPUT
Info: OUTPUT FILENAME        mobley_2996632_equil
Info: BINARY OUTPUT FILES WILL BE USED
Info: RESTART FILENAME       mobley_2996632_equil.restart
Info: RESTART FREQUENCY      100000
Info: BINARY RESTART FILES WILL BE USED
Info: CUTOFF                 9
Info: PAIRLIST DISTANCE      11
Info: PAIRLIST SHRINK RATE   0.01
Info: PAIRLIST GROW RATE     0.01
Info: PAIRLIST TRIGGER       0.3
Info: PAIRLISTS PER CYCLE    2
Info: PAIRLISTS ENABLED
Info: MARGIN                 8
Info: HYDROGEN GROUP CUTOFF  2.5
Info: PATCH DIMENSION        21.5
Info: ENERGY OUTPUT STEPS    100000
Info: ENERGY EVALUATION STEPS    100000
Info: OUTPUT ENERGY PRECISION 4
Info: CROSSTERM ENERGY INCLUDED IN DIHEDRAL
Info: TIMING OUTPUT STEPS    1000000
Info: PRESSURE OUTPUT STEPS  100000
Info: LANGEVIN DYNAMICS ACTIVE
Info: LANGEVIN TEMPERATURE   30
Info: LANGEVIN USING BBK INTEGRATOR
Info: LANGEVIN DAMPING COEFFICIENT IS 1 INVERSE PS
Info: LANGEVIN DYNAMICS APPLIED TO HYDROGENS
Info: LANGEVIN PISTON PRESSURE CONTROL ACTIVE
Info:        TARGET PRESSURE IS 1.01325 BAR
Info:     OSCILLATION PERIOD IS 50 FS
Info:             DECAY TIME IS 25 FS
Info:     PISTON TEMPERATURE IS 300 K
Info:       PRESSURE CONTROL IS GROUP-BASED
Info:    INITIAL STRAIN RATE IS 0 0 0
Info:       CELL FLUCTUATION IS ISOTROPIC
Info: PARTICLE MESH EWALD (PME) ACTIVE
Info: PME TOLERANCE               1e-06
Info: PME EWALD COEFFICIENT       0.348832
Info: PME INTERPOLATION ORDER     4
Info: PME GRID DIMENSIONS         36 36 36
Info: PME MAXIMUM GRID SPACING    1
Info: FULL ELECTROSTATIC EVALUATION FREQUENCY      2
Info: USING VERLET I (r-RESPA) MTS SCHEME.
Info: C1 SPLITTING OF LONG RANGE ELECTROSTATICS
Info: PLACING ATOMS IN PATCHES BY HYDROGEN GROUPS
Info: RIGID BONDS TO HYDROGEN : ALL
Info:         ERROR TOLERANCE : 1e-08
Info:          MAX ITERATIONS : 100
Info: RIGID WATER USING SETTLE ALGORITHM
Info: RANDOM NUMBER SEED     1743143474
Info: USE HYDROGEN BONDS?    NO
Info: Using AMBER format force field!
Info: AMBER PARM FILE        mobley_2996632.prmtop
Info: COORDINATE PDB         mobley_2996632.pdb
Info: Exclusions will be read from PARM file!
Info: SCNB (VDW SCALING)     2
Info: USING ARITHMETIC MEAN TO COMBINE L-J SIGMA PARAMETERS
Info: BINARY COORDINATES     mobley_2996632_min.coor
Info: SUMMARY OF PARAMETERS:
Info: 4 BONDS
Info: 2 ANGLES
Info:   2 HARMONIC
Info:   0 COSINE-BASED
Info: 0 DIHEDRAL
Info: 0 IMPROPER
Info: 0 CROSSTERM
Info: 0 VDW
Info: 15 VDW_PAIRS
Info: 0 NBTHOLE_PAIRS
Info: STRUCTURE SUMMARY:
Info: 2903 ATOMS
Info: 2902 BONDS
Info: 6 ANGLES
Info: 0 DIHEDRALS
Info: 0 IMPROPERS
Info: 0 CROSSTERMS
Info: 2908 EXCLUSIONS
Info: 2899 RIGID BONDS
Info: 5810 DEGREES OF FREEDOM
Info: 970 HYDROGEN GROUPS
Info: 3 ATOMS IN LARGEST HYDROGEN GROUP
Info: 970 MIGRATION GROUPS
Info: 3 ATOMS IN LARGEST MIGRATION GROUP
Info: TOTAL MASS = 17522.8 amu
Info: TOTAL CHARGE = -3.72529e-08 e
Info: MASS DENSITY = 0.679103 g/cm^3
Info: ATOM DENSITY = 0.0677516 atoms/A^3
Info: ADDED 0 IMPLICIT EXCLUSIONS
Info: NONBONDED TABLE R-SQUARED SPACING: 0.0625
Info: NONBONDED TABLE SIZE: 705 POINTS
Info: REMOVING COM VELOCITY 0.126609 -0.277032 -0.0241383
TCL: Running for 100000 steps
ETITLE: TS BOND ANGLE DIHED IMPRP ELECT VDW BOUNDARY MISC KINETIC TOTAL TEMP POTENTIAL TOTAL3 TEMPAVG PRESSURE GPRESSURE VOLUME PRESSAVG GPRESSAVG
ENERGY: 0 0.0060 0.1459 0.0000 0.0000 -13467.3462 2375.2122 0.0000 0.0000 1753.3119 -9338.6701 303.7200 -11091.9820 -9338.3564 303.7200 523.8959 561.9412 42847.6880 523.8959 561.9412
ENERGY: 100000 0.1732 0.2958 0.0000 0.0000 -13966.6027 2365.3906 0.0000 0.0000 173.6323 -11427.1108 30.0777 -11600.7431 -11426.4939 30.8783 -714.7599 -653.0763 28490.0636 3.8552 3.8627
TCL: Running 100000 steps at 60 kelvin.
TCL: Setting parameter langevinTemp to 60
TCL: Running for 100000 steps
ETITLE: TS BOND ANGLE DIHED IMPRP ELECT VDW BOUNDARY MISC KINETIC TOTAL TEMP POTENTIAL TOTAL3 TEMPAVG PRESSURE GPRESSURE VOLUME PRESSAVG GPRESSAVG
ENERGY: 100000 0.1732 0.2958 0.0000 0.0000 -13966.6027 2365.3906 0.0000 0.0000 173.5415 -11427.2016 30.0620 -11600.7431 -11426.7914 30.0620 -703.8827 -653.1838 28490.0636 -703.8827 -653.1838
ENERGY: 200000 0.1056 1.0584 0.0000 0.0000 -13772.3399 2250.6915 0.0000 0.0000 344.7871 -11175.6972 59.7263 -11520.4843 -11174.8060 59.9668 -1301.2405 -1268.5921 28570.6368 3.1724 3.1606
TCL: Running 100000 steps at 90 kelvin.
TCL: Setting parameter langevinTemp to 90
TCL: Running for 100000 steps
ETITLE: TS BOND ANGLE DIHED IMPRP ELECT VDW BOUNDARY MISC KINETIC TOTAL TEMP POTENTIAL TOTAL3 TEMPAVG PRESSURE GPRESSURE VOLUME PRESSAVG GPRESSAVG
ENERGY: 200000 0.1056 1.0584 0.0000 0.0000 -13772.3399 2250.6915 0.0000 0.0000 344.6124 -11175.8719 59.6960 -11520.4843 -11175.0208 59.6960 -1317.5788 -1268.4386 28570.6368 -1317.5788 -1268.4386
ENERGY: 300000 0.1134 0.2819 0.0000 0.0000 -13773.2556 2340.4310 0.0000 0.0000 538.2543 -10894.1751 93.2399 -11432.4293 -10893.0325 89.8199 -48.4937 -19.6578 28322.6059 4.6065 4.6395
TCL: Running 100000 steps at 120 kelvin.
TCL: Setting parameter langevinTemp to 120
TCL: Running for 100000 steps
ETITLE: TS BOND ANGLE DIHED IMPRP ELECT VDW BOUNDARY MISC KINETIC TOTAL TEMP POTENTIAL TOTAL3 TEMPAVG PRESSURE GPRESSURE VOLUME PRESSAVG GPRESSAVG
ENERGY: 300000 0.1134 0.2819 0.0000 0.0000 -13773.2556 2340.4310 0.0000 0.0000 538.0046 -10894.4248 93.1966 -11432.4293 -10893.2460 93.1966 -55.3896 -19.8942 28322.6059 -55.3896 -19.8942
ENERGY: 400000 0.0971 1.6489 0.0000 0.0000 -13643.7427 2346.2902 0.0000 0.0000 690.0865 -10605.6201 119.5412 -11295.7066 -10604.9164 120.3852 643.4459 688.3202 28110.9353 4.9794 4.9301
TCL: Running 100000 steps at 150 kelvin.
TCL: Setting parameter langevinTemp to 150
TCL: Running for 100000 steps
ETITLE: TS BOND ANGLE DIHED IMPRP ELECT VDW BOUNDARY MISC KINETIC TOTAL TEMP POTENTIAL TOTAL3 TEMPAVG PRESSURE GPRESSURE VOLUME PRESSAVG GPRESSAVG
ENERGY: 400000 0.0971 1.6489 0.0000 0.0000 -13643.7427 2346.2902 0.0000 0.0000 689.7402 -10605.9664 119.4813 -11295.7066 -10604.3537 119.4813 640.9308 686.8246 28110.9353 640.9308 686.8246
ENERGY: 500000 1.4640 0.3462 0.0000 0.0000 -13307.1422 2182.9878 0.0000 0.0000 858.9469 -10263.3974 148.7923 -11122.3443 -10260.8268 150.1466 -417.2318 -361.7535 28600.7621 3.6355 3.4542
TCL: Running 100000 steps at 180 kelvin.
TCL: Setting parameter langevinTemp to 180
TCL: Running for 100000 steps
ETITLE: TS BOND ANGLE DIHED IMPRP ELECT VDW BOUNDARY MISC KINETIC TOTAL TEMP POTENTIAL TOTAL3 TEMPAVG PRESSURE GPRESSURE VOLUME PRESSAVG GPRESSAVG
ENERGY: 500000 1.4640 0.3462 0.0000 0.0000 -13307.1422 2182.9878 0.0000 0.0000 858.5312 -10263.8130 148.7203 -11122.3443 -10262.2225 148.7203 -424.9496 -361.0431 28600.7621 -424.9496 -361.0431
ENERGY: 600000 0.1277 1.7042 0.0000 0.0000 -12963.4751 2139.6845 0.0000 0.0000 1084.8993 -9737.0594 187.9333 -10821.9587 -9733.1868 180.0954 455.0670 543.8421 28407.9430 4.4514 4.5770
TCL: Running 100000 steps at 210 kelvin.
TCL: Setting parameter langevinTemp to 210
TCL: Running for 100000 steps
ETITLE: TS BOND ANGLE DIHED IMPRP ELECT VDW BOUNDARY MISC KINETIC TOTAL TEMP POTENTIAL TOTAL3 TEMPAVG PRESSURE GPRESSURE VOLUME PRESSAVG GPRESSAVG
ENERGY: 600000 0.1277 1.7042 0.0000 0.0000 -12963.4751 2139.6845 0.0000 0.0000 1084.3721 -9737.5866 187.8420 -10821.9587 -9735.8046 187.8420 471.4084 544.9540 28407.9430 471.4084 544.9540
ENERGY: 700000 0.3385 1.0202 0.0000 0.0000 -12274.5672 1864.4740 0.0000 0.0000 1258.7492 -9149.9852 218.0487 -10408.7345 -9147.9694 209.6679 -148.3365 -91.7051 28181.8074 3.4445 3.3040
TCL: Running 100000 steps at 240 kelvin.
TCL: Setting parameter langevinTemp to 240
TCL: Running for 100000 steps
ETITLE: TS BOND ANGLE DIHED IMPRP ELECT VDW BOUNDARY MISC KINETIC TOTAL TEMP POTENTIAL TOTAL3 TEMPAVG PRESSURE GPRESSURE VOLUME PRESSAVG GPRESSAVG
ENERGY: 700000 0.3385 1.0202 0.0000 0.0000 -12274.5672 1864.4740 0.0000 0.0000 1258.1132 -9150.6213 217.9385 -10408.7345 -9148.5032 217.9385 -164.1781 -91.9655 28181.8074 -164.1781 -91.9655
ENERGY: 800000 0.7896 3.6354 0.0000 0.0000 -11531.3030 1638.3577 0.0000 0.0000 1376.0451 -8512.4752 238.3674 -9888.5202 -8508.1875 240.1787 -431.4919 -358.0786 28960.5847 4.5229 4.5993
TCL: Running 100000 steps at 270 kelvin.
TCL: Setting parameter langevinTemp to 270
TCL: Running for 100000 steps
ETITLE: TS BOND ANGLE DIHED IMPRP ELECT VDW BOUNDARY MISC KINETIC TOTAL TEMP POTENTIAL TOTAL3 TEMPAVG PRESSURE GPRESSURE VOLUME PRESSAVG GPRESSAVG
ENERGY: 800000 0.7896 3.6354 0.0000 0.0000 -11531.3030 1638.3577 0.0000 0.0000 1375.3450 -8513.1752 238.2462 -9888.5202 -8510.5400 238.2462 -442.9453 -357.5505 28960.5847 -442.9453 -357.5505
ENERGY: 900000 0.2321 1.5676 0.0000 0.0000 -11123.5903 1571.4557 0.0000 0.0000 1607.2596 -7943.0754 278.4199 -9550.3349 -7940.7593 270.0707 191.9908 279.5650 28926.8374 2.5702 2.6069
TCL: Running 1000000 steps at 300 kelvin.
TCL: Setting parameter langevinTemp to 300
TCL: Running for 1000000 steps
ETITLE: TS BOND ANGLE DIHED IMPRP ELECT VDW BOUNDARY MISC KINETIC TOTAL TEMP POTENTIAL TOTAL3 TEMPAVG PRESSURE GPRESSURE VOLUME PRESSAVG GPRESSAVG
ENERGY: 900000 0.2321 1.5676 0.0000 0.0000 -11123.5903 1571.4557 0.0000 0.0000 1606.4971 -7943.8378 278.2878 -9550.3349 -7941.1416 278.2878 200.5915 281.8790 28926.8374 200.5915 281.8790
ENERGY: 1100000 0.6206 1.1542 0.0000 0.0000 -10476.9946 1332.0636 0.0000 0.0000 1744.1527 -7399.0035 302.1334 -9143.1561 -7397.7702 300.2362 -578.7572 -511.0020 29689.1534 2.5480 2.5477
ENERGY: 1300000 0.1385 1.0135 0.0000 0.0000 -10649.6862 1522.9878 0.0000 0.0000 1762.9924 -7362.5540 305.3970 -9125.5464 -7359.9493 301.1569 756.3810 869.1133 29927.3194 3.7075 3.7036
ENERGY: 1500000 0.4096 0.8870 0.0000 0.0000 -10617.3344 1427.6114 0.0000 0.0000 1760.9181 -7427.5083 305.0376 -9188.4264 -7425.9904 301.0263 139.7577 208.8370 29574.5164 2.8335 2.7737
ENERGY: 1700000 1.7200 1.7311 0.0000 0.0000 -10458.5346 1445.3182 0.0000 0.0000 1774.6435 -7235.1218 307.4152 -9009.7653 -7233.0501 299.8047 549.5516 610.9046 30048.2610 2.2512 2.1703
ENERGY: 1900000 1.7167 2.6275 0.0000 0.0000 -10491.5050 1395.0757 0.0000 0.0000 1753.9110 -7338.1740 303.8238 -9092.0851 -7333.9822 299.8752 -290.7401 -226.1918 30330.5625 3.8359 4.0658
TCL: Exiting due to exit command.
