Info: SIMULATION PARAMETERS:
Info: TIMESTEP               2
Info: NUMBER OF STEPS        0
Info: STEPS PER CYCLE        10
Info: PERIODIC CELL BASIS 1  34.986 0 0
Info: PERIODIC CELL BASIS 2  0 34.26 0
Info: PERIODIC CELL BASIS 3  0 0 36.199
Info: PERIODIC CELL CENTER   0 0 0
Info: WRAPPING WATERS AROUND PERIODIC BOUNDARIES ON OUTPUT.
Info: WRAPPING ALL CLUSTERS AROUND PERIODIC BOUNDARIES ON OUTPUT.
Info: FIRST LDB TIMESTEP     50
Info: LAST LDB TIMESTEP     -1
Info: HOM BACKGROUND SCALING 1
Info: PME BACKGROUND SCALING 1
Info: MIN ATOMS PER PATCH    40
Info: EMPTY PATCH LOAD       40 ATOMS
Info: INITIAL TEMPERATURE    300
Info: CENTER OF MASS MOVING INITIALLY? NO
Info: DIELECTRIC             1
Info: EXCLUDE                SCALED ONE-FOUR
Info: 1-4 ELECTROSTATICS SCALED BY 0.833333
Info: MODIFIED 1-4 VDW PARAMETERS WILL BE USED
Info: DCD FILENAME           mobley_628086_equil.dcd
Info: DCD FREQUENCY          100000
Info: DCD FIRST STEP         100000
Info: DCD FILE WILL CONTAIN UNIT CELL DATA
Info: XST FILENAME           mobley_628086_equil.xst
Info: XST FREQUENCY          100000
Info: NO VELOCITY DCD OUTPUT
Info: NO FORCE DCD OUTPUT
Info: OUTPUT FILENAME        mobley_628086_equil
Info: BINARY OUTPUT FILES WILL BE USED
Info: RESTART FILENAME       mobley_628086_equil.restart
Info: RESTART FREQUENCY      100000
Info: BINARY RESTART FILES WILL BE USED
Info: CUTOFF                 9
Info: PAIRLIST DISTANCE      11
Info: PAIRLIST SHRINK RATE   0.01
Info: PAIRLIST GROW RATE     0.01
Info: PAIRLIST TRIGGER       0.3
Info: PAIRLISTS PER CYCLE    2
Info: PAIRLISTS ENABLED
Info: MARGIN                 8
Info: HYDROGEN GROUP CUTOFF  2.5
Info: PATCH DIMENSION        21.5
Info: ENERGY OUTPUT STEPS    100000
Info: ENERGY EVALUATION STEPS    100000
Info: OUTPUT ENERGY PRECISION 4
Info: CROSSTERM ENERGY INCLUDED IN DIHEDRAL
Info: TIMING OUTPUT STEPS    1000000
Info: PRESSURE OUTPUT STEPS  100000
Info: LANGEVIN DYNAMICS ACTIVE
Info: LANGEVIN TEMPERATURE   30
Info: LANGEVIN USING BBK INTEGRATOR
Info: LANGEVIN DAMPING COEFFICIENT IS 1 INVERSE PS
Info: LANGEVIN DYNAMICS APPLIED TO HYDROGENS
Info: LANGEVIN PISTON PRESSURE CONTROL ACTIVE
Info:        TARGET PRESSURE IS 1.01325 BAR
Info:     OSCILLATION PERIOD IS 50 FS
Info:             DECAY TIME IS 25 FS
Info:     PISTON TEMPERATURE IS 300 K
Info:       PRESSURE CONTROL IS GROUP-BASED
Info:    INITIAL STRAIN RATE IS 0 0 0
Info:       CELL FLUCTUATION IS ISOTROPIC
Info: PARTICLE MESH EWALD (PME) ACTIVE
Info: PME TOLERANCE               1e-06
Info: PME EWALD COEFFICIENT       0.348832
Info: PME INTERPOLATION ORDER     4
Info: PME GRID DIMENSIONS         36 36 40
Info: PME MAXIMUM GRID SPACING    1
Info: FULL ELECTROSTATIC EVALUATION FREQUENCY      2
Info: USING VERLET I (r-RESPA) MTS SCHEME.
Info: C1 SPLITTING OF LONG RANGE ELECTROSTATICS
Info: PLACING ATOMS IN PATCHES BY HYDROGEN GROUPS
Info: RIGID BONDS TO HYDROGEN : ALL
Info:         ERROR TOLERANCE : 1e-08
Info:          MAX ITERATIONS : 100
Info: RIGID WATER USING SETTLE ALGORITHM
Info: RANDOM NUMBER SEED     1743163890
Info: USE HYDROGEN BONDS?    NO
Info: Using AMBER format force field!
Info: AMBER PARM FILE        mobley_628086.prmtop
Info: COORDINATE PDB         mobley_628086.pdb
Info: Exclusions will be read from PARM file!
Info: SCNB (VDW SCALING)     2
Info: USING ARITHMETIC MEAN TO COMBINE L-J SIGMA PARAMETERS
Info: BINARY COORDINATES     mobley_628086_min.coor
Info: SUMMARY OF PARAMETERS:
Info: 8 BONDS
Info: 9 ANGLES
Info: 6 DIHEDRAL
Info: 0 IMPROPER
Info: 0 CROSSTERM
Info: 0 VDW
Info: 28 VDW_PAIRS
Info: 0 NBTHOLE_PAIRS
Info: STRUCTURE SUMMARY:
Info: 2964 ATOMS
Info: 2963 BONDS
Info: 19 ANGLES
Info: 29 DIHEDRALS
Info: 0 IMPROPERS
Info: 0 CROSSTERMS
Info: 3003 EXCLUSIONS
Info: 2957 RIGID BONDS
Info: 5935 DEGREES OF FREEDOM
Info: 991 HYDROGEN GROUPS
Info: 4 ATOMS IN LARGEST HYDROGEN GROUP
Info: 991 MIGRATION GROUPS
Info: 4 ATOMS IN LARGEST MIGRATION GROUP
Info: TOTAL MASS = 17841.8 amu
Info: TOTAL CHARGE = -0.000100069 e
Info: MASS DENSITY = 0.682842 g/cm^3
Info: ATOM DENSITY = 0.0683125 atoms/A^3
Info: ADDED 0 IMPLICIT EXCLUSIONS
Info: NONBONDED TABLE R-SQUARED SPACING: 0.0625
Info: NONBONDED TABLE SIZE: 705 POINTS
Info: REMOVING COM VELOCITY 0.00860597 0.0366171 0.092309
TCL: Running for 100000 steps
ETITLE: TS BOND ANGLE DIHED IMPRP ELECT VDW BOUNDARY MISC KINETIC TOTAL TEMP POTENTIAL TOTAL3 TEMPAVG PRESSURE GPRESSURE VOLUME PRESSAVG GPRESSAVG
ENERGY: 0 0.3448 0.8650 2.1934 0.0000 -13688.3859 2415.1733 0.0000 0.0000 1787.2123 -9482.5971 303.0720 -11269.8094 -9482.2127 303.0720 462.5625 499.8525 43388.8584 462.5625 499.8525
ENERGY: 100000 0.3837 1.3767 2.1740 0.0000 -14290.8723 2504.6820 0.0000 0.0000 179.4754 -11602.7805 30.4351 -11782.2560 -11602.2744 30.9570 242.5540 271.7854 28832.7833 4.2214 4.2369
TCL: Running 100000 steps at 60 kelvin.
TCL: Setting parameter langevinTemp to 60
TCL: Running for 100000 steps
ETITLE: TS BOND ANGLE DIHED IMPRP ELECT VDW BOUNDARY MISC KINETIC TOTAL TEMP POTENTIAL TOTAL3 TEMPAVG PRESSURE GPRESSURE VOLUME PRESSAVG GPRESSAVG
ENERGY: 100000 0.3837 1.3767 2.1740 0.0000 -14290.8723 2504.6820 0.0000 0.0000 179.3895 -11602.8665 30.4205 -11782.2560 -11602.4859 30.4205 222.1495 271.9324 28832.7833 222.1495 271.9324
ENERGY: 200000 0.6736 1.7647 2.5499 0.0000 -14144.2563 2450.3830 0.0000 0.0000 354.1107 -11334.7745 60.0494 -11688.8852 -11333.7656 59.9218 -120.9911 -53.0062 29137.7176 4.4673 4.5089
TCL: Running 100000 steps at 90 kelvin.
TCL: Setting parameter langevinTemp to 90
TCL: Running for 100000 steps
ETITLE: TS BOND ANGLE DIHED IMPRP ELECT VDW BOUNDARY MISC KINETIC TOTAL TEMP POTENTIAL TOTAL3 TEMPAVG PRESSURE GPRESSURE VOLUME PRESSAVG GPRESSAVG
ENERGY: 200000 0.6736 1.7647 2.5499 0.0000 -14144.2563 2450.3830 0.0000 0.0000 353.9352 -11334.9500 60.0196 -11688.8852 -11334.1547 60.0196 -98.6601 -52.6561 29137.7176 -98.6601 -52.6561
ENERGY: 300000 0.6876 2.0249 2.2395 0.0000 -14009.0871 2386.3386 0.0000 0.0000 537.8089 -11079.9876 91.2006 -11617.7965 -11078.2616 89.8807 -193.9559 -95.8972 28774.7732 3.8301 3.9126
TCL: Running 100000 steps at 120 kelvin.
TCL: Setting parameter langevinTemp to 120
TCL: Running for 100000 steps
ETITLE: TS BOND ANGLE DIHED IMPRP ELECT VDW BOUNDARY MISC KINETIC TOTAL TEMP POTENTIAL TOTAL3 TEMPAVG PRESSURE GPRESSURE VOLUME PRESSAVG GPRESSAVG
ENERGY: 300000 0.6876 2.0249 2.2395 0.0000 -14009.0871 2386.3386 0.0000 0.0000 537.5510 -11080.2455 91.1569 -11617.7965 -11078.9530 91.1569 -153.8283 -95.7669 28774.7732 -153.8283 -95.7669
ENERGY: 400000 1.6111 2.7237 2.3755 0.0000 -13824.4679 2365.4901 0.0000 0.0000 747.3017 -10704.9659 126.7260 -11452.2676 -10703.0236 119.9672 443.9561 523.9572 28614.1495 2.9477 2.8985
TCL: Running 100000 steps at 150 kelvin.
TCL: Setting parameter langevinTemp to 150
TCL: Running for 100000 steps
ETITLE: TS BOND ANGLE DIHED IMPRP ELECT VDW BOUNDARY MISC KINETIC TOTAL TEMP POTENTIAL TOTAL3 TEMPAVG PRESSURE GPRESSURE VOLUME PRESSAVG GPRESSAVG
ENERGY: 400000 1.6111 2.7237 2.3755 0.0000 -13824.4679 2365.4901 0.0000 0.0000 746.9523 -10705.3153 126.6667 -11452.2676 -10703.5889 126.6667 468.2210 524.1095 28614.1495 468.2210 524.1095
ENERGY: 500000 1.0044 4.8153 2.4666 0.0000 -13498.2709 2174.4192 0.0000 0.0000 868.1678 -10447.3975 147.2222 -11315.5653 -10445.4340 150.0230 -959.4403 -842.5595 29128.6223 3.1160 3.0959
TCL: Running 100000 steps at 180 kelvin.
TCL: Setting parameter langevinTemp to 180
TCL: Running for 100000 steps
ETITLE: TS BOND ANGLE DIHED IMPRP ELECT VDW BOUNDARY MISC KINETIC TOTAL TEMP POTENTIAL TOTAL3 TEMPAVG PRESSURE GPRESSURE VOLUME PRESSAVG GPRESSAVG
ENERGY: 500000 1.0044 4.8153 2.4666 0.0000 -13498.2709 2174.4192 0.0000 0.0000 867.7494 -10447.8159 147.1513 -11315.5653 -10446.0595 147.1513 -911.5807 -843.5932 29128.6223 -911.5807 -843.5932
ENERGY: 600000 0.8944 3.5316 2.5740 0.0000 -12982.5522 2024.7819 0.0000 0.0000 1082.8993 -9867.8709 183.6360 -10950.7702 -9865.9307 179.5409 -752.2025 -721.3340 29347.7410 3.8294 3.8349
TCL: Running 100000 steps at 210 kelvin.
TCL: Setting parameter langevinTemp to 210
TCL: Running for 100000 steps
ETITLE: TS BOND ANGLE DIHED IMPRP ELECT VDW BOUNDARY MISC KINETIC TOTAL TEMP POTENTIAL TOTAL3 TEMPAVG PRESSURE GPRESSURE VOLUME PRESSAVG GPRESSAVG
ENERGY: 600000 0.8944 3.5316 2.5740 0.0000 -12982.5522 2024.7819 0.0000 0.0000 1082.3782 -9868.3920 183.5476 -10950.7702 -9866.3399 183.5476 -786.7041 -721.3771 29347.7410 -786.7041 -721.3771
ENERGY: 700000 3.1597 3.3519 2.4148 0.0000 -12343.5287 1865.8056 0.0000 0.0000 1207.6147 -9261.1820 204.7850 -10468.7967 -9258.4950 209.8527 -428.5887 -357.4288 29148.2940 4.1175 4.1348
TCL: Running 100000 steps at 240 kelvin.
TCL: Setting parameter langevinTemp to 240
TCL: Running for 100000 steps
ETITLE: TS BOND ANGLE DIHED IMPRP ELECT VDW BOUNDARY MISC KINETIC TOTAL TEMP POTENTIAL TOTAL3 TEMPAVG PRESSURE GPRESSURE VOLUME PRESSAVG GPRESSAVG
ENERGY: 700000 3.1597 3.3519 2.4148 0.0000 -12343.5287 1865.8056 0.0000 0.0000 1206.9744 -9261.8223 204.6764 -10468.7967 -9259.8738 204.6764 -438.1644 -357.0534 29148.2940 -438.1644 -357.0534
ENERGY: 800000 1.1657 7.1132 2.5357 0.0000 -11788.0739 1702.7485 0.0000 0.0000 1423.4204 -8651.0904 241.3809 -10074.5108 -8646.8667 239.8462 -386.2664 -317.0262 29506.4606 4.3304 4.4037
TCL: Running 100000 steps at 270 kelvin.
TCL: Setting parameter langevinTemp to 270
TCL: Running for 100000 steps
ETITLE: TS BOND ANGLE DIHED IMPRP ELECT VDW BOUNDARY MISC KINETIC TOTAL TEMP POTENTIAL TOTAL3 TEMPAVG PRESSURE GPRESSURE VOLUME PRESSAVG GPRESSAVG
ENERGY: 800000 1.1657 7.1132 2.5357 0.0000 -11788.0739 1702.7485 0.0000 0.0000 1422.7178 -8651.7930 241.2617 -10074.5108 -8649.9871 241.2617 -388.8368 -316.4142 29506.4606 -388.8368 -316.4142
ENERGY: 900000 1.4238 5.6811 2.8755 0.0000 -11274.1870 1567.2383 0.0000 0.0000 1598.0769 -8098.8915 270.9988 -9696.9683 -8095.6296 269.7733 -214.7934 -84.0436 29610.3531 3.9537 3.8429
TCL: Running 1000000 steps at 300 kelvin.
TCL: Setting parameter langevinTemp to 300
TCL: Running for 1000000 steps
ETITLE: TS BOND ANGLE DIHED IMPRP ELECT VDW BOUNDARY MISC KINETIC TOTAL TEMP POTENTIAL TOTAL3 TEMPAVG PRESSURE GPRESSURE VOLUME PRESSAVG GPRESSAVG
ENERGY: 900000 1.4238 5.6811 2.8755 0.0000 -11274.1870 1567.2383 0.0000 0.0000 1597.2703 -8099.6981 270.8620 -9696.9683 -8097.3902 270.8620 -157.2298 -84.2627 29610.3531 -157.2298 -84.2627
ENERGY: 1100000 1.8753 2.9317 1.7685 0.0000 -10599.3520 1391.2134 0.0000 0.0000 1765.0032 -7436.5599 299.3058 -9201.5631 -7432.3974 300.2272 -163.6608 -145.2845 30219.7724 3.3575 3.2926
ENERGY: 1300000 2.3492 7.0565 2.8351 0.0000 -10805.7920 1524.5964 0.0000 0.0000 1752.5344 -7516.4205 297.1914 -9268.9549 -7515.8172 300.6875 408.5048 548.7733 30355.3159 4.5766 4.6018
ENERGY: 1500000 3.8342 4.1850 2.0957 0.0000 -10936.4540 1538.7756 0.0000 0.0000 1754.8231 -7632.7404 297.5795 -9387.5635 -7627.7315 300.4568 244.4208 266.4987 30403.4458 3.2337 3.2040
ENERGY: 1700000 1.8653 7.1635 2.4797 0.0000 -10576.6387 1338.9618 0.0000 0.0000 1773.7688 -7452.3997 300.7923 -9226.1685 -7447.9495 299.8363 -872.1727 -758.6055 30763.7947 2.9894 2.8514
ENERGY: 1900000 2.0135 3.6903 2.8317 0.0000 -10801.0602 1484.8155 0.0000 0.0000 1773.3747 -7534.3345 300.7254 -9307.7092 -7531.8278 300.2014 89.8967 166.7234 30810.6377 3.1984 3.1262
TCL: Exiting due to exit command.
