Info: SIMULATION PARAMETERS:
Info: TIMESTEP               2
Info: NUMBER OF STEPS        0
Info: STEPS PER CYCLE        10
Info: PERIODIC CELL BASIS 1  34.986 0 0
Info: PERIODIC CELL BASIS 2  0 33.314 0
Info: PERIODIC CELL BASIS 3  0 0 37.451
Info: PERIODIC CELL CENTER   0 0 0
Info: WRAPPING WATERS AROUND PERIODIC BOUNDARIES ON OUTPUT.
Info: WRAPPING ALL CLUSTERS AROUND PERIODIC BOUNDARIES ON OUTPUT.
Info: FIRST LDB TIMESTEP     50
Info: LAST LDB TIMESTEP     -1
Info: HOM BACKGROUND SCALING 1
Info: PME BACKGROUND SCALING 1
Info: MIN ATOMS PER PATCH    40
Info: EMPTY PATCH LOAD       40 ATOMS
Info: INITIAL TEMPERATURE    300
Info: CENTER OF MASS MOVING INITIALLY? NO
Info: DIELECTRIC             1
Info: EXCLUDE                SCALED ONE-FOUR
Info: 1-4 ELECTROSTATICS SCALED BY 0.833333
Info: MODIFIED 1-4 VDW PARAMETERS WILL BE USED
Info: DCD FILENAME           mobley_2925352_equil.dcd
Info: DCD FREQUENCY          100000
Info: DCD FIRST STEP         100000
Info: DCD FILE WILL CONTAIN UNIT CELL DATA
Info: XST FILENAME           mobley_2925352_equil.xst
Info: XST FREQUENCY          100000
Info: NO VELOCITY DCD OUTPUT
Info: NO FORCE DCD OUTPUT
Info: OUTPUT FILENAME        mobley_2925352_equil
Info: BINARY OUTPUT FILES WILL BE USED
Info: RESTART FILENAME       mobley_2925352_equil.restart
Info: RESTART FREQUENCY      100000
Info: BINARY RESTART FILES WILL BE USED
Info: CUTOFF                 9
Info: PAIRLIST DISTANCE      11
Info: PAIRLIST SHRINK RATE   0.01
Info: PAIRLIST GROW RATE     0.01
Info: PAIRLIST TRIGGER       0.3
Info: PAIRLISTS PER CYCLE    2
Info: PAIRLISTS ENABLED
Info: MARGIN                 8
Info: HYDROGEN GROUP CUTOFF  2.5
Info: PATCH DIMENSION        21.5
Info: ENERGY OUTPUT STEPS    100000
Info: ENERGY EVALUATION STEPS    100000
Info: OUTPUT ENERGY PRECISION 4
Info: CROSSTERM ENERGY INCLUDED IN DIHEDRAL
Info: TIMING OUTPUT STEPS    1000000
Info: PRESSURE OUTPUT STEPS  100000
Info: LANGEVIN DYNAMICS ACTIVE
Info: LANGEVIN TEMPERATURE   30
Info: LANGEVIN USING BBK INTEGRATOR
Info: LANGEVIN DAMPING COEFFICIENT IS 1 INVERSE PS
Info: LANGEVIN DYNAMICS APPLIED TO HYDROGENS
Info: LANGEVIN PISTON PRESSURE CONTROL ACTIVE
Info:        TARGET PRESSURE IS 1.01325 BAR
Info:     OSCILLATION PERIOD IS 50 FS
Info:             DECAY TIME IS 25 FS
Info:     PISTON TEMPERATURE IS 300 K
Info:       PRESSURE CONTROL IS GROUP-BASED
Info:    INITIAL STRAIN RATE IS 0 0 0
Info:       CELL FLUCTUATION IS ISOTROPIC
Info: PARTICLE MESH EWALD (PME) ACTIVE
Info: PME TOLERANCE               1e-06
Info: PME EWALD COEFFICIENT       0.348832
Info: PME INTERPOLATION ORDER     4
Info: PME GRID DIMENSIONS         36 36 40
Info: PME MAXIMUM GRID SPACING    1
Info: FULL ELECTROSTATIC EVALUATION FREQUENCY      2
Info: USING VERLET I (r-RESPA) MTS SCHEME.
Info: C1 SPLITTING OF LONG RANGE ELECTROSTATICS
Info: PLACING ATOMS IN PATCHES BY HYDROGEN GROUPS
Info: RIGID BONDS TO HYDROGEN : ALL
Info:         ERROR TOLERANCE : 1e-08
Info:          MAX ITERATIONS : 100
Info: RIGID WATER USING SETTLE ALGORITHM
Info: RANDOM NUMBER SEED     1743212912
Info: USE HYDROGEN BONDS?    NO
Info: Using AMBER format force field!
Info: AMBER PARM FILE        mobley_2925352.prmtop
Info: COORDINATE PDB         mobley_2925352.pdb
Info: Exclusions will be read from PARM file!
Info: SCNB (VDW SCALING)     2
Info: USING ARITHMETIC MEAN TO COMBINE L-J SIGMA PARAMETERS
Info: BINARY COORDINATES     mobley_2925352_min.coor
Info: SUMMARY OF PARAMETERS:
Info: 8 BONDS
Info: 7 ANGLES
Info:   7 HARMONIC
Info:   0 COSINE-BASED
Info: 4 DIHEDRAL
Info: 0 IMPROPER
Info: 0 CROSSTERM
Info: 0 VDW
Info: 28 VDW_PAIRS
Info: 0 NBTHOLE_PAIRS
Info: STRUCTURE SUMMARY:
Info: 2923 ATOMS
Info: 2923 BONDS
Info: 25 ANGLES
Info: 38 DIHEDRALS
Info: 0 IMPROPERS
Info: 0 CROSSTERMS
Info: 2977 EXCLUSIONS
Info: 2915 RIGID BONDS
Info: 5854 DEGREES OF FREEDOM
Info: 977 HYDROGEN GROUPS
Info: 4 ATOMS IN LARGEST HYDROGEN GROUP
Info: 977 MIGRATION GROUPS
Info: 4 ATOMS IN LARGEST MIGRATION GROUP
Info: TOTAL MASS = 17565.6 amu
Info: TOTAL CHARGE = 0.00010002 e
Info: MASS DENSITY = 0.66825 g/cm^3
Info: ATOM DENSITY = 0.0669645 atoms/A^3
Info: ADDED 0 IMPLICIT EXCLUSIONS
Info: NONBONDED TABLE R-SQUARED SPACING: 0.0625
Info: NONBONDED TABLE SIZE: 705 POINTS
Info: REMOVING COM VELOCITY 0.103743 0.291033 -0.0712499
TCL: Running for 100000 steps
ETITLE: TS BOND ANGLE DIHED IMPRP ELECT VDW BOUNDARY MISC KINETIC TOTAL TEMP POTENTIAL TOTAL3 TEMPAVG PRESSURE GPRESSURE VOLUME PRESSAVG GPRESSAVG
ENERGY: 0 0.1389 0.1071 0.1808 0.0000 -13507.9095 2380.2737 0.0000 0.0000 1742.8736 -9384.3353 299.6426 -11127.2089 -9383.9967 299.6426 508.0568 546.6220 43650.0245 508.0568 546.6220
ENERGY: 100000 0.1813 0.5905 1.1955 0.0000 -14190.0881 2509.8754 0.0000 0.0000 182.8402 -11495.4051 31.4347 -11678.2454 -11494.9133 30.9898 739.6509 778.6053 27709.5133 3.9133 3.9293
TCL: Running 100000 steps at 60 kelvin.
TCL: Setting parameter langevinTemp to 60
TCL: Running for 100000 steps
ETITLE: TS BOND ANGLE DIHED IMPRP ELECT VDW BOUNDARY MISC KINETIC TOTAL TEMP POTENTIAL TOTAL3 TEMPAVG PRESSURE GPRESSURE VOLUME PRESSAVG GPRESSAVG
ENERGY: 100000 0.1813 0.5905 1.1955 0.0000 -14190.0881 2509.8754 0.0000 0.0000 182.7567 -11495.4887 31.4203 -11678.2454 -11495.0149 31.4203 724.0355 778.7686 27709.5133 724.0355 778.7686
ENERGY: 200000 0.4046 1.3432 2.2727 0.0000 -14005.9153 2392.1763 0.0000 0.0000 348.1018 -11261.6167 59.8472 -11609.7185 -11260.9887 60.0957 107.2759 177.5932 27645.9689 3.4588 3.4074
TCL: Running 100000 steps at 90 kelvin.
TCL: Setting parameter langevinTemp to 90
TCL: Running for 100000 steps
ETITLE: TS BOND ANGLE DIHED IMPRP ELECT VDW BOUNDARY MISC KINETIC TOTAL TEMP POTENTIAL TOTAL3 TEMPAVG PRESSURE GPRESSURE VOLUME PRESSAVG GPRESSAVG
ENERGY: 200000 0.4046 1.3432 2.2727 0.0000 -14005.9153 2392.1763 0.0000 0.0000 347.9289 -11261.7897 59.8175 -11609.7185 -11261.3499 59.8175 106.8311 177.1796 27645.9689 106.8311 177.1796
ENERGY: 300000 0.5901 1.6792 1.1579 0.0000 -13891.7278 2365.8913 0.0000 0.0000 518.6835 -11003.7258 89.1744 -11522.4093 -11003.1358 89.9649 -70.1583 25.0748 28080.1921 5.4124 5.5318
TCL: Running 100000 steps at 120 kelvin.
TCL: Setting parameter langevinTemp to 120
TCL: Running for 100000 steps
ETITLE: TS BOND ANGLE DIHED IMPRP ELECT VDW BOUNDARY MISC KINETIC TOTAL TEMP POTENTIAL TOTAL3 TEMPAVG PRESSURE GPRESSURE VOLUME PRESSAVG GPRESSAVG
ENERGY: 300000 0.5901 1.6792 1.1579 0.0000 -13891.7278 2365.8913 0.0000 0.0000 518.4210 -11003.9883 89.1292 -11522.4093 -11003.0146 89.1292 -26.1525 25.0463 28080.1921 -26.1525 25.0463
ENERGY: 400000 0.5271 2.8846 1.5197 0.0000 -13806.8870 2437.6851 0.0000 0.0000 724.8266 -10639.4439 124.6154 -11364.2704 -10637.7524 120.0941 1181.0068 1246.0863 28134.9588 4.9297 4.9356
TCL: Running 100000 steps at 150 kelvin.
TCL: Setting parameter langevinTemp to 150
TCL: Running for 100000 steps
ETITLE: TS BOND ANGLE DIHED IMPRP ELECT VDW BOUNDARY MISC KINETIC TOTAL TEMP POTENTIAL TOTAL3 TEMPAVG PRESSURE GPRESSURE VOLUME PRESSAVG GPRESSAVG
ENERGY: 400000 0.5271 2.8846 1.5197 0.0000 -13806.8870 2437.6851 0.0000 0.0000 724.4808 -10639.7896 124.5560 -11364.2704 -10638.2948 124.5560 1190.6576 1245.9752 28134.9588 1190.6576 1245.9752
ENERGY: 500000 0.9702 1.2267 1.4614 0.0000 -13516.5893 2301.6226 0.0000 0.0000 876.4276 -10334.8808 150.6793 -11211.3084 -10331.9758 150.1201 591.9407 674.3662 28367.3130 5.4121 5.3482
TCL: Running 100000 steps at 180 kelvin.
TCL: Setting parameter langevinTemp to 180
TCL: Running for 100000 steps
ETITLE: TS BOND ANGLE DIHED IMPRP ELECT VDW BOUNDARY MISC KINETIC TOTAL TEMP POTENTIAL TOTAL3 TEMPAVG PRESSURE GPRESSURE VOLUME PRESSAVG GPRESSAVG
ENERGY: 500000 0.9702 1.2267 1.4614 0.0000 -13516.5893 2301.6226 0.0000 0.0000 875.9980 -10335.3104 150.6055 -11211.3084 -10333.2616 150.6055 622.1660 674.6225 28367.3130 622.1660 674.6225
ENERGY: 600000 2.1341 2.5924 1.3280 0.0000 -12900.0151 2037.8958 0.0000 0.0000 1063.5072 -9792.5576 182.8429 -10856.0648 -9792.6099 180.1615 -228.7930 -179.6556 28518.2289 2.2018 2.3197
TCL: Running 100000 steps at 210 kelvin.
TCL: Setting parameter langevinTemp to 210
TCL: Running for 100000 steps
ETITLE: TS BOND ANGLE DIHED IMPRP ELECT VDW BOUNDARY MISC KINETIC TOTAL TEMP POTENTIAL TOTAL3 TEMPAVG PRESSURE GPRESSURE VOLUME PRESSAVG GPRESSAVG
ENERGY: 600000 2.1341 2.5924 1.3280 0.0000 -12900.0151 2037.8958 0.0000 0.0000 1062.9933 -9793.0716 182.7545 -10856.0648 -9791.0074 182.7545 -253.2640 -182.1816 28518.2289 -253.2640 -182.1816
ENERGY: 700000 2.3538 3.1394 2.4876 0.0000 -12164.3155 1768.7854 0.0000 0.0000 1219.3909 -9168.1583 209.6431 -10387.5492 -9166.3896 209.5416 -1155.4097 -1108.5547 29156.6390 3.5287 3.5446
TCL: Running 100000 steps at 240 kelvin.
TCL: Setting parameter langevinTemp to 240
TCL: Running for 100000 steps
ETITLE: TS BOND ANGLE DIHED IMPRP ELECT VDW BOUNDARY MISC KINETIC TOTAL TEMP POTENTIAL TOTAL3 TEMPAVG PRESSURE GPRESSURE VOLUME PRESSAVG GPRESSAVG
ENERGY: 700000 2.3538 3.1394 2.4876 0.0000 -12164.3155 1768.7854 0.0000 0.0000 1218.7860 -9168.7633 209.5391 -10387.5492 -9166.1657 209.5391 -1157.8504 -1109.8842 29156.6390 -1157.8504 -1109.8842
ENERGY: 800000 5.4371 5.2325 0.8777 0.0000 -11612.9538 1665.1779 0.0000 0.0000 1382.9793 -8553.2492 237.7680 -9936.2285 -8549.9506 240.2328 -143.3561 -99.0726 28590.6843 2.0739 2.1223
TCL: Running 100000 steps at 270 kelvin.
TCL: Setting parameter langevinTemp to 270
TCL: Running for 100000 steps
ETITLE: TS BOND ANGLE DIHED IMPRP ELECT VDW BOUNDARY MISC KINETIC TOTAL TEMP POTENTIAL TOTAL3 TEMPAVG PRESSURE GPRESSURE VOLUME PRESSAVG GPRESSAVG
ENERGY: 800000 5.4371 5.2325 0.8777 0.0000 -11612.9538 1665.1779 0.0000 0.0000 1382.2944 -8553.9341 237.6502 -9936.2285 -8552.7329 237.6502 -179.4280 -97.7933 28590.6843 -179.4280 -97.7933
ENERGY: 900000 1.9981 3.3359 2.6791 0.0000 -11271.2900 1632.8938 0.0000 0.0000 1497.4488 -8132.9344 257.4481 -9630.3832 -8129.7090 270.1965 497.4947 592.7430 29114.2140 3.2330 3.2391
TCL: Running 1000000 steps at 300 kelvin.
TCL: Setting parameter langevinTemp to 300
TCL: Running for 1000000 steps
ETITLE: TS BOND ANGLE DIHED IMPRP ELECT VDW BOUNDARY MISC KINETIC TOTAL TEMP POTENTIAL TOTAL3 TEMPAVG PRESSURE GPRESSURE VOLUME PRESSAVG GPRESSAVG
ENERGY: 900000 1.9981 3.3359 2.6791 0.0000 -11271.2900 1632.8938 0.0000 0.0000 1496.6604 -8133.7229 257.3125 -9630.3832 -8131.5550 257.3125 509.7327 593.1578 29114.2140 509.7327 593.1578
ENERGY: 1100000 2.3682 3.1510 4.3011 0.0000 -10458.8231 1330.2499 0.0000 0.0000 1733.2623 -7385.4907 297.9902 -9118.7530 -7382.2342 299.0252 -685.9986 -560.3394 30159.1941 1.5079 1.5936
ENERGY: 1300000 1.4517 4.3642 1.7579 0.0000 -10805.6618 1561.4457 0.0000 0.0000 1721.0754 -7515.5669 295.8949 -9236.6423 -7512.0467 300.0428 988.1536 1022.4795 29878.6614 2.5149 2.5269
ENERGY: 1500000 2.5918 4.7502 1.5525 0.0000 -10607.3147 1424.3688 0.0000 0.0000 1744.9744 -7429.0771 300.0038 -9174.0514 -7426.1711 300.5509 2.5541 -0.3258 30254.1237 5.0116 4.7902
ENERGY: 1700000 4.9021 3.8021 5.5512 0.0000 -10661.8573 1438.0566 0.0000 0.0000 1763.2375 -7446.3077 303.1437 -9209.5452 -7443.7593 300.2749 59.5561 95.4589 29641.9100 1.9058 1.9005
ENERGY: 1900000 2.7925 4.7514 6.1766 0.0000 -10750.0693 1477.8077 0.0000 0.0000 1683.4746 -7575.0665 289.4305 -9258.5412 -7571.0722 300.0567 189.5778 319.8992 29754.7705 2.9188 2.8997
TCL: Exiting due to exit command.
