Info: SIMULATION PARAMETERS:
Info: TIMESTEP               2
Info: NUMBER OF STEPS        0
Info: STEPS PER CYCLE        10
Info: PERIODIC CELL BASIS 1  35.01 0 0
Info: PERIODIC CELL BASIS 2  0 35.411 0
Info: PERIODIC CELL BASIS 3  0 0 35.723
Info: PERIODIC CELL CENTER   0 0 0
Info: WRAPPING WATERS AROUND PERIODIC BOUNDARIES ON OUTPUT.
Info: WRAPPING ALL CLUSTERS AROUND PERIODIC BOUNDARIES ON OUTPUT.
Info: FIRST LDB TIMESTEP     50
Info: LAST LDB TIMESTEP     -1
Info: HOM BACKGROUND SCALING 1
Info: PME BACKGROUND SCALING 1
Info: MIN ATOMS PER PATCH    40
Info: EMPTY PATCH LOAD       40 ATOMS
Info: INITIAL TEMPERATURE    300
Info: CENTER OF MASS MOVING INITIALLY? NO
Info: DIELECTRIC             1
Info: EXCLUDE                SCALED ONE-FOUR
Info: 1-4 ELECTROSTATICS SCALED BY 0.833333
Info: MODIFIED 1-4 VDW PARAMETERS WILL BE USED
Info: DCD FILENAME           mobley_8685905_equil.dcd
Info: DCD FREQUENCY          100000
Info: DCD FIRST STEP         100000
Info: DCD FILE WILL CONTAIN UNIT CELL DATA
Info: XST FILENAME           mobley_8685905_equil.xst
Info: XST FREQUENCY          100000
Info: NO VELOCITY DCD OUTPUT
Info: NO FORCE DCD OUTPUT
Info: OUTPUT FILENAME        mobley_8685905_equil
Info: BINARY OUTPUT FILES WILL BE USED
Info: RESTART FILENAME       mobley_8685905_equil.restart
Info: RESTART FREQUENCY      100000
Info: BINARY RESTART FILES WILL BE USED
Info: CUTOFF                 9
Info: PAIRLIST DISTANCE      11
Info: PAIRLIST SHRINK RATE   0.01
Info: PAIRLIST GROW RATE     0.01
Info: PAIRLIST TRIGGER       0.3
Info: PAIRLISTS PER CYCLE    2
Info: PAIRLISTS ENABLED
Info: MARGIN                 8
Info: HYDROGEN GROUP CUTOFF  2.5
Info: PATCH DIMENSION        21.5
Info: ENERGY OUTPUT STEPS    100000
Info: ENERGY EVALUATION STEPS    100000
Info: OUTPUT ENERGY PRECISION 4
Info: CROSSTERM ENERGY INCLUDED IN DIHEDRAL
Info: TIMING OUTPUT STEPS    1000000
Info: PRESSURE OUTPUT STEPS  100000
Info: LANGEVIN DYNAMICS ACTIVE
Info: LANGEVIN TEMPERATURE   30
Info: LANGEVIN USING BBK INTEGRATOR
Info: LANGEVIN DAMPING COEFFICIENT IS 1 INVERSE PS
Info: LANGEVIN DYNAMICS APPLIED TO HYDROGENS
Info: LANGEVIN PISTON PRESSURE CONTROL ACTIVE
Info:        TARGET PRESSURE IS 1.01325 BAR
Info:     OSCILLATION PERIOD IS 50 FS
Info:             DECAY TIME IS 25 FS
Info:     PISTON TEMPERATURE IS 300 K
Info:       PRESSURE CONTROL IS GROUP-BASED
Info:    INITIAL STRAIN RATE IS 0 0 0
Info:       CELL FLUCTUATION IS ISOTROPIC
Info: PARTICLE MESH EWALD (PME) ACTIVE
Info: PME TOLERANCE               1e-06
Info: PME EWALD COEFFICIENT       0.348832
Info: PME INTERPOLATION ORDER     4
Info: PME GRID DIMENSIONS         36 36 36
Info: PME MAXIMUM GRID SPACING    1
Info: FULL ELECTROSTATIC EVALUATION FREQUENCY      2
Info: USING VERLET I (r-RESPA) MTS SCHEME.
Info: C1 SPLITTING OF LONG RANGE ELECTROSTATICS
Info: PLACING ATOMS IN PATCHES BY HYDROGEN GROUPS
Info: RIGID BONDS TO HYDROGEN : ALL
Info:         ERROR TOLERANCE : 1e-08
Info:          MAX ITERATIONS : 100
Info: RIGID WATER USING SETTLE ALGORITHM
Info: RANDOM NUMBER SEED     1743158232
Info: USE HYDROGEN BONDS?    NO
Info: Using AMBER format force field!
Info: AMBER PARM FILE        mobley_8685905.prmtop
Info: COORDINATE PDB         mobley_8685905.pdb
Info: Exclusions will be read from PARM file!
Info: SCNB (VDW SCALING)     2
Info: USING ARITHMETIC MEAN TO COMBINE L-J SIGMA PARAMETERS
Info: BINARY COORDINATES     mobley_8685905_min.coor
Info: SUMMARY OF PARAMETERS:
Info: 6 BONDS
Info: 7 ANGLES
Info:   7 HARMONIC
Info:   0 COSINE-BASED
Info: 3 DIHEDRAL
Info: 0 IMPROPER
Info: 0 CROSSTERM
Info: 0 VDW
Info: 21 VDW_PAIRS
Info: 0 NBTHOLE_PAIRS
Info: STRUCTURE SUMMARY:
Info: 2996 ATOMS
Info: 2995 BONDS
Info: 12 ANGLES
Info: 12 DIHEDRALS
Info: 0 IMPROPERS
Info: 0 CROSSTERMS
Info: 3016 EXCLUSIONS
Info: 2989 RIGID BONDS
Info: 5999 DEGREES OF FREEDOM
Info: 1003 HYDROGEN GROUPS
Info: 3 ATOMS IN LARGEST HYDROGEN GROUP
Info: 1003 MIGRATION GROUPS
Info: 3 ATOMS IN LARGEST MIGRATION GROUP
Info: TOTAL MASS = 18124.9 amu
Info: TOTAL CHARGE = -4.47035e-08 e
Info: MASS DENSITY = 0.679604 g/cm^3
Info: ATOM DENSITY = 0.0676493 atoms/A^3
Info: ADDED 0 IMPLICIT EXCLUSIONS
Info: NONBONDED TABLE R-SQUARED SPACING: 0.0625
Info: NONBONDED TABLE SIZE: 705 POINTS
Info: REMOVING COM VELOCITY -0.107502 -0.0555003 -0.0271405
TCL: Running for 100000 steps
ETITLE: TS BOND ANGLE DIHED IMPRP ELECT VDW BOUNDARY MISC KINETIC TOTAL TEMP POTENTIAL TOTAL3 TEMPAVG PRESSURE GPRESSURE VOLUME PRESSAVG GPRESSAVG
ENERGY: 0 0.0591 0.3872 3.5886 0.0000 -13915.9049 2473.7950 0.0000 0.0000 1775.6593 -9662.4157 297.9004 -11438.0750 -9662.0868 297.9004 549.1073 580.3589 44287.2002 549.1073 580.3589
ENERGY: 100000 0.1155 1.0234 3.6312 0.0000 -14383.3495 2432.8523 0.0000 0.0000 174.6145 -11771.1125 29.2949 -11945.7270 -11770.5673 30.9196 -932.5420 -856.1072 29418.6308 5.1090 5.0180
TCL: Running 100000 steps at 60 kelvin.
TCL: Setting parameter langevinTemp to 60
TCL: Running for 100000 steps
ETITLE: TS BOND ANGLE DIHED IMPRP ELECT VDW BOUNDARY MISC KINETIC TOTAL TEMP POTENTIAL TOTAL3 TEMPAVG PRESSURE GPRESSURE VOLUME PRESSAVG GPRESSAVG
ENERGY: 100000 0.1155 1.0234 3.6312 0.0000 -14383.3495 2432.8523 0.0000 0.0000 174.5208 -11771.2062 29.2792 -11945.7270 -11770.8291 29.2792 -925.1765 -856.1790 29418.6308 -925.1765 -856.1790
ENERGY: 200000 0.5452 0.6656 3.6252 0.0000 -14444.2740 2556.8947 0.0000 0.0000 363.6243 -11518.9191 61.0049 -11882.5433 -11518.4736 59.9660 370.0183 390.4242 29286.7488 4.0999 4.0310
TCL: Running 100000 steps at 90 kelvin.
TCL: Setting parameter langevinTemp to 90
TCL: Running for 100000 steps
ETITLE: TS BOND ANGLE DIHED IMPRP ELECT VDW BOUNDARY MISC KINETIC TOTAL TEMP POTENTIAL TOTAL3 TEMPAVG PRESSURE GPRESSURE VOLUME PRESSAVG GPRESSAVG
ENERGY: 200000 0.5452 0.6656 3.6252 0.0000 -14444.2740 2556.8947 0.0000 0.0000 363.4552 -11519.0881 60.9765 -11882.5433 -11518.2086 60.9765 340.6737 389.6452 29286.7488 340.6737 389.6452
ENERGY: 300000 0.3153 0.8530 3.8209 0.0000 -14321.0622 2556.9779 0.0000 0.0000 536.8221 -11222.2730 90.0621 -11759.0950 -11221.0357 89.9931 972.2090 1049.3304 28973.3252 3.5576 3.6888
TCL: Running 100000 steps at 120 kelvin.
TCL: Setting parameter langevinTemp to 120
TCL: Running for 100000 steps
ETITLE: TS BOND ANGLE DIHED IMPRP ELECT VDW BOUNDARY MISC KINETIC TOTAL TEMP POTENTIAL TOTAL3 TEMPAVG PRESSURE GPRESSURE VOLUME PRESSAVG GPRESSAVG
ENERGY: 300000 0.3153 0.8530 3.8209 0.0000 -14321.0622 2556.9779 0.0000 0.0000 536.5541 -11222.5409 90.0171 -11759.0950 -11221.6828 90.0171 978.0030 1050.1805 28973.3252 978.0030 1050.1805
ENERGY: 400000 0.1537 0.9033 3.6606 0.0000 -13990.0708 2338.3403 0.0000 0.0000 706.6117 -10940.4012 118.5475 -11647.0129 -10939.2053 119.9980 -414.4709 -385.1546 29517.7029 2.8983 2.7682
TCL: Running 100000 steps at 150 kelvin.
TCL: Setting parameter langevinTemp to 150
TCL: Running for 100000 steps
ETITLE: TS BOND ANGLE DIHED IMPRP ELECT VDW BOUNDARY MISC KINETIC TOTAL TEMP POTENTIAL TOTAL3 TEMPAVG PRESSURE GPRESSURE VOLUME PRESSAVG GPRESSAVG
ENERGY: 400000 0.1537 0.9033 3.6606 0.0000 -13990.0708 2338.3403 0.0000 0.0000 706.2618 -10940.7511 118.4888 -11647.0129 -10939.5413 118.4888 -447.4344 -385.3964 29517.7029 -447.4344 -385.3964
ENERGY: 500000 1.5412 1.7074 3.6846 0.0000 -13795.7941 2356.4832 0.0000 0.0000 889.1208 -10543.2569 149.1668 -11432.3777 -10540.6789 149.7579 597.9389 611.2882 29185.3127 4.3241 4.2873
TCL: Running 100000 steps at 180 kelvin.
TCL: Setting parameter langevinTemp to 180
TCL: Running for 100000 steps
ETITLE: TS BOND ANGLE DIHED IMPRP ELECT VDW BOUNDARY MISC KINETIC TOTAL TEMP POTENTIAL TOTAL3 TEMPAVG PRESSURE GPRESSURE VOLUME PRESSAVG GPRESSAVG
ENERGY: 500000 1.5412 1.7074 3.6846 0.0000 -13795.7941 2356.4832 0.0000 0.0000 888.6721 -10543.7056 149.0916 -11432.3777 -10542.3815 149.0916 551.0318 612.2635 29185.3127 551.0318 612.2635
ENERGY: 600000 0.3179 3.4358 3.7461 0.0000 -13380.1114 2236.7429 0.0000 0.0000 1048.2329 -10087.6358 175.8609 -11135.8687 -10085.7142 179.7637 597.5054 656.4700 29410.0200 2.0141 1.9627
TCL: Running 100000 steps at 210 kelvin.
TCL: Setting parameter langevinTemp to 210
TCL: Running for 100000 steps
ETITLE: TS BOND ANGLE DIHED IMPRP ELECT VDW BOUNDARY MISC KINETIC TOTAL TEMP POTENTIAL TOTAL3 TEMPAVG PRESSURE GPRESSURE VOLUME PRESSAVG GPRESSAVG
ENERGY: 600000 0.3179 3.4358 3.7461 0.0000 -13380.1114 2236.7429 0.0000 0.0000 1047.7002 -10088.1685 175.7715 -11135.8687 -10086.1593 175.7715 605.0970 656.3244 29410.0200 605.0970 656.3244
ENERGY: 700000 1.2939 2.6789 3.7017 0.0000 -12785.0567 2063.2720 0.0000 0.0000 1261.3537 -9452.7565 211.6160 -10714.1102 -9450.3616 209.9007 908.9397 997.5432 29076.1860 4.2779 4.2933
TCL: Running 100000 steps at 240 kelvin.
TCL: Setting parameter langevinTemp to 240
TCL: Running for 100000 steps
ETITLE: TS BOND ANGLE DIHED IMPRP ELECT VDW BOUNDARY MISC KINETIC TOTAL TEMP POTENTIAL TOTAL3 TEMPAVG PRESSURE GPRESSURE VOLUME PRESSAVG GPRESSAVG
ENERGY: 700000 1.2939 2.6789 3.7017 0.0000 -12785.0567 2063.2720 0.0000 0.0000 1260.7290 -9453.3812 211.5112 -10714.1102 -9451.0643 211.5112 928.2925 997.7661 29076.1860 928.2925 997.7661
ENERGY: 800000 4.0800 2.2433 4.0096 0.0000 -11997.6129 1724.8561 0.0000 0.0000 1378.5392 -8883.8848 231.2760 -10262.4240 -8881.6323 239.6582 -407.6758 -255.3470 29508.6393 3.4575 3.4120
TCL: Running 100000 steps at 270 kelvin.
TCL: Setting parameter langevinTemp to 270
TCL: Running for 100000 steps
ETITLE: TS BOND ANGLE DIHED IMPRP ELECT VDW BOUNDARY MISC KINETIC TOTAL TEMP POTENTIAL TOTAL3 TEMPAVG PRESSURE GPRESSURE VOLUME PRESSAVG GPRESSAVG
ENERGY: 800000 4.0800 2.2433 4.0096 0.0000 -11997.6129 1724.8561 0.0000 0.0000 1377.8405 -8884.5835 231.1588 -10262.4239 -8882.0863 231.1588 -358.7178 -255.3509 29508.6393 -358.7178 -255.3509
ENERGY: 900000 2.3435 2.8955 3.6300 0.0000 -11396.8450 1589.1016 0.0000 0.0000 1596.1298 -8202.7447 267.7810 -9798.8745 -8201.5902 269.3817 -9.1107 58.2132 30099.7537 3.4575 3.5359
TCL: Running 1000000 steps at 300 kelvin.
TCL: Setting parameter langevinTemp to 300
TCL: Running for 1000000 steps
ETITLE: TS BOND ANGLE DIHED IMPRP ELECT VDW BOUNDARY MISC KINETIC TOTAL TEMP POTENTIAL TOTAL3 TEMPAVG PRESSURE GPRESSURE VOLUME PRESSAVG GPRESSAVG
ENERGY: 900000 2.3435 2.8955 3.6300 0.0000 -11396.8450 1589.1016 0.0000 0.0000 1595.3256 -8203.5489 267.6461 -9798.8745 -8200.9221 267.6461 -27.6221 57.9270 30099.7537 -27.6221 57.9270
ENERGY: 1100000 1.7312 3.9766 3.6894 0.0000 -10794.6385 1438.1491 0.0000 0.0000 1805.9835 -7541.1086 302.9879 -9347.0921 -7538.4573 300.4458 24.5045 70.6758 31016.4860 1.2477 1.3246
ENERGY: 1300000 0.8715 2.6333 3.9751 0.0000 -10895.3243 1462.3151 0.0000 0.0000 1788.4849 -7637.0444 300.0522 -9425.5293 -7634.1218 300.3779 -222.1080 -89.1214 30989.4356 2.7427 2.8549
ENERGY: 1500000 1.3643 1.2975 3.8708 0.0000 -10824.6782 1376.3022 0.0000 0.0000 1806.3048 -7635.5386 303.0418 -9441.8434 -7630.4824 300.2477 -692.4200 -611.2081 30715.5740 2.8380 2.8364
ENERGY: 1700000 0.9324 1.5821 3.9010 0.0000 -10868.3043 1493.1252 0.0000 0.0000 1772.7808 -7595.9828 297.4175 -9368.7636 -7594.5561 299.5907 72.8699 196.4637 31200.2708 3.6026 3.5718
ENERGY: 1900000 0.4572 1.6739 4.3280 0.0000 -10827.0332 1429.1893 0.0000 0.0000 1784.7776 -7606.6072 299.4302 -9391.3848 -7602.0464 300.0140 -316.4216 -223.5988 31065.6686 2.9073 2.8855
TCL: Exiting due to exit command.
