Info: SIMULATION PARAMETERS:
Info: TIMESTEP               2
Info: NUMBER OF STEPS        0
Info: STEPS PER CYCLE        10
Info: PERIODIC CELL BASIS 1  37.133 0 0
Info: PERIODIC CELL BASIS 2  0 34.26 0
Info: PERIODIC CELL BASIS 3  0 0 34.229
Info: PERIODIC CELL CENTER   0 0 0
Info: WRAPPING WATERS AROUND PERIODIC BOUNDARIES ON OUTPUT.
Info: WRAPPING ALL CLUSTERS AROUND PERIODIC BOUNDARIES ON OUTPUT.
Info: FIRST LDB TIMESTEP     50
Info: LAST LDB TIMESTEP     -1
Info: HOM BACKGROUND SCALING 1
Info: PME BACKGROUND SCALING 1
Info: MIN ATOMS PER PATCH    40
Info: EMPTY PATCH LOAD       40 ATOMS
Info: INITIAL TEMPERATURE    300
Info: CENTER OF MASS MOVING INITIALLY? NO
Info: DIELECTRIC             1
Info: EXCLUDE                SCALED ONE-FOUR
Info: 1-4 ELECTROSTATICS SCALED BY 0.833333
Info: MODIFIED 1-4 VDW PARAMETERS WILL BE USED
Info: DCD FILENAME           mobley_5052949_equil.dcd
Info: DCD FREQUENCY          100000
Info: DCD FIRST STEP         100000
Info: DCD FILE WILL CONTAIN UNIT CELL DATA
Info: XST FILENAME           mobley_5052949_equil.xst
Info: XST FREQUENCY          100000
Info: NO VELOCITY DCD OUTPUT
Info: NO FORCE DCD OUTPUT
Info: OUTPUT FILENAME        mobley_5052949_equil
Info: BINARY OUTPUT FILES WILL BE USED
Info: RESTART FILENAME       mobley_5052949_equil.restart
Info: RESTART FREQUENCY      100000
Info: BINARY RESTART FILES WILL BE USED
Info: CUTOFF                 9
Info: PAIRLIST DISTANCE      11
Info: PAIRLIST SHRINK RATE   0.01
Info: PAIRLIST GROW RATE     0.01
Info: PAIRLIST TRIGGER       0.3
Info: PAIRLISTS PER CYCLE    2
Info: PAIRLISTS ENABLED
Info: MARGIN                 8
Info: HYDROGEN GROUP CUTOFF  2.5
Info: PATCH DIMENSION        21.5
Info: ENERGY OUTPUT STEPS    100000
Info: ENERGY EVALUATION STEPS    100000
Info: OUTPUT ENERGY PRECISION 4
Info: CROSSTERM ENERGY INCLUDED IN DIHEDRAL
Info: TIMING OUTPUT STEPS    1000000
Info: PRESSURE OUTPUT STEPS  100000
Info: LANGEVIN DYNAMICS ACTIVE
Info: LANGEVIN TEMPERATURE   30
Info: LANGEVIN USING BBK INTEGRATOR
Info: LANGEVIN DAMPING COEFFICIENT IS 1 INVERSE PS
Info: LANGEVIN DYNAMICS APPLIED TO HYDROGENS
Info: LANGEVIN PISTON PRESSURE CONTROL ACTIVE
Info:        TARGET PRESSURE IS 1.01325 BAR
Info:     OSCILLATION PERIOD IS 50 FS
Info:             DECAY TIME IS 25 FS
Info:     PISTON TEMPERATURE IS 300 K
Info:       PRESSURE CONTROL IS GROUP-BASED
Info:    INITIAL STRAIN RATE IS 0 0 0
Info:       CELL FLUCTUATION IS ISOTROPIC
Info: PARTICLE MESH EWALD (PME) ACTIVE
Info: PME TOLERANCE               1e-06
Info: PME EWALD COEFFICIENT       0.348832
Info: PME INTERPOLATION ORDER     4
Info: PME GRID DIMENSIONS         40 36 36
Info: PME MAXIMUM GRID SPACING    1
Info: FULL ELECTROSTATIC EVALUATION FREQUENCY      2
Info: USING VERLET I (r-RESPA) MTS SCHEME.
Info: C1 SPLITTING OF LONG RANGE ELECTROSTATICS
Info: PLACING ATOMS IN PATCHES BY HYDROGEN GROUPS
Info: RIGID BONDS TO HYDROGEN : ALL
Info:         ERROR TOLERANCE : 1e-08
Info:          MAX ITERATIONS : 100
Info: RIGID WATER USING SETTLE ALGORITHM
Info: RANDOM NUMBER SEED     1743254771
Info: USE HYDROGEN BONDS?    NO
Info: Using AMBER format force field!
Info: AMBER PARM FILE        mobley_5052949.prmtop
Info: COORDINATE PDB         mobley_5052949.pdb
Info: Exclusions will be read from PARM file!
Info: SCNB (VDW SCALING)     2
Info: USING ARITHMETIC MEAN TO COMBINE L-J SIGMA PARAMETERS
Info: BINARY COORDINATES     mobley_5052949_min.coor
Info: SUMMARY OF PARAMETERS:
Info: 6 BONDS
Info: 8 ANGLES
Info:   8 HARMONIC
Info:   0 COSINE-BASED
Info: 4 DIHEDRAL
Info: 0 IMPROPER
Info: 0 CROSSTERM
Info: 0 VDW
Info: 21 VDW_PAIRS
Info: 0 NBTHOLE_PAIRS
Info: STRUCTURE SUMMARY:
Info: 2901 ATOMS
Info: 2900 BONDS
Info: 37 ANGLES
Info: 42 DIHEDRALS
Info: 0 IMPROPERS
Info: 0 CROSSTERMS
Info: 2979 EXCLUSIONS
Info: 2894 RIGID BONDS
Info: 5809 DEGREES OF FREEDOM
Info: 967 HYDROGEN GROUPS
Info: 4 ATOMS IN LARGEST HYDROGEN GROUP
Info: 967 MIGRATION GROUPS
Info: 4 ATOMS IN LARGEST MIGRATION GROUP
Info: TOTAL MASS = 17413.6 amu
Info: TOTAL CHARGE = -9.99607e-05 e
Info: MASS DENSITY = 0.664058 g/cm^3
Info: ATOM DENSITY = 0.0666202 atoms/A^3
Info: ADDED 0 IMPLICIT EXCLUSIONS
Info: NONBONDED TABLE R-SQUARED SPACING: 0.0625
Info: NONBONDED TABLE SIZE: 705 POINTS
Info: REMOVING COM VELOCITY 0.014434 0.0212432 0.131694
TCL: Running for 100000 steps
ETITLE: TS BOND ANGLE DIHED IMPRP ELECT VDW BOUNDARY MISC KINETIC TOTAL TEMP POTENTIAL TOTAL3 TEMPAVG PRESSURE GPRESSURE VOLUME PRESSAVG GPRESSAVG
ENERGY: 0 0.0204 0.1568 0.0490 0.0000 -13331.3884 2342.4524 0.0000 0.0000 1691.1577 -9297.5522 293.0037 -10988.7098 -9297.2109 293.0037 293.6303 324.3106 43545.3322 293.6303 324.3106
ENERGY: 100000 0.2238 1.0109 0.1761 0.0000 -13896.5209 2385.7345 0.0000 0.0000 168.2500 -11341.1256 29.1504 -11509.3756 -11340.8674 30.9005 -282.3099 -233.0747 28359.7306 3.5162 3.5112
TCL: Running 100000 steps at 60 kelvin.
TCL: Setting parameter langevinTemp to 60
TCL: Running for 100000 steps
ETITLE: TS BOND ANGLE DIHED IMPRP ELECT VDW BOUNDARY MISC KINETIC TOTAL TEMP POTENTIAL TOTAL3 TEMPAVG PRESSURE GPRESSURE VOLUME PRESSAVG GPRESSAVG
ENERGY: 100000 0.2238 1.0109 0.1761 0.0000 -13896.5209 2385.7345 0.0000 0.0000 168.1642 -11341.2113 29.1355 -11509.3756 -11340.8327 29.1355 -293.5965 -233.2893 28359.7306 -293.5965 -233.2893
ENERGY: 200000 0.4966 1.4164 0.2663 0.0000 -13886.5796 2430.2893 0.0000 0.0000 349.2260 -11104.8850 60.5056 -11454.1110 -11103.9896 60.0207 354.4571 397.9260 28409.0449 4.3656 4.3346
TCL: Running 100000 steps at 90 kelvin.
TCL: Setting parameter langevinTemp to 90
TCL: Running for 100000 steps
ETITLE: TS BOND ANGLE DIHED IMPRP ELECT VDW BOUNDARY MISC KINETIC TOTAL TEMP POTENTIAL TOTAL3 TEMPAVG PRESSURE GPRESSURE VOLUME PRESSAVG GPRESSAVG
ENERGY: 200000 0.4966 1.4164 0.2663 0.0000 -13886.5796 2430.2893 0.0000 0.0000 349.0576 -11105.0534 60.4764 -11454.1110 -11104.3166 60.4764 337.8689 397.9590 28409.0449 337.8689 397.9590
ENERGY: 300000 0.3070 3.5913 0.8100 0.0000 -13717.1551 2375.7227 0.0000 0.0000 511.0229 -10825.7013 88.5379 -11336.7242 -10825.1047 89.8372 408.0972 456.7058 28291.7515 3.3272 3.2725
TCL: Running 100000 steps at 120 kelvin.
TCL: Setting parameter langevinTemp to 120
TCL: Running for 100000 steps
ETITLE: TS BOND ANGLE DIHED IMPRP ELECT VDW BOUNDARY MISC KINETIC TOTAL TEMP POTENTIAL TOTAL3 TEMPAVG PRESSURE GPRESSURE VOLUME PRESSAVG GPRESSAVG
ENERGY: 300000 0.3070 3.5913 0.8100 0.0000 -13717.1551 2375.7227 0.0000 0.0000 510.7636 -10825.9606 88.4930 -11336.7242 -10825.0500 88.4930 418.3044 456.1685 28291.7515 418.3044 456.1685
ENERGY: 400000 0.7996 2.7365 0.4229 0.0000 -13489.2292 2287.1597 0.0000 0.0000 674.7437 -10523.3668 116.9036 -11198.1105 -10521.7610 119.9263 -16.6097 26.7398 28481.4554 4.6292 4.6092
TCL: Running 100000 steps at 150 kelvin.
TCL: Setting parameter langevinTemp to 150
TCL: Running for 100000 steps
ETITLE: TS BOND ANGLE DIHED IMPRP ELECT VDW BOUNDARY MISC KINETIC TOTAL TEMP POTENTIAL TOTAL3 TEMPAVG PRESSURE GPRESSURE VOLUME PRESSAVG GPRESSAVG
ENERGY: 400000 0.7996 2.7365 0.4229 0.0000 -13489.2292 2287.1597 0.0000 0.0000 674.4093 -10523.7012 116.8457 -11198.1105 -10522.1517 116.8457 -18.0447 27.1910 28481.4554 -18.0447 27.1910
ENERGY: 500000 0.8130 6.9965 0.8953 0.0000 -13255.1541 2207.4352 0.0000 0.0000 886.7895 -10152.2246 153.6418 -11039.0140 -10149.5470 149.9268 -182.9777 -91.0536 28564.2475 2.6866 2.6593
TCL: Running 100000 steps at 180 kelvin.
TCL: Setting parameter langevinTemp to 180
TCL: Running for 100000 steps
ETITLE: TS BOND ANGLE DIHED IMPRP ELECT VDW BOUNDARY MISC KINETIC TOTAL TEMP POTENTIAL TOTAL3 TEMPAVG PRESSURE GPRESSURE VOLUME PRESSAVG GPRESSAVG
ENERGY: 500000 0.8130 6.9965 0.8953 0.0000 -13255.1541 2207.4352 0.0000 0.0000 886.3648 -10152.6493 153.5683 -11039.0140 -10150.6124 153.5683 -142.8187 -90.7538 28564.2475 -142.8187 -90.7538
ENERGY: 600000 1.1859 6.3532 2.3969 0.0000 -12853.0011 2101.2031 0.0000 0.0000 1066.7648 -9675.0973 184.8237 -10741.8621 -9673.0252 180.3072 448.6341 531.9169 28337.3894 4.8954 4.8471
TCL: Running 100000 steps at 210 kelvin.
TCL: Setting parameter langevinTemp to 210
TCL: Running for 100000 steps
ETITLE: TS BOND ANGLE DIHED IMPRP ELECT VDW BOUNDARY MISC KINETIC TOTAL TEMP POTENTIAL TOTAL3 TEMPAVG PRESSURE GPRESSURE VOLUME PRESSAVG GPRESSAVG
ENERGY: 600000 1.1859 6.3532 2.3969 0.0000 -12853.0011 2101.2031 0.0000 0.0000 1066.2511 -9675.6110 184.7347 -10741.8621 -9673.9060 184.7347 459.0453 530.3993 28337.3894 459.0453 530.3993
ENERGY: 700000 1.3821 8.4647 1.4422 0.0000 -12146.1277 1859.5223 0.0000 0.0000 1187.0545 -9088.2620 205.6647 -10275.3165 -9086.4826 209.9940 286.9657 441.2479 28014.6144 4.7200 4.8325
TCL: Running 100000 steps at 240 kelvin.
TCL: Setting parameter langevinTemp to 240
TCL: Running for 100000 steps
ETITLE: TS BOND ANGLE DIHED IMPRP ELECT VDW BOUNDARY MISC KINETIC TOTAL TEMP POTENTIAL TOTAL3 TEMPAVG PRESSURE GPRESSURE VOLUME PRESSAVG GPRESSAVG
ENERGY: 700000 1.3821 8.4647 1.4422 0.0000 -12146.1277 1859.5223 0.0000 0.0000 1186.4181 -9088.8984 205.5544 -10275.3165 -9087.0336 205.5544 352.9105 440.9140 28014.6144 352.9105 440.9140
ENERGY: 800000 3.1790 7.0129 0.5745 0.0000 -11653.2379 1703.3882 0.0000 0.0000 1349.8642 -8589.2190 233.8725 -9939.0831 -8585.8519 240.1336 -116.4296 -71.1150 28665.9853 2.6839 2.6359
TCL: Running 100000 steps at 270 kelvin.
TCL: Setting parameter langevinTemp to 270
TCL: Running for 100000 steps
ETITLE: TS BOND ANGLE DIHED IMPRP ELECT VDW BOUNDARY MISC KINETIC TOTAL TEMP POTENTIAL TOTAL3 TEMPAVG PRESSURE GPRESSURE VOLUME PRESSAVG GPRESSAVG
ENERGY: 800000 3.1790 7.0129 0.5745 0.0000 -11653.2379 1703.3882 0.0000 0.0000 1349.1617 -8589.9215 233.7507 -9939.0831 -8587.3137 233.7507 -141.1739 -70.8450 28665.9853 -141.1739 -70.8450
ENERGY: 900000 1.9303 5.7694 0.9136 0.0000 -11055.2852 1518.0195 0.0000 0.0000 1552.6090 -7976.0434 268.9993 -9528.6524 -7971.8670 269.6441 -426.9196 -320.6167 29349.5834 2.1751 2.3056
TCL: Running 1000000 steps at 300 kelvin.
TCL: Setting parameter langevinTemp to 300
TCL: Running for 1000000 steps
ETITLE: TS BOND ANGLE DIHED IMPRP ELECT VDW BOUNDARY MISC KINETIC TOTAL TEMP POTENTIAL TOTAL3 TEMPAVG PRESSURE GPRESSURE VOLUME PRESSAVG GPRESSAVG
ENERGY: 900000 1.9303 5.7694 0.9136 0.0000 -11055.2852 1518.0195 0.0000 0.0000 1551.8488 -7976.8036 268.8676 -9528.6524 -7974.3085 268.8676 -393.8504 -320.0655 29349.5834 -393.8504 -320.0655
ENERGY: 1100000 2.3563 8.7243 4.6152 0.0000 -10548.1653 1445.7583 0.0000 0.0000 1719.6554 -7367.0558 297.9411 -9086.7112 -7364.5291 300.1488 5.6395 105.1371 30082.8001 3.1445 3.0774
ENERGY: 1300000 2.7861 10.9235 3.2347 0.0000 -10491.0785 1413.0651 0.0000 0.0000 1718.8521 -7342.2169 297.8019 -9061.0691 -7340.4036 299.9272 -260.8489 -194.1365 30347.5925 2.7750 2.8207
ENERGY: 1500000 1.0399 10.5884 1.7809 0.0000 -10495.8914 1411.8722 0.0000 0.0000 1774.8579 -7295.7521 307.5053 -9070.6100 -7293.5691 300.9419 -48.7723 103.3018 29759.2291 2.8728 2.7980
ENERGY: 1700000 3.7961 5.5092 3.0857 0.0000 -10279.3492 1285.0490 0.0000 0.0000 1729.5974 -7252.3118 299.6636 -8981.9091 -7248.2645 300.0057 -857.9024 -812.4026 30644.9757 3.0691 3.0285
ENERGY: 1900000 3.4801 11.2428 3.1412 0.0000 -10432.6797 1324.0714 0.0000 0.0000 1746.6546 -7344.0896 302.6189 -9090.7442 -7341.0254 300.7108 -541.8200 -501.0722 29951.3479 3.5815 3.5479
TCL: Exiting due to exit command.
