Info: SIMULATION PARAMETERS:
Info: TIMESTEP               2
Info: NUMBER OF STEPS        0
Info: STEPS PER CYCLE        10
Info: PERIODIC CELL BASIS 1  36.005 0 0
Info: PERIODIC CELL BASIS 2  0 33.314 0
Info: PERIODIC CELL BASIS 3  0 0 37.195
Info: PERIODIC CELL CENTER   0 0 0
Info: WRAPPING WATERS AROUND PERIODIC BOUNDARIES ON OUTPUT.
Info: WRAPPING ALL CLUSTERS AROUND PERIODIC BOUNDARIES ON OUTPUT.
Info: FIRST LDB TIMESTEP     50
Info: LAST LDB TIMESTEP     -1
Info: HOM BACKGROUND SCALING 1
Info: PME BACKGROUND SCALING 1
Info: MIN ATOMS PER PATCH    40
Info: EMPTY PATCH LOAD       40 ATOMS
Info: INITIAL TEMPERATURE    300
Info: CENTER OF MASS MOVING INITIALLY? NO
Info: DIELECTRIC             1
Info: EXCLUDE                SCALED ONE-FOUR
Info: 1-4 ELECTROSTATICS SCALED BY 0.833333
Info: MODIFIED 1-4 VDW PARAMETERS WILL BE USED
Info: DCD FILENAME           mobley_6456034_equil.dcd
Info: DCD FREQUENCY          100000
Info: DCD FIRST STEP         100000
Info: DCD FILE WILL CONTAIN UNIT CELL DATA
Info: XST FILENAME           mobley_6456034_equil.xst
Info: XST FREQUENCY          100000
Info: NO VELOCITY DCD OUTPUT
Info: NO FORCE DCD OUTPUT
Info: OUTPUT FILENAME        mobley_6456034_equil
Info: BINARY OUTPUT FILES WILL BE USED
Info: RESTART FILENAME       mobley_6456034_equil.restart
Info: RESTART FREQUENCY      100000
Info: BINARY RESTART FILES WILL BE USED
Info: CUTOFF                 9
Info: PAIRLIST DISTANCE      11
Info: PAIRLIST SHRINK RATE   0.01
Info: PAIRLIST GROW RATE     0.01
Info: PAIRLIST TRIGGER       0.3
Info: PAIRLISTS PER CYCLE    2
Info: PAIRLISTS ENABLED
Info: MARGIN                 8
Info: HYDROGEN GROUP CUTOFF  2.5
Info: PATCH DIMENSION        21.5
Info: ENERGY OUTPUT STEPS    100000
Info: ENERGY EVALUATION STEPS    100000
Info: OUTPUT ENERGY PRECISION 4
Info: CROSSTERM ENERGY INCLUDED IN DIHEDRAL
Info: TIMING OUTPUT STEPS    1000000
Info: PRESSURE OUTPUT STEPS  100000
Info: LANGEVIN DYNAMICS ACTIVE
Info: LANGEVIN TEMPERATURE   30
Info: LANGEVIN USING BBK INTEGRATOR
Info: LANGEVIN DAMPING COEFFICIENT IS 1 INVERSE PS
Info: LANGEVIN DYNAMICS APPLIED TO HYDROGENS
Info: LANGEVIN PISTON PRESSURE CONTROL ACTIVE
Info:        TARGET PRESSURE IS 1.01325 BAR
Info:     OSCILLATION PERIOD IS 50 FS
Info:             DECAY TIME IS 25 FS
Info:     PISTON TEMPERATURE IS 300 K
Info:       PRESSURE CONTROL IS GROUP-BASED
Info:    INITIAL STRAIN RATE IS 0 0 0
Info:       CELL FLUCTUATION IS ISOTROPIC
Info: PARTICLE MESH EWALD (PME) ACTIVE
Info: PME TOLERANCE               1e-06
Info: PME EWALD COEFFICIENT       0.348832
Info: PME INTERPOLATION ORDER     4
Info: PME GRID DIMENSIONS         40 36 40
Info: PME MAXIMUM GRID SPACING    1
Info: FULL ELECTROSTATIC EVALUATION FREQUENCY      2
Info: USING VERLET I (r-RESPA) MTS SCHEME.
Info: C1 SPLITTING OF LONG RANGE ELECTROSTATICS
Info: PLACING ATOMS IN PATCHES BY HYDROGEN GROUPS
Info: RIGID BONDS TO HYDROGEN : ALL
Info:         ERROR TOLERANCE : 1e-08
Info:          MAX ITERATIONS : 100
Info: RIGID WATER USING SETTLE ALGORITHM
Info: RANDOM NUMBER SEED     1743252979
Info: USE HYDROGEN BONDS?    NO
Info: Using AMBER format force field!
Info: AMBER PARM FILE        mobley_6456034.prmtop
Info: COORDINATE PDB         mobley_6456034.pdb
Info: Exclusions will be read from PARM file!
Info: SCNB (VDW SCALING)     2
Info: USING ARITHMETIC MEAN TO COMBINE L-J SIGMA PARAMETERS
Info: BINARY COORDINATES     mobley_6456034_min.coor
Info: SUMMARY OF PARAMETERS:
Info: 9 BONDS
Info: 13 ANGLES
Info:   13 HARMONIC
Info:   0 COSINE-BASED
Info: 17 DIHEDRAL
Info: 0 IMPROPER
Info: 0 CROSSTERM
Info: 0 VDW
Info: 36 VDW_PAIRS
Info: 0 NBTHOLE_PAIRS
Info: STRUCTURE SUMMARY:
Info: 2942 ATOMS
Info: 2941 BONDS
Info: 46 ANGLES
Info: 64 DIHEDRALS
Info: 0 IMPROPERS
Info: 0 CROSSTERMS
Info: 3043 EXCLUSIONS
Info: 2932 RIGID BONDS
Info: 5894 DEGREES OF FREEDOM
Info: 982 HYDROGEN GROUPS
Info: 4 ATOMS IN LARGEST HYDROGEN GROUP
Info: 982 MIGRATION GROUPS
Info: 4 ATOMS IN LARGEST MIGRATION GROUP
Info: TOTAL MASS = 17655.8 amu
Info: TOTAL CHARGE = 0.000199974 e
Info: MASS DENSITY = 0.657161 g/cm^3
Info: ATOM DENSITY = 0.065943 atoms/A^3
Info: ADDED 0 IMPLICIT EXCLUSIONS
Info: NONBONDED TABLE R-SQUARED SPACING: 0.0625
Info: NONBONDED TABLE SIZE: 705 POINTS
Info: REMOVING COM VELOCITY 0.083042 0.0651877 0.0645442
TCL: Running for 100000 steps
ETITLE: TS BOND ANGLE DIHED IMPRP ELECT VDW BOUNDARY MISC KINETIC TOTAL TEMP POTENTIAL TOTAL3 TEMPAVG PRESSURE GPRESSURE VOLUME PRESSAVG GPRESSAVG
ENERGY: 0 0.2138 0.8090 2.5007 0.0000 -13548.5314 2395.7269 0.0000 0.0000 1748.6185 -9400.6626 298.5900 -11149.2810 -9400.3364 298.5900 592.0211 633.0477 44614.3079 592.0211 633.0477
ENERGY: 100000 0.5384 1.4089 2.4531 0.0000 -14096.0896 2443.2289 0.0000 0.0000 174.6268 -11473.8334 29.8189 -11648.4602 -11473.4100 30.9475 140.9944 199.1578 28384.3873 4.2475 4.3226
TCL: Running 100000 steps at 60 kelvin.
TCL: Setting parameter langevinTemp to 60
TCL: Running for 100000 steps
ETITLE: TS BOND ANGLE DIHED IMPRP ELECT VDW BOUNDARY MISC KINETIC TOTAL TEMP POTENTIAL TOTAL3 TEMPAVG PRESSURE GPRESSURE VOLUME PRESSAVG GPRESSAVG
ENERGY: 100000 0.5384 1.4089 2.4531 0.0000 -14096.0896 2443.2289 0.0000 0.0000 174.5380 -11473.9222 29.8037 -11648.4602 -11473.5625 29.8037 128.4876 199.2401 28384.3873 128.4876 199.2401
ENERGY: 200000 0.4398 3.6862 2.9548 0.0000 -14024.8329 2388.8589 0.0000 0.0000 357.9001 -11270.9931 61.1142 -11628.8932 -11270.2401 60.0509 33.6858 49.5615 28134.5519 5.2819 5.2376
TCL: Running 100000 steps at 90 kelvin.
TCL: Setting parameter langevinTemp to 90
TCL: Running for 100000 steps
ETITLE: TS BOND ANGLE DIHED IMPRP ELECT VDW BOUNDARY MISC KINETIC TOTAL TEMP POTENTIAL TOTAL3 TEMPAVG PRESSURE GPRESSURE VOLUME PRESSAVG GPRESSAVG
ENERGY: 200000 0.4398 3.6862 2.9548 0.0000 -14024.8329 2388.8589 0.0000 0.0000 357.7208 -11271.1724 61.0836 -11628.8932 -11270.3374 61.0836 0.5089 49.1860 28134.5519 0.5089 49.1860
ENERGY: 300000 0.6540 4.5384 3.4040 0.0000 -13856.7045 2343.6197 0.0000 0.0000 527.8584 -10976.6300 90.1359 -11504.4884 -10975.5401 89.7385 -75.4709 -34.1324 28372.4187 4.8300 4.9610
TCL: Running 100000 steps at 120 kelvin.
TCL: Setting parameter langevinTemp to 120
TCL: Running for 100000 steps
ETITLE: TS BOND ANGLE DIHED IMPRP ELECT VDW BOUNDARY MISC KINETIC TOTAL TEMP POTENTIAL TOTAL3 TEMPAVG PRESSURE GPRESSURE VOLUME PRESSAVG GPRESSAVG
ENERGY: 300000 0.6540 4.5384 3.4040 0.0000 -13856.7045 2343.6197 0.0000 0.0000 527.5946 -10976.8939 90.0908 -11504.4884 -10975.9389 90.0908 -89.3008 -34.1759 28372.4187 -89.3008 -34.1759
ENERGY: 400000 1.9173 7.3635 3.1034 0.0000 -13531.5718 2145.4808 0.0000 0.0000 687.6448 -10686.0619 117.4206 -11373.7067 -10683.7317 119.6356 -1356.9745 -1314.0163 28436.2106 4.4418 4.4187
TCL: Running 100000 steps at 150 kelvin.
TCL: Setting parameter langevinTemp to 150
TCL: Running for 100000 steps
ETITLE: TS BOND ANGLE DIHED IMPRP ELECT VDW BOUNDARY MISC KINETIC TOTAL TEMP POTENTIAL TOTAL3 TEMPAVG PRESSURE GPRESSURE VOLUME PRESSAVG GPRESSAVG
ENERGY: 400000 1.9173 7.3635 3.1034 0.0000 -13531.5718 2145.4808 0.0000 0.0000 687.2852 -10686.4216 117.3592 -11373.7067 -10685.1243 117.3592 -1375.0273 -1313.7445 28436.2106 -1375.0273 -1313.7445
ENERGY: 500000 2.3176 6.1309 3.1992 0.0000 -13443.6020 2252.9916 0.0000 0.0000 898.6687 -10280.2939 153.4546 -11178.9626 -10278.3508 150.4035 244.1850 258.2232 28781.6957 3.6437 3.6883
TCL: Running 100000 steps at 180 kelvin.
TCL: Setting parameter langevinTemp to 180
TCL: Running for 100000 steps
ETITLE: TS BOND ANGLE DIHED IMPRP ELECT VDW BOUNDARY MISC KINETIC TOTAL TEMP POTENTIAL TOTAL3 TEMPAVG PRESSURE GPRESSURE VOLUME PRESSAVG GPRESSAVG
ENERGY: 500000 2.3176 6.1309 3.1992 0.0000 -13443.6020 2252.9916 0.0000 0.0000 898.2502 -10280.7124 153.3831 -11178.9626 -10278.6311 153.3831 203.0269 257.2002 28781.6957 203.0269 257.2002
ENERGY: 600000 1.0224 7.3987 3.3848 0.0000 -13043.6596 2080.6072 0.0000 0.0000 1059.4657 -9891.7807 180.9119 -10951.2464 -9889.4671 180.0169 -362.2442 -336.5746 28890.1097 4.2295 4.3584
TCL: Running 100000 steps at 210 kelvin.
TCL: Setting parameter langevinTemp to 210
TCL: Running for 100000 steps
ETITLE: TS BOND ANGLE DIHED IMPRP ELECT VDW BOUNDARY MISC KINETIC TOTAL TEMP POTENTIAL TOTAL3 TEMPAVG PRESSURE GPRESSURE VOLUME PRESSAVG GPRESSAVG
ENERGY: 600000 1.0224 7.3987 3.3848 0.0000 -13043.6596 2080.6072 0.0000 0.0000 1058.9423 -9892.3041 180.8225 -10951.2464 -9890.1758 180.8225 -386.2494 -335.2882 28890.1097 -386.2494 -335.2882
ENERGY: 700000 3.3195 9.0037 3.7301 0.0000 -12320.3843 1821.5775 0.0000 0.0000 1253.3867 -9229.3669 214.0254 -10482.7536 -9227.8265 210.5429 -676.5171 -626.3622 28992.3407 3.9478 3.8460
TCL: Running 100000 steps at 240 kelvin.
TCL: Setting parameter langevinTemp to 240
TCL: Running for 100000 steps
ETITLE: TS BOND ANGLE DIHED IMPRP ELECT VDW BOUNDARY MISC KINETIC TOTAL TEMP POTENTIAL TOTAL3 TEMPAVG PRESSURE GPRESSURE VOLUME PRESSAVG GPRESSAVG
ENERGY: 700000 3.3195 9.0037 3.7301 0.0000 -12320.3843 1821.5775 0.0000 0.0000 1252.7607 -9229.9928 213.9185 -10482.7536 -9227.4836 213.9185 -700.0925 -627.8955 28992.3407 -700.0925 -627.8955
ENERGY: 800000 2.7211 8.6406 4.8354 0.0000 -11755.3971 1684.7056 0.0000 0.0000 1388.3174 -8666.1770 237.0659 -10054.4944 -8663.2874 239.7133 -267.4160 -182.9491 29005.9477 2.3457 2.1256
TCL: Running 100000 steps at 270 kelvin.
TCL: Setting parameter langevinTemp to 270
TCL: Running for 100000 steps
ETITLE: TS BOND ANGLE DIHED IMPRP ELECT VDW BOUNDARY MISC KINETIC TOTAL TEMP POTENTIAL TOTAL3 TEMPAVG PRESSURE GPRESSURE VOLUME PRESSAVG GPRESSAVG
ENERGY: 800000 2.7211 8.6406 4.8354 0.0000 -11755.3971 1684.7056 0.0000 0.0000 1387.6301 -8666.8643 236.9485 -10054.4944 -8664.6172 236.9485 -256.1747 -182.5912 29005.9477 -256.1747 -182.5912
ENERGY: 900000 3.4181 8.2708 2.1344 0.0000 -11315.3294 1693.6528 0.0000 0.0000 1623.1718 -7984.6814 277.1691 -9607.8533 -7981.4493 269.6778 1520.1031 1627.1608 28907.5390 2.9392 3.0219
TCL: Running 1000000 steps at 300 kelvin.
TCL: Setting parameter langevinTemp to 300
TCL: Running for 1000000 steps
ETITLE: TS BOND ANGLE DIHED IMPRP ELECT VDW BOUNDARY MISC KINETIC TOTAL TEMP POTENTIAL TOTAL3 TEMPAVG PRESSURE GPRESSURE VOLUME PRESSAVG GPRESSAVG
ENERGY: 900000 3.4181 8.2708 2.1344 0.0000 -11315.3294 1693.6528 0.0000 0.0000 1622.3924 -7985.4608 277.0360 -9607.8533 -7983.7746 277.0360 1543.1859 1627.6985 28907.5390 1543.1859 1627.6985
ENERGY: 1100000 1.2792 10.9855 3.2946 0.0000 -10534.9077 1363.1591 0.0000 0.0000 1777.1874 -7379.0020 303.4684 -9156.1893 -7374.1322 299.7574 -492.8472 -480.6331 30673.5745 2.6577 2.7378
ENERGY: 1300000 4.9796 9.5787 4.5187 0.0000 -10536.3839 1359.9450 0.0000 0.0000 1797.2212 -7360.1407 306.8893 -9157.3619 -7354.6977 300.8071 -582.0579 -487.1488 30481.6883 3.7639 3.6828
ENERGY: 1500000 1.0729 8.9137 3.8565 0.0000 -10589.2297 1383.5151 0.0000 0.0000 1800.2848 -7391.5867 307.4125 -9191.8715 -7387.1722 300.2000 -179.6109 -63.0623 30036.7794 3.7141 3.5663
ENERGY: 1700000 2.2229 12.4695 3.9093 0.0000 -10656.9672 1439.2492 0.0000 0.0000 1768.6908 -7430.4254 302.0175 -9199.1162 -7427.2499 300.5132 7.6065 53.7273 30309.8614 2.6385 2.6859
ENERGY: 1900000 5.7250 17.1182 3.2622 0.0000 -10611.1066 1384.8037 0.0000 0.0000 1740.1843 -7460.0133 297.1498 -9200.1976 -7455.9520 300.2885 -631.9807 -514.7235 30505.1250 3.0305 3.1921
TCL: Exiting due to exit command.
