Info: SIMULATION PARAMETERS:
Info: TIMESTEP               2
Info: NUMBER OF STEPS        0
Info: STEPS PER CYCLE        10
Info: PERIODIC CELL BASIS 1  35.01 0 0
Info: PERIODIC CELL BASIS 2  0 35.411 0
Info: PERIODIC CELL BASIS 3  0 0 35.723
Info: PERIODIC CELL CENTER   0 0 0
Info: WRAPPING WATERS AROUND PERIODIC BOUNDARIES ON OUTPUT.
Info: WRAPPING ALL CLUSTERS AROUND PERIODIC BOUNDARIES ON OUTPUT.
Info: FIRST LDB TIMESTEP     50
Info: LAST LDB TIMESTEP     -1
Info: HOM BACKGROUND SCALING 1
Info: PME BACKGROUND SCALING 1
Info: MIN ATOMS PER PATCH    40
Info: EMPTY PATCH LOAD       40 ATOMS
Info: INITIAL TEMPERATURE    300
Info: CENTER OF MASS MOVING INITIALLY? NO
Info: DIELECTRIC             1
Info: EXCLUDE                SCALED ONE-FOUR
Info: 1-4 ELECTROSTATICS SCALED BY 0.833333
Info: MODIFIED 1-4 VDW PARAMETERS WILL BE USED
Info: DCD FILENAME           mobley_4305650_equil.dcd
Info: DCD FREQUENCY          100000
Info: DCD FIRST STEP         100000
Info: DCD FILE WILL CONTAIN UNIT CELL DATA
Info: XST FILENAME           mobley_4305650_equil.xst
Info: XST FREQUENCY          100000
Info: NO VELOCITY DCD OUTPUT
Info: NO FORCE DCD OUTPUT
Info: OUTPUT FILENAME        mobley_4305650_equil
Info: BINARY OUTPUT FILES WILL BE USED
Info: RESTART FILENAME       mobley_4305650_equil.restart
Info: RESTART FREQUENCY      100000
Info: BINARY RESTART FILES WILL BE USED
Info: CUTOFF                 9
Info: PAIRLIST DISTANCE      11
Info: PAIRLIST SHRINK RATE   0.01
Info: PAIRLIST GROW RATE     0.01
Info: PAIRLIST TRIGGER       0.3
Info: PAIRLISTS PER CYCLE    2
Info: PAIRLISTS ENABLED
Info: MARGIN                 8
Info: HYDROGEN GROUP CUTOFF  2.5
Info: PATCH DIMENSION        21.5
Info: ENERGY OUTPUT STEPS    100000
Info: ENERGY EVALUATION STEPS    100000
Info: OUTPUT ENERGY PRECISION 4
Info: CROSSTERM ENERGY INCLUDED IN DIHEDRAL
Info: TIMING OUTPUT STEPS    1000000
Info: PRESSURE OUTPUT STEPS  100000
Info: LANGEVIN DYNAMICS ACTIVE
Info: LANGEVIN TEMPERATURE   30
Info: LANGEVIN USING BBK INTEGRATOR
Info: LANGEVIN DAMPING COEFFICIENT IS 1 INVERSE PS
Info: LANGEVIN DYNAMICS APPLIED TO HYDROGENS
Info: LANGEVIN PISTON PRESSURE CONTROL ACTIVE
Info:        TARGET PRESSURE IS 1.01325 BAR
Info:     OSCILLATION PERIOD IS 50 FS
Info:             DECAY TIME IS 25 FS
Info:     PISTON TEMPERATURE IS 300 K
Info:       PRESSURE CONTROL IS GROUP-BASED
Info:    INITIAL STRAIN RATE IS 0 0 0
Info:       CELL FLUCTUATION IS ISOTROPIC
Info: PARTICLE MESH EWALD (PME) ACTIVE
Info: PME TOLERANCE               1e-06
Info: PME EWALD COEFFICIENT       0.348832
Info: PME INTERPOLATION ORDER     4
Info: PME GRID DIMENSIONS         36 36 36
Info: PME MAXIMUM GRID SPACING    1
Info: FULL ELECTROSTATIC EVALUATION FREQUENCY      2
Info: USING VERLET I (r-RESPA) MTS SCHEME.
Info: C1 SPLITTING OF LONG RANGE ELECTROSTATICS
Info: PLACING ATOMS IN PATCHES BY HYDROGEN GROUPS
Info: RIGID BONDS TO HYDROGEN : ALL
Info:         ERROR TOLERANCE : 1e-08
Info:          MAX ITERATIONS : 100
Info: RIGID WATER USING SETTLE ALGORITHM
Info: RANDOM NUMBER SEED     1743159639
Info: USE HYDROGEN BONDS?    NO
Info: Using AMBER format force field!
Info: AMBER PARM FILE        mobley_4305650.prmtop
Info: COORDINATE PDB         mobley_4305650.pdb
Info: Exclusions will be read from PARM file!
Info: SCNB (VDW SCALING)     2
Info: USING ARITHMETIC MEAN TO COMBINE L-J SIGMA PARAMETERS
Info: BINARY COORDINATES     mobley_4305650_min.coor
Info: SUMMARY OF PARAMETERS:
Info: 6 BONDS
Info: 5 ANGLES
Info: 3 DIHEDRAL
Info: 0 IMPROPER
Info: 0 CROSSTERM
Info: 0 VDW
Info: 21 VDW_PAIRS
Info: 0 NBTHOLE_PAIRS
Info: STRUCTURE SUMMARY:
Info: 2988 ATOMS
Info: 2987 BONDS
Info: 13 ANGLES
Info: 12 DIHEDRALS
Info: 0 IMPROPERS
Info: 0 CROSSTERMS
Info: 3012 EXCLUSIONS
Info: 2984 RIGID BONDS
Info: 5980 DEGREES OF FREEDOM
Info: 997 HYDROGEN GROUPS
Info: 4 ATOMS IN LARGEST HYDROGEN GROUP
Info: 997 MIGRATION GROUPS
Info: 4 ATOMS IN LARGEST MIGRATION GROUP
Info: TOTAL MASS = 17945 amu
Info: TOTAL CHARGE = -0.000200007 e
Info: MASS DENSITY = 0.672858 g/cm^3
Info: ATOM DENSITY = 0.0674687 atoms/A^3
Info: ADDED 0 IMPLICIT EXCLUSIONS
Info: NONBONDED TABLE R-SQUARED SPACING: 0.0625
Info: NONBONDED TABLE SIZE: 705 POINTS
Info: REMOVING COM VELOCITY -0.0886189 -0.240099 0.0785825
TCL: Running for 100000 steps
ETITLE: TS BOND ANGLE DIHED IMPRP ELECT VDW BOUNDARY MISC KINETIC TOTAL TEMP POTENTIAL TOTAL3 TEMPAVG PRESSURE GPRESSURE VOLUME PRESSAVG GPRESSAVG
ENERGY: 0 0.0138 0.0788 0.0028 0.0000 -13899.8767 2470.7640 0.0000 0.0000 1744.4109 -9684.6063 293.5878 -11429.0173 -9684.2618 293.5878 546.4951 574.9020 44287.2002 546.4951 574.9020
ENERGY: 100000 1.1611 0.4488 0.0310 0.0000 -14341.4972 2451.3171 0.0000 0.0000 182.0353 -11706.5039 30.6369 -11888.5392 -11705.8547 30.9812 -407.7955 -348.1024 29619.6197 4.1449 4.2288
TCL: Running 100000 steps at 60 kelvin.
TCL: Setting parameter langevinTemp to 60
TCL: Running for 100000 steps
ETITLE: TS BOND ANGLE DIHED IMPRP ELECT VDW BOUNDARY MISC KINETIC TOTAL TEMP POTENTIAL TOTAL3 TEMPAVG PRESSURE GPRESSURE VOLUME PRESSAVG GPRESSAVG
ENERGY: 100000 1.1611 0.4488 0.0310 0.0000 -14341.4972 2451.3171 0.0000 0.0000 181.9442 -11706.5950 30.6216 -11888.5392 -11706.2336 30.6216 -390.3621 -348.0482 29619.6197 -390.3621 -348.0482
ENERGY: 200000 0.0648 0.6135 0.0048 0.0000 -14324.3771 2489.1443 0.0000 0.0000 358.4035 -11476.1463 60.3200 -11834.5497 -11474.9154 59.9441 352.4132 415.5578 29003.5101 4.6048 4.6059
TCL: Running 100000 steps at 90 kelvin.
TCL: Setting parameter langevinTemp to 90
TCL: Running for 100000 steps
ETITLE: TS BOND ANGLE DIHED IMPRP ELECT VDW BOUNDARY MISC KINETIC TOTAL TEMP POTENTIAL TOTAL3 TEMPAVG PRESSURE GPRESSURE VOLUME PRESSAVG GPRESSAVG
ENERGY: 200000 0.0648 0.6135 0.0048 0.0000 -14324.3771 2489.1443 0.0000 0.0000 358.2247 -11476.3250 60.2899 -11834.5497 -11475.5201 60.2899 365.7976 415.2444 29003.5101 365.7976 415.2444
ENERGY: 300000 0.3905 0.8623 0.0206 0.0000 -14201.6582 2456.5218 0.0000 0.0000 538.9887 -11204.8743 90.7129 -11743.8630 -11203.8044 89.8839 448.5015 485.3643 29030.2077 2.6186 2.6195
TCL: Running 100000 steps at 120 kelvin.
TCL: Setting parameter langevinTemp to 120
TCL: Running for 100000 steps
ETITLE: TS BOND ANGLE DIHED IMPRP ELECT VDW BOUNDARY MISC KINETIC TOTAL TEMP POTENTIAL TOTAL3 TEMPAVG PRESSURE GPRESSURE VOLUME PRESSAVG GPRESSAVG
ENERGY: 300000 0.3905 0.8623 0.0206 0.0000 -14201.6582 2456.5218 0.0000 0.0000 538.7259 -11205.1371 90.6686 -11743.8630 -11204.0146 90.6686 435.5760 485.2185 29030.2077 435.5760 485.2185
ENERGY: 400000 1.0995 2.1237 0.0412 0.0000 -13943.6802 2337.2903 0.0000 0.0000 712.6506 -10890.4749 119.9405 -11603.1255 -10888.7566 119.6940 -212.6166 -92.7899 29405.2467 4.0027 3.9168
TCL: Running 100000 steps at 150 kelvin.
TCL: Setting parameter langevinTemp to 150
TCL: Running for 100000 steps
ETITLE: TS BOND ANGLE DIHED IMPRP ELECT VDW BOUNDARY MISC KINETIC TOTAL TEMP POTENTIAL TOTAL3 TEMPAVG PRESSURE GPRESSURE VOLUME PRESSAVG GPRESSAVG
ENERGY: 400000 1.0995 2.1237 0.0412 0.0000 -13943.6802 2337.2903 0.0000 0.0000 712.3122 -10890.8133 119.8835 -11603.1255 -10889.3916 119.8835 -145.6599 -91.9138 29405.2467 -145.6599 -91.9138
ENERGY: 500000 1.3656 2.7517 0.0138 0.0000 -13776.9847 2323.9107 0.0000 0.0000 884.7049 -10564.2380 148.8976 -11448.9429 -10563.4988 149.6591 18.8199 110.0492 29291.7631 4.5373 4.4946
TCL: Running 100000 steps at 180 kelvin.
TCL: Setting parameter langevinTemp to 180
TCL: Running for 100000 steps
ETITLE: TS BOND ANGLE DIHED IMPRP ELECT VDW BOUNDARY MISC KINETIC TOTAL TEMP POTENTIAL TOTAL3 TEMPAVG PRESSURE GPRESSURE VOLUME PRESSAVG GPRESSAVG
ENERGY: 500000 1.3656 2.7517 0.0138 0.0000 -13776.9847 2323.9107 0.0000 0.0000 884.2533 -10564.6896 148.8216 -11448.9429 -10562.9482 148.8216 43.4342 108.6077 29291.7631 43.4342 108.6077
ENERGY: 600000 0.1650 1.3591 0.1553 0.0000 -13289.3173 2141.5906 0.0000 0.0000 1078.1981 -10067.8492 181.4629 -11146.0473 -10062.9465 179.7698 -194.7199 -121.8830 29542.7306 3.3599 3.1412
TCL: Running 100000 steps at 210 kelvin.
TCL: Setting parameter langevinTemp to 210
TCL: Running for 100000 steps
ETITLE: TS BOND ANGLE DIHED IMPRP ELECT VDW BOUNDARY MISC KINETIC TOTAL TEMP POTENTIAL TOTAL3 TEMPAVG PRESSURE GPRESSURE VOLUME PRESSAVG GPRESSAVG
ENERGY: 600000 0.1650 1.3591 0.1553 0.0000 -13289.3173 2141.5906 0.0000 0.0000 1077.6493 -10068.3980 181.3705 -11146.0473 -10066.0989 181.3705 -181.1521 -120.0418 29542.7306 -181.1521 -120.0418
ENERGY: 700000 1.9520 2.0904 0.2016 0.0000 -12561.0379 1941.9476 0.0000 0.0000 1232.2582 -9382.5880 207.3915 -10614.8462 -9379.3893 210.0459 190.6321 286.5804 29200.7969 3.9176 3.9695
TCL: Running 100000 steps at 240 kelvin.
TCL: Setting parameter langevinTemp to 240
TCL: Running for 100000 steps
ETITLE: TS BOND ANGLE DIHED IMPRP ELECT VDW BOUNDARY MISC KINETIC TOTAL TEMP POTENTIAL TOTAL3 TEMPAVG PRESSURE GPRESSURE VOLUME PRESSAVG GPRESSAVG
ENERGY: 700000 1.9520 2.0904 0.2016 0.0000 -12561.0379 1941.9476 0.0000 0.0000 1231.6323 -9383.2139 207.2861 -10614.8462 -9381.4056 207.2861 205.9378 287.2823 29200.7969 205.9378 287.2823
ENERGY: 800000 0.1569 2.9778 0.4347 0.0000 -11840.3554 1648.5537 0.0000 0.0000 1435.6705 -8752.5617 241.6262 -10188.2323 -8750.5533 239.6565 -436.6634 -380.4723 29078.3764 3.2369 3.1177
TCL: Running 100000 steps at 270 kelvin.
TCL: Setting parameter langevinTemp to 270
TCL: Running for 100000 steps
ETITLE: TS BOND ANGLE DIHED IMPRP ELECT VDW BOUNDARY MISC KINETIC TOTAL TEMP POTENTIAL TOTAL3 TEMPAVG PRESSURE GPRESSURE VOLUME PRESSAVG GPRESSAVG
ENERGY: 800000 0.1569 2.9778 0.4347 0.0000 -11840.3554 1648.5537 0.0000 0.0000 1434.9571 -8753.2752 241.5061 -10188.2323 -8751.3118 241.5061 -490.9348 -381.4090 29078.3764 -490.9348 -381.4090
ENERGY: 900000 0.5453 4.7576 1.1696 0.0000 -11491.5436 1626.1929 0.0000 0.0000 1622.0138 -8236.8644 272.9881 -9858.8782 -8233.9523 269.9540 118.6632 219.3872 29818.2155 3.8473 3.8898
TCL: Running 1000000 steps at 300 kelvin.
TCL: Setting parameter langevinTemp to 300
TCL: Running for 1000000 steps
ETITLE: TS BOND ANGLE DIHED IMPRP ELECT VDW BOUNDARY MISC KINETIC TOTAL TEMP POTENTIAL TOTAL3 TEMPAVG PRESSURE GPRESSURE VOLUME PRESSAVG GPRESSAVG
ENERGY: 900000 0.5453 4.7576 1.1696 0.0000 -11491.5436 1626.1929 0.0000 0.0000 1621.1973 -8237.6809 272.8507 -9858.8782 -8235.4562 272.8507 134.1814 219.9881 29818.2155 134.1814 219.9881
ENERGY: 1100000 0.3181 1.8688 0.1652 0.0000 -10868.0281 1525.8506 0.0000 0.0000 1729.4874 -7610.3380 291.0761 -9339.8254 -7606.7319 300.2237 558.8450 672.0561 30780.4385 2.9449 2.9806
ENERGY: 1300000 0.6447 2.1305 0.0344 0.0000 -10928.0086 1529.0906 0.0000 0.0000 1860.0675 -7536.0409 313.0530 -9396.1085 -7532.9323 300.2227 620.5436 692.4788 30620.2417 3.1261 3.3713
ENERGY: 1500000 1.3258 3.8372 0.6279 0.0000 -11034.2751 1567.4362 0.0000 0.0000 1732.7615 -7728.2864 291.6272 -9461.0479 -7722.8175 300.0428 636.9729 679.9519 30661.3492 3.2790 3.2342
ENERGY: 1700000 0.5624 3.8701 0.7999 0.0000 -10833.4756 1497.0149 0.0000 0.0000 1739.8752 -7591.3531 292.8244 -9331.2283 -7589.8244 299.9707 735.3685 779.8417 30408.5675 3.7240 3.7812
ENERGY: 1900000 0.5012 8.1963 0.1163 0.0000 -10981.5363 1558.5340 0.0000 0.0000 1770.8811 -7643.3073 298.0428 -9414.1884 -7639.9341 299.9594 789.9430 873.8024 30446.7957 3.3543 3.1642
TCL: Exiting due to exit command.
