Info: SIMULATION PARAMETERS:
Info: TIMESTEP               2
Info: NUMBER OF STEPS        0
Info: STEPS PER CYCLE        10
Info: PERIODIC CELL BASIS 1  36.592 0 0
Info: PERIODIC CELL BASIS 2  0 34.696 0
Info: PERIODIC CELL BASIS 3  0 0 34.954
Info: PERIODIC CELL CENTER   0 0 0
Info: WRAPPING WATERS AROUND PERIODIC BOUNDARIES ON OUTPUT.
Info: WRAPPING ALL CLUSTERS AROUND PERIODIC BOUNDARIES ON OUTPUT.
Info: FIRST LDB TIMESTEP     50
Info: LAST LDB TIMESTEP     -1
Info: HOM BACKGROUND SCALING 1
Info: PME BACKGROUND SCALING 1
Info: MIN ATOMS PER PATCH    40
Info: EMPTY PATCH LOAD       40 ATOMS
Info: INITIAL TEMPERATURE    300
Info: CENTER OF MASS MOVING INITIALLY? NO
Info: DIELECTRIC             1
Info: EXCLUDE                SCALED ONE-FOUR
Info: 1-4 ELECTROSTATICS SCALED BY 0.833333
Info: MODIFIED 1-4 VDW PARAMETERS WILL BE USED
Info: DCD FILENAME           mobley_4678740_equil.dcd
Info: DCD FREQUENCY          100000
Info: DCD FIRST STEP         100000
Info: DCD FILE WILL CONTAIN UNIT CELL DATA
Info: XST FILENAME           mobley_4678740_equil.xst
Info: XST FREQUENCY          100000
Info: NO VELOCITY DCD OUTPUT
Info: NO FORCE DCD OUTPUT
Info: OUTPUT FILENAME        mobley_4678740_equil
Info: BINARY OUTPUT FILES WILL BE USED
Info: RESTART FILENAME       mobley_4678740_equil.restart
Info: RESTART FREQUENCY      100000
Info: BINARY RESTART FILES WILL BE USED
Info: CUTOFF                 9
Info: PAIRLIST DISTANCE      11
Info: PAIRLIST SHRINK RATE   0.01
Info: PAIRLIST GROW RATE     0.01
Info: PAIRLIST TRIGGER       0.3
Info: PAIRLISTS PER CYCLE    2
Info: PAIRLISTS ENABLED
Info: MARGIN                 8
Info: HYDROGEN GROUP CUTOFF  2.5
Info: PATCH DIMENSION        21.5
Info: ENERGY OUTPUT STEPS    100000
Info: ENERGY EVALUATION STEPS    100000
Info: OUTPUT ENERGY PRECISION 4
Info: CROSSTERM ENERGY INCLUDED IN DIHEDRAL
Info: TIMING OUTPUT STEPS    1000000
Info: PRESSURE OUTPUT STEPS  100000
Info: LANGEVIN DYNAMICS ACTIVE
Info: LANGEVIN TEMPERATURE   30
Info: LANGEVIN USING BBK INTEGRATOR
Info: LANGEVIN DAMPING COEFFICIENT IS 1 INVERSE PS
Info: LANGEVIN DYNAMICS APPLIED TO HYDROGENS
Info: LANGEVIN PISTON PRESSURE CONTROL ACTIVE
Info:        TARGET PRESSURE IS 1.01325 BAR
Info:     OSCILLATION PERIOD IS 50 FS
Info:             DECAY TIME IS 25 FS
Info:     PISTON TEMPERATURE IS 300 K
Info:       PRESSURE CONTROL IS GROUP-BASED
Info:    INITIAL STRAIN RATE IS 0 0 0
Info:       CELL FLUCTUATION IS ISOTROPIC
Info: PARTICLE MESH EWALD (PME) ACTIVE
Info: PME TOLERANCE               1e-06
Info: PME EWALD COEFFICIENT       0.348832
Info: PME INTERPOLATION ORDER     4
Info: PME GRID DIMENSIONS         40 36 36
Info: PME MAXIMUM GRID SPACING    1
Info: FULL ELECTROSTATIC EVALUATION FREQUENCY      2
Info: USING VERLET I (r-RESPA) MTS SCHEME.
Info: C1 SPLITTING OF LONG RANGE ELECTROSTATICS
Info: PLACING ATOMS IN PATCHES BY HYDROGEN GROUPS
Info: RIGID BONDS TO HYDROGEN : ALL
Info:         ERROR TOLERANCE : 1e-08
Info:          MAX ITERATIONS : 100
Info: RIGID WATER USING SETTLE ALGORITHM
Info: RANDOM NUMBER SEED     1743215180
Info: USE HYDROGEN BONDS?    NO
Info: Using AMBER format force field!
Info: AMBER PARM FILE        mobley_4678740.prmtop
Info: COORDINATE PDB         mobley_4678740.pdb
Info: Exclusions will be read from PARM file!
Info: SCNB (VDW SCALING)     2
Info: USING ARITHMETIC MEAN TO COMBINE L-J SIGMA PARAMETERS
Info: BINARY COORDINATES     mobley_4678740_min.coor
Info: SUMMARY OF PARAMETERS:
Info: 6 BONDS
Info: 5 ANGLES
Info:   5 HARMONIC
Info:   0 COSINE-BASED
Info: 3 DIHEDRAL
Info: 0 IMPROPER
Info: 0 CROSSTERM
Info: 0 VDW
Info: 21 VDW_PAIRS
Info: 0 NBTHOLE_PAIRS
Info: STRUCTURE SUMMARY:
Info: 2949 ATOMS
Info: 2949 BONDS
Info: 30 ANGLES
Info: 42 DIHEDRALS
Info: 0 IMPROPERS
Info: 0 CROSSTERMS
Info: 3012 EXCLUSIONS
Info: 2935 RIGID BONDS
Info: 5912 DEGREES OF FREEDOM
Info: 991 HYDROGEN GROUPS
Info: 3 ATOMS IN LARGEST HYDROGEN GROUP
Info: 991 MIGRATION GROUPS
Info: 3 ATOMS IN LARGEST MIGRATION GROUP
Info: TOTAL MASS = 17815.7 amu
Info: TOTAL CHARGE = 0.000200085 e
Info: MASS DENSITY = 0.666654 g/cm^3
Info: ATOM DENSITY = 0.0664527 atoms/A^3
Info: ADDED 0 IMPLICIT EXCLUSIONS
Info: NONBONDED TABLE R-SQUARED SPACING: 0.0625
Info: NONBONDED TABLE SIZE: 705 POINTS
Info: REMOVING COM VELOCITY 0.187349 0.0502377 -0.0629057
TCL: Running for 100000 steps
ETITLE: TS BOND ANGLE DIHED IMPRP ELECT VDW BOUNDARY MISC KINETIC TOTAL TEMP POTENTIAL TOTAL3 TEMPAVG PRESSURE GPRESSURE VOLUME PRESSAVG GPRESSAVG
ENERGY: 0 0.4345 0.2565 0.0309 0.0000 -13552.5390 2397.9706 0.0000 0.0000 1732.5149 -9421.3316 294.9395 -11153.8465 -9420.9680 294.9395 325.8007 361.0433 44377.4597 325.8007 361.0433
ENERGY: 100000 1.6043 0.9050 0.5642 0.0000 -14130.9877 2417.0883 0.0000 0.0000 177.1648 -11533.6611 30.1601 -11710.8259 -11533.1640 30.9244 -760.7823 -687.6103 29196.9227 5.1019 5.1305
TCL: Running 100000 steps at 60 kelvin.
TCL: Setting parameter langevinTemp to 60
TCL: Running for 100000 steps
ETITLE: TS BOND ANGLE DIHED IMPRP ELECT VDW BOUNDARY MISC KINETIC TOTAL TEMP POTENTIAL TOTAL3 TEMPAVG PRESSURE GPRESSURE VOLUME PRESSAVG GPRESSAVG
ENERGY: 100000 1.6043 0.9050 0.5642 0.0000 -14130.9877 2417.0883 0.0000 0.0000 177.0758 -11533.7501 30.1450 -11710.8259 -11533.4293 30.1450 -750.8220 -687.5460 29196.9227 -750.8220 -687.5460
ENERGY: 200000 0.8922 2.2245 0.6120 0.0000 -14144.0652 2531.3027 0.0000 0.0000 353.9335 -11255.1002 60.2529 -11609.0338 -11253.8578 59.8044 990.9702 1065.7898 28780.6402 3.4087 3.4393
TCL: Running 100000 steps at 90 kelvin.
TCL: Setting parameter langevinTemp to 90
TCL: Running for 100000 steps
ETITLE: TS BOND ANGLE DIHED IMPRP ELECT VDW BOUNDARY MISC KINETIC TOTAL TEMP POTENTIAL TOTAL3 TEMPAVG PRESSURE GPRESSURE VOLUME PRESSAVG GPRESSAVG
ENERGY: 200000 0.8922 2.2245 0.6120 0.0000 -14144.0652 2531.3027 0.0000 0.0000 353.7562 -11255.2776 60.2227 -11609.0338 -11254.4722 60.2227 1009.9966 1065.6982 28780.6402 1009.9966 1065.6982
ENERGY: 300000 0.8973 0.9684 0.8738 0.0000 -13837.5255 2316.5094 0.0000 0.0000 520.4901 -10997.7865 88.6071 -11518.2766 -10996.6732 90.0565 -563.3723 -500.5083 29004.7747 3.2317 3.2151
TCL: Running 100000 steps at 120 kelvin.
TCL: Setting parameter langevinTemp to 120
TCL: Running for 100000 steps
ETITLE: TS BOND ANGLE DIHED IMPRP ELECT VDW BOUNDARY MISC KINETIC TOTAL TEMP POTENTIAL TOTAL3 TEMPAVG PRESSURE GPRESSURE VOLUME PRESSAVG GPRESSAVG
ENERGY: 300000 0.8973 0.9684 0.8738 0.0000 -13837.5255 2316.5094 0.0000 0.0000 520.2156 -10998.0610 88.5604 -11518.2766 -10996.9422 88.5604 -545.8002 -500.6005 29004.7747 -545.8002 -500.6005
ENERGY: 400000 1.8604 2.5202 0.8390 0.0000 -13644.3144 2261.3861 0.0000 0.0000 694.7132 -10682.9955 118.2664 -11377.7086 -10681.3006 119.9481 -573.9928 -557.3144 29253.5012 2.1539 2.1284
TCL: Running 100000 steps at 150 kelvin.
TCL: Setting parameter langevinTemp to 150
TCL: Running for 100000 steps
ETITLE: TS BOND ANGLE DIHED IMPRP ELECT VDW BOUNDARY MISC KINETIC TOTAL TEMP POTENTIAL TOTAL3 TEMPAVG PRESSURE GPRESSURE VOLUME PRESSAVG GPRESSAVG
ENERGY: 400000 1.8604 2.5202 0.8390 0.0000 -13644.3144 2261.3861 0.0000 0.0000 694.3460 -10683.3627 118.2039 -11377.7086 -10681.8149 118.2039 -597.0557 -557.2096 29253.5012 -597.0557 -557.2096
ENERGY: 500000 3.4204 2.9079 0.2852 0.0000 -13511.3875 2285.6041 0.0000 0.0000 862.3448 -10356.8250 146.8037 -11219.1698 -10354.7593 149.9433 232.3653 264.0828 29262.2891 2.4459 2.3755
TCL: Running 100000 steps at 180 kelvin.
TCL: Setting parameter langevinTemp to 180
TCL: Running for 100000 steps
ETITLE: TS BOND ANGLE DIHED IMPRP ELECT VDW BOUNDARY MISC KINETIC TOTAL TEMP POTENTIAL TOTAL3 TEMPAVG PRESSURE GPRESSURE VOLUME PRESSAVG GPRESSAVG
ENERGY: 500000 3.4204 2.9079 0.2852 0.0000 -13511.3875 2285.6041 0.0000 0.0000 861.9016 -10357.2682 146.7282 -11219.1698 -10355.6294 146.7282 227.6694 264.1511 29262.2891 227.6694 264.1511
ENERGY: 600000 2.5106 3.3744 2.3581 0.0000 -13036.1923 2063.2918 0.0000 0.0000 1059.2119 -9905.4456 180.3179 -10964.6575 -9903.5164 179.7637 -776.4524 -681.5175 29377.3409 3.4098 3.2270
TCL: Running 100000 steps at 210 kelvin.
TCL: Setting parameter langevinTemp to 210
TCL: Running for 100000 steps
ETITLE: TS BOND ANGLE DIHED IMPRP ELECT VDW BOUNDARY MISC KINETIC TOTAL TEMP POTENTIAL TOTAL3 TEMPAVG PRESSURE GPRESSURE VOLUME PRESSAVG GPRESSAVG
ENERGY: 600000 2.5106 3.3744 2.3581 0.0000 -13036.1923 2063.2918 0.0000 0.0000 1058.7009 -9905.9566 180.2309 -10964.6575 -9903.5892 180.2309 -744.2141 -683.2227 29377.3409 -744.2141 -683.2227
ENERGY: 700000 4.4565 5.4983 3.0058 0.0000 -12293.8513 1838.8681 0.0000 0.0000 1244.6978 -9197.3248 211.8946 -10442.0226 -9193.6243 209.8830 -598.6383 -526.8893 28969.0033 3.5930 3.5183
TCL: Running 100000 steps at 240 kelvin.
TCL: Setting parameter langevinTemp to 240
TCL: Running for 100000 steps
ETITLE: TS BOND ANGLE DIHED IMPRP ELECT VDW BOUNDARY MISC KINETIC TOTAL TEMP POTENTIAL TOTAL3 TEMPAVG PRESSURE GPRESSURE VOLUME PRESSAVG GPRESSAVG
ENERGY: 700000 4.4565 5.4983 3.0058 0.0000 -12293.8513 1838.8681 0.0000 0.0000 1244.0645 -9197.9581 211.7868 -10442.0226 -9195.5195 211.7868 -612.3575 -526.8774 28969.0033 -612.3575 -526.8774
ENERGY: 800000 5.7906 4.3134 2.2164 0.0000 -11685.1213 1729.5227 0.0000 0.0000 1410.7773 -8532.5008 240.1676 -9943.2781 -8530.7835 240.4758 315.2561 447.1339 28860.4548 2.8305 2.9010
TCL: Running 100000 steps at 270 kelvin.
TCL: Setting parameter langevinTemp to 270
TCL: Running for 100000 steps
ETITLE: TS BOND ANGLE DIHED IMPRP ELECT VDW BOUNDARY MISC KINETIC TOTAL TEMP POTENTIAL TOTAL3 TEMPAVG PRESSURE GPRESSURE VOLUME PRESSAVG GPRESSAVG
ENERGY: 800000 5.7906 4.3134 2.2164 0.0000 -11685.1213 1729.5227 0.0000 0.0000 1410.0721 -8533.2060 240.0476 -9943.2781 -8530.6970 240.0476 363.9103 446.0015 28860.4548 363.9103 446.0015
ENERGY: 900000 3.0096 6.6890 2.1938 0.0000 -11210.7113 1573.2467 0.0000 0.0000 1580.9956 -8044.5766 269.1452 -9625.5723 -8041.2247 270.2398 561.9439 629.8589 28806.4141 3.6640 3.6961
TCL: Running 1000000 steps at 300 kelvin.
TCL: Setting parameter langevinTemp to 300
TCL: Running for 1000000 steps
ETITLE: TS BOND ANGLE DIHED IMPRP ELECT VDW BOUNDARY MISC KINETIC TOTAL TEMP POTENTIAL TOTAL3 TEMPAVG PRESSURE GPRESSURE VOLUME PRESSAVG GPRESSAVG
ENERGY: 900000 3.0096 6.6890 2.1938 0.0000 -11210.7113 1573.2467 0.0000 0.0000 1580.1908 -8045.3815 269.0082 -9625.5723 -8042.4606 269.0082 549.5986 628.2558 28806.4141 549.5986 628.2558
ENERGY: 1100000 6.1890 4.9832 1.4556 0.0000 -10514.4279 1352.1530 0.0000 0.0000 1729.4619 -7420.1853 294.4198 -9149.6472 -7417.8814 299.3710 -252.5740 -159.0219 30127.0139 3.8127 3.8708
ENERGY: 1300000 4.4406 5.8358 3.5589 0.0000 -10648.6249 1389.0872 0.0000 0.0000 1756.4017 -7489.3008 299.0059 -9245.7024 -7486.3444 300.2286 -479.0800 -451.1225 30656.4915 4.1691 4.1631
ENERGY: 1500000 5.2721 5.5534 3.3784 0.0000 -10736.2423 1498.2515 0.0000 0.0000 1811.0784 -7412.7084 308.3140 -9223.7868 -7409.7183 299.6452 360.3875 375.8004 30523.8908 2.8549 2.8524
ENERGY: 1700000 9.2834 3.8685 3.4394 0.0000 -10726.6973 1483.1888 0.0000 0.0000 1763.5631 -7463.3542 300.2251 -9226.9173 -7459.1694 300.5140 507.2885 538.0263 30307.7549 3.3187 3.4759
ENERGY: 1900000 3.4927 7.3429 3.5878 0.0000 -10677.3208 1452.9308 0.0000 0.0000 1762.4656 -7447.5010 300.0382 -9209.9667 -7443.4640 299.8313 -49.9873 76.1610 30499.8772 4.3124 4.2670
TCL: Exiting due to exit command.
