Info: SIMULATION PARAMETERS:
Info: TIMESTEP               2
Info: NUMBER OF STEPS        0
Info: STEPS PER CYCLE        10
Info: PERIODIC CELL BASIS 1  34.986 0 0
Info: PERIODIC CELL BASIS 2  0 35.411 0
Info: PERIODIC CELL BASIS 3  0 0 36.199
Info: PERIODIC CELL CENTER   0 0 0
Info: WRAPPING WATERS AROUND PERIODIC BOUNDARIES ON OUTPUT.
Info: WRAPPING ALL CLUSTERS AROUND PERIODIC BOUNDARIES ON OUTPUT.
Info: FIRST LDB TIMESTEP     50
Info: LAST LDB TIMESTEP     -1
Info: HOM BACKGROUND SCALING 1
Info: PME BACKGROUND SCALING 1
Info: MIN ATOMS PER PATCH    40
Info: EMPTY PATCH LOAD       40 ATOMS
Info: INITIAL TEMPERATURE    300
Info: CENTER OF MASS MOVING INITIALLY? NO
Info: DIELECTRIC             1
Info: EXCLUDE                SCALED ONE-FOUR
Info: 1-4 ELECTROSTATICS SCALED BY 0.833333
Info: MODIFIED 1-4 VDW PARAMETERS WILL BE USED
Info: DCD FILENAME           mobley_2245668_equil.dcd
Info: DCD FREQUENCY          100000
Info: DCD FIRST STEP         100000
Info: DCD FILE WILL CONTAIN UNIT CELL DATA
Info: XST FILENAME           mobley_2245668_equil.xst
Info: XST FREQUENCY          100000
Info: NO VELOCITY DCD OUTPUT
Info: NO FORCE DCD OUTPUT
Info: OUTPUT FILENAME        mobley_2245668_equil
Info: BINARY OUTPUT FILES WILL BE USED
Info: RESTART FILENAME       mobley_2245668_equil.restart
Info: RESTART FREQUENCY      100000
Info: BINARY RESTART FILES WILL BE USED
Info: CUTOFF                 9
Info: PAIRLIST DISTANCE      11
Info: PAIRLIST SHRINK RATE   0.01
Info: PAIRLIST GROW RATE     0.01
Info: PAIRLIST TRIGGER       0.3
Info: PAIRLISTS PER CYCLE    2
Info: PAIRLISTS ENABLED
Info: MARGIN                 8
Info: HYDROGEN GROUP CUTOFF  2.5
Info: PATCH DIMENSION        21.5
Info: ENERGY OUTPUT STEPS    100000
Info: ENERGY EVALUATION STEPS    100000
Info: OUTPUT ENERGY PRECISION 4
Info: CROSSTERM ENERGY INCLUDED IN DIHEDRAL
Info: TIMING OUTPUT STEPS    1000000
Info: PRESSURE OUTPUT STEPS  100000
Info: LANGEVIN DYNAMICS ACTIVE
Info: LANGEVIN TEMPERATURE   30
Info: LANGEVIN USING BBK INTEGRATOR
Info: LANGEVIN DAMPING COEFFICIENT IS 1 INVERSE PS
Info: LANGEVIN DYNAMICS APPLIED TO HYDROGENS
Info: LANGEVIN PISTON PRESSURE CONTROL ACTIVE
Info:        TARGET PRESSURE IS 1.01325 BAR
Info:     OSCILLATION PERIOD IS 50 FS
Info:             DECAY TIME IS 25 FS
Info:     PISTON TEMPERATURE IS 300 K
Info:       PRESSURE CONTROL IS GROUP-BASED
Info:    INITIAL STRAIN RATE IS 0 0 0
Info:       CELL FLUCTUATION IS ISOTROPIC
Info: PARTICLE MESH EWALD (PME) ACTIVE
Info: PME TOLERANCE               1e-06
Info: PME EWALD COEFFICIENT       0.348832
Info: PME INTERPOLATION ORDER     4
Info: PME GRID DIMENSIONS         36 36 40
Info: PME MAXIMUM GRID SPACING    1
Info: FULL ELECTROSTATIC EVALUATION FREQUENCY      2
Info: USING VERLET I (r-RESPA) MTS SCHEME.
Info: C1 SPLITTING OF LONG RANGE ELECTROSTATICS
Info: PLACING ATOMS IN PATCHES BY HYDROGEN GROUPS
Info: RIGID BONDS TO HYDROGEN : ALL
Info:         ERROR TOLERANCE : 1e-08
Info:          MAX ITERATIONS : 100
Info: RIGID WATER USING SETTLE ALGORITHM
Info: RANDOM NUMBER SEED     1743228313
Info: USE HYDROGEN BONDS?    NO
Info: Using AMBER format force field!
Info: AMBER PARM FILE        mobley_2245668.prmtop
Info: COORDINATE PDB         mobley_2245668.pdb
Info: Exclusions will be read from PARM file!
Info: SCNB (VDW SCALING)     2
Info: USING ARITHMETIC MEAN TO COMBINE L-J SIGMA PARAMETERS
Info: BINARY COORDINATES     mobley_2245668_min.coor
Info: SUMMARY OF PARAMETERS:
Info: 7 BONDS
Info: 8 ANGLES
Info: 6 DIHEDRAL
Info: 0 IMPROPER
Info: 0 CROSSTERM
Info: 0 VDW
Info: 21 VDW_PAIRS
Info: 0 NBTHOLE_PAIRS
Info: STRUCTURE SUMMARY:
Info: 3000 ATOMS
Info: 2999 BONDS
Info: 25 ANGLES
Info: 32 DIHEDRALS
Info: 0 IMPROPERS
Info: 0 CROSSTERMS
Info: 3054 EXCLUSIONS
Info: 2995 RIGID BONDS
Info: 6005 DEGREES OF FREEDOM
Info: 1000 HYDROGEN GROUPS
Info: 4 ATOMS IN LARGEST HYDROGEN GROUP
Info: 1000 MIGRATION GROUPS
Info: 4 ATOMS IN LARGEST MIGRATION GROUP
Info: TOTAL MASS = 18000 amu
Info: TOTAL CHARGE = 2.98023e-08 e
Info: MASS DENSITY = 0.666505 g/cm^3
Info: ATOM DENSITY = 0.0668948 atoms/A^3
Info: ADDED 0 IMPLICIT EXCLUSIONS
Info: NONBONDED TABLE R-SQUARED SPACING: 0.0625
Info: NONBONDED TABLE SIZE: 705 POINTS
Info: REMOVING COM VELOCITY 0.00355632 0.163423 -0.0872091
TCL: Running for 100000 steps
ETITLE: TS BOND ANGLE DIHED IMPRP ELECT VDW BOUNDARY MISC KINETIC TOTAL TEMP POTENTIAL TOTAL3 TEMPAVG PRESSURE GPRESSURE VOLUME PRESSAVG GPRESSAVG
ENERGY: 0 0.0692 0.4735 0.8924 0.0000 -13940.5315 2480.1730 0.0000 0.0000 1783.8521 -9675.0713 298.9759 -11458.9233 -9674.7232 298.9759 546.7717 578.0790 44846.5518 546.7717 578.0790
ENERGY: 100000 0.1059 0.9342 1.1101 0.0000 -14505.8068 2504.8443 0.0000 0.0000 179.3406 -11819.4718 30.0577 -11998.8124 -11819.0785 30.8885 -25.7032 24.2017 28580.3241 4.7805 4.7919
TCL: Running 100000 steps at 60 kelvin.
TCL: Setting parameter langevinTemp to 60
TCL: Running for 100000 steps
ETITLE: TS BOND ANGLE DIHED IMPRP ELECT VDW BOUNDARY MISC KINETIC TOTAL TEMP POTENTIAL TOTAL3 TEMPAVG PRESSURE GPRESSURE VOLUME PRESSAVG GPRESSAVG
ENERGY: 100000 0.1059 0.9342 1.1101 0.0000 -14505.8068 2504.8443 0.0000 0.0000 179.2503 -11819.5621 30.0426 -11998.8124 -11819.1950 30.0426 -29.9791 24.1775 28580.3241 -29.9791 24.1775
ENERGY: 200000 0.3380 1.2552 0.9998 0.0000 -14294.3096 2394.1712 0.0000 0.0000 354.9763 -11542.5692 59.4945 -11897.5455 -11541.8263 59.8816 -578.9594 -521.5268 28855.8417 3.2529 3.2169
TCL: Running 100000 steps at 90 kelvin.
TCL: Setting parameter langevinTemp to 90
TCL: Running for 100000 steps
ETITLE: TS BOND ANGLE DIHED IMPRP ELECT VDW BOUNDARY MISC KINETIC TOTAL TEMP POTENTIAL TOTAL3 TEMPAVG PRESSURE GPRESSURE VOLUME PRESSAVG GPRESSAVG
ENERGY: 200000 0.3380 1.2552 0.9998 0.0000 -14294.3096 2394.1712 0.0000 0.0000 354.8017 -11542.7437 59.4652 -11897.5455 -11542.0591 59.4652 -570.8130 -521.4594 28855.8417 -570.8130 -521.4594
ENERGY: 300000 0.4195 1.9628 1.4181 0.0000 -14130.0085 2364.8726 0.0000 0.0000 533.2748 -11228.0607 89.3775 -11761.3355 -11226.5980 89.9896 -382.2098 -346.4970 28987.4877 2.6599 2.6627
TCL: Running 100000 steps at 120 kelvin.
TCL: Setting parameter langevinTemp to 120
TCL: Running for 100000 steps
ETITLE: TS BOND ANGLE DIHED IMPRP ELECT VDW BOUNDARY MISC KINETIC TOTAL TEMP POTENTIAL TOTAL3 TEMPAVG PRESSURE GPRESSURE VOLUME PRESSAVG GPRESSAVG
ENERGY: 300000 0.4195 1.9628 1.4181 0.0000 -14130.0085 2364.8726 0.0000 0.0000 533.0080 -11228.3275 89.3328 -11761.3355 -11227.2888 89.3328 -386.9771 -345.9121 28987.4877 -386.9771 -345.9121
ENERGY: 400000 1.1147 2.0847 1.8683 0.0000 -14074.0205 2430.4628 0.0000 0.0000 728.2310 -10910.2591 122.0525 -11638.4901 -10908.7939 119.8896 630.8672 680.7830 28919.9726 3.9834 4.0433
TCL: Running 100000 steps at 150 kelvin.
TCL: Setting parameter langevinTemp to 150
TCL: Running for 100000 steps
ETITLE: TS BOND ANGLE DIHED IMPRP ELECT VDW BOUNDARY MISC KINETIC TOTAL TEMP POTENTIAL TOTAL3 TEMPAVG PRESSURE GPRESSURE VOLUME PRESSAVG GPRESSAVG
ENERGY: 400000 1.1147 2.0847 1.8683 0.0000 -14074.0205 2430.4628 0.0000 0.0000 727.8804 -10910.6097 121.9937 -11638.4901 -10909.1255 121.9937 612.9308 680.5951 28919.9726 612.9308 680.5951
ENERGY: 500000 0.7168 2.9874 2.0386 0.0000 -13719.1059 2277.7088 0.0000 0.0000 885.0924 -10550.5618 148.3426 -11435.6542 -10548.2430 149.7165 -127.0937 -49.7873 29442.1814 2.4748 2.5338
TCL: Running 100000 steps at 180 kelvin.
TCL: Setting parameter langevinTemp to 180
TCL: Running for 100000 steps
ETITLE: TS BOND ANGLE DIHED IMPRP ELECT VDW BOUNDARY MISC KINETIC TOTAL TEMP POTENTIAL TOTAL3 TEMPAVG PRESSURE GPRESSURE VOLUME PRESSAVG GPRESSAVG
ENERGY: 500000 0.7168 2.9874 2.0386 0.0000 -13719.1059 2277.7088 0.0000 0.0000 884.6567 -10550.9975 148.2696 -11435.6542 -10549.1853 148.2696 -97.7441 -49.4981 29442.1814 -97.7441 -49.4981
ENERGY: 600000 0.6372 3.6937 0.9265 0.0000 -13364.7671 2194.0446 0.0000 0.0000 1076.1555 -10089.3098 180.3651 -11165.4653 -10087.4033 179.9085 560.4583 654.5360 28909.0888 2.0570 1.9061
TCL: Running 100000 steps at 210 kelvin.
TCL: Setting parameter langevinTemp to 210
TCL: Running for 100000 steps
ETITLE: TS BOND ANGLE DIHED IMPRP ELECT VDW BOUNDARY MISC KINETIC TOTAL TEMP POTENTIAL TOTAL3 TEMPAVG PRESSURE GPRESSURE VOLUME PRESSAVG GPRESSAVG
ENERGY: 600000 0.6372 3.6937 0.9265 0.0000 -13364.7671 2194.0446 0.0000 0.0000 1075.6259 -10089.8394 180.2763 -11165.4653 -10088.1182 180.2763 581.2777 654.0583 28909.0888 581.2777 654.0583
ENERGY: 700000 1.1612 2.7253 2.2390 0.0000 -12576.3589 1894.4235 0.0000 0.0000 1233.4373 -9442.3727 206.7257 -10675.8100 -9439.1934 209.5485 -478.1175 -406.4333 29414.1359 3.9472 3.8667
TCL: Running 100000 steps at 240 kelvin.
TCL: Setting parameter langevinTemp to 240
TCL: Running for 100000 steps
ETITLE: TS BOND ANGLE DIHED IMPRP ELECT VDW BOUNDARY MISC KINETIC TOTAL TEMP POTENTIAL TOTAL3 TEMPAVG PRESSURE GPRESSURE VOLUME PRESSAVG GPRESSAVG
ENERGY: 700000 1.1612 2.7253 2.2390 0.0000 -12576.3589 1894.4235 0.0000 0.0000 1232.8211 -9442.9889 206.6224 -10675.8100 -9441.2313 206.6224 -501.8488 -404.9510 29414.1359 -501.8488 -404.9510
ENERGY: 800000 0.6198 4.4462 2.0270 0.0000 -11976.3575 1710.0528 0.0000 0.0000 1382.3374 -8876.8743 231.6815 -10259.2116 -8871.8435 240.3752 -228.4940 -101.1234 29235.6537 3.9736 3.9712
TCL: Running 100000 steps at 270 kelvin.
TCL: Setting parameter langevinTemp to 270
TCL: Running for 100000 steps
ETITLE: TS BOND ANGLE DIHED IMPRP ELECT VDW BOUNDARY MISC KINETIC TOTAL TEMP POTENTIAL TOTAL3 TEMPAVG PRESSURE GPRESSURE VOLUME PRESSAVG GPRESSAVG
ENERGY: 800000 0.6198 4.4462 2.0270 0.0000 -11976.3575 1710.0528 0.0000 0.0000 1381.5810 -8877.6306 231.5548 -10259.2116 -8875.7634 231.5548 -187.6485 -100.6488 29235.6537 -187.6485 -100.6488
ENERGY: 900000 0.8545 5.6063 1.0754 0.0000 -11513.7885 1606.1202 0.0000 0.0000 1602.3552 -8297.7770 268.5568 -9900.1322 -8294.1911 270.0934 -65.6282 -27.7524 30079.1735 2.8143 2.8899
TCL: Running 1000000 steps at 300 kelvin.
TCL: Setting parameter langevinTemp to 300
TCL: Running for 1000000 steps
ETITLE: TS BOND ANGLE DIHED IMPRP ELECT VDW BOUNDARY MISC KINETIC TOTAL TEMP POTENTIAL TOTAL3 TEMPAVG PRESSURE GPRESSURE VOLUME PRESSAVG GPRESSAVG
ENERGY: 900000 0.8545 5.6063 1.0754 0.0000 -11513.7885 1606.1202 0.0000 0.0000 1601.5504 -8298.5818 268.4219 -9900.1322 -8295.7886 268.4219 -112.0541 -27.0565 30079.1735 -112.0541 -27.0565
ENERGY: 1100000 1.5188 4.3120 2.0131 0.0000 -10864.7170 1482.8436 0.0000 0.0000 1864.9732 -7509.0562 312.5719 -9374.0295 -7502.5318 299.8655 259.1532 361.1873 31087.7133 2.2344 2.4810
ENERGY: 1300000 1.2055 5.3856 0.7638 0.0000 -11017.3382 1571.8694 0.0000 0.0000 1842.7549 -7595.3590 308.8481 -9438.1140 -7593.3225 299.9688 879.5960 951.9026 30845.1147 3.6425 3.4632
ENERGY: 1500000 0.2772 5.9086 0.9597 0.0000 -10915.1314 1494.2870 0.0000 0.0000 1704.8122 -7708.8867 285.7287 -9413.6989 -7702.9804 299.7988 327.8264 418.8637 30601.9893 3.2502 3.0366
ENERGY: 1700000 0.2785 6.1667 0.8286 0.0000 -10872.0515 1427.5869 0.0000 0.0000 1804.3591 -7632.8319 302.4129 -9437.1910 -7629.2011 299.8284 -542.1448 -461.8699 31147.7386 2.6610 2.8242
ENERGY: 1900000 0.2297 5.5725 0.6186 0.0000 -10798.8328 1385.2595 0.0000 0.0000 1790.2952 -7616.8572 300.0558 -9407.1524 -7613.0359 300.3869 -676.0253 -601.3882 31157.3091 2.9598 2.8485
TCL: Exiting due to exit command.
