Info: SIMULATION PARAMETERS:
Info: TIMESTEP               2
Info: NUMBER OF STEPS        0
Info: STEPS PER CYCLE        10
Info: PERIODIC CELL BASIS 1  34.986 0 0
Info: PERIODIC CELL BASIS 2  0 35.411 0
Info: PERIODIC CELL BASIS 3  0 0 35.723
Info: PERIODIC CELL CENTER   0 0 0
Info: WRAPPING WATERS AROUND PERIODIC BOUNDARIES ON OUTPUT.
Info: WRAPPING ALL CLUSTERS AROUND PERIODIC BOUNDARIES ON OUTPUT.
Info: FIRST LDB TIMESTEP     50
Info: LAST LDB TIMESTEP     -1
Info: HOM BACKGROUND SCALING 1
Info: PME BACKGROUND SCALING 1
Info: MIN ATOMS PER PATCH    40
Info: EMPTY PATCH LOAD       40 ATOMS
Info: INITIAL TEMPERATURE    300
Info: CENTER OF MASS MOVING INITIALLY? NO
Info: DIELECTRIC             1
Info: EXCLUDE                SCALED ONE-FOUR
Info: 1-4 ELECTROSTATICS SCALED BY 0.833333
Info: MODIFIED 1-4 VDW PARAMETERS WILL BE USED
Info: DCD FILENAME           mobley_8578590_equil.dcd
Info: DCD FREQUENCY          100000
Info: DCD FIRST STEP         100000
Info: DCD FILE WILL CONTAIN UNIT CELL DATA
Info: XST FILENAME           mobley_8578590_equil.xst
Info: XST FREQUENCY          100000
Info: NO VELOCITY DCD OUTPUT
Info: NO FORCE DCD OUTPUT
Info: OUTPUT FILENAME        mobley_8578590_equil
Info: BINARY OUTPUT FILES WILL BE USED
Info: RESTART FILENAME       mobley_8578590_equil.restart
Info: RESTART FREQUENCY      100000
Info: BINARY RESTART FILES WILL BE USED
Info: CUTOFF                 9
Info: PAIRLIST DISTANCE      11
Info: PAIRLIST SHRINK RATE   0.01
Info: PAIRLIST GROW RATE     0.01
Info: PAIRLIST TRIGGER       0.3
Info: PAIRLISTS PER CYCLE    2
Info: PAIRLISTS ENABLED
Info: MARGIN                 8
Info: HYDROGEN GROUP CUTOFF  2.5
Info: PATCH DIMENSION        21.5
Info: ENERGY OUTPUT STEPS    100000
Info: ENERGY EVALUATION STEPS    100000
Info: OUTPUT ENERGY PRECISION 4
Info: CROSSTERM ENERGY INCLUDED IN DIHEDRAL
Info: TIMING OUTPUT STEPS    1000000
Info: PRESSURE OUTPUT STEPS  100000
Info: LANGEVIN DYNAMICS ACTIVE
Info: LANGEVIN TEMPERATURE   30
Info: LANGEVIN USING BBK INTEGRATOR
Info: LANGEVIN DAMPING COEFFICIENT IS 1 INVERSE PS
Info: LANGEVIN DYNAMICS APPLIED TO HYDROGENS
Info: LANGEVIN PISTON PRESSURE CONTROL ACTIVE
Info:        TARGET PRESSURE IS 1.01325 BAR
Info:     OSCILLATION PERIOD IS 50 FS
Info:             DECAY TIME IS 25 FS
Info:     PISTON TEMPERATURE IS 300 K
Info:       PRESSURE CONTROL IS GROUP-BASED
Info:    INITIAL STRAIN RATE IS 0 0 0
Info:       CELL FLUCTUATION IS ISOTROPIC
Info: PARTICLE MESH EWALD (PME) ACTIVE
Info: PME TOLERANCE               1e-06
Info: PME EWALD COEFFICIENT       0.348832
Info: PME INTERPOLATION ORDER     4
Info: PME GRID DIMENSIONS         36 36 36
Info: PME MAXIMUM GRID SPACING    1
Info: FULL ELECTROSTATIC EVALUATION FREQUENCY      2
Info: USING VERLET I (r-RESPA) MTS SCHEME.
Info: C1 SPLITTING OF LONG RANGE ELECTROSTATICS
Info: PLACING ATOMS IN PATCHES BY HYDROGEN GROUPS
Info: RIGID BONDS TO HYDROGEN : ALL
Info:         ERROR TOLERANCE : 1e-08
Info:          MAX ITERATIONS : 100
Info: RIGID WATER USING SETTLE ALGORITHM
Info: RANDOM NUMBER SEED     1743160700
Info: USE HYDROGEN BONDS?    NO
Info: Using AMBER format force field!
Info: AMBER PARM FILE        mobley_8578590.prmtop
Info: COORDINATE PDB         mobley_8578590.pdb
Info: Exclusions will be read from PARM file!
Info: SCNB (VDW SCALING)     2
Info: USING ARITHMETIC MEAN TO COMBINE L-J SIGMA PARAMETERS
Info: BINARY COORDINATES     mobley_8578590_min.coor
Info: SUMMARY OF PARAMETERS:
Info: 5 BONDS
Info: 4 ANGLES
Info:   4 HARMONIC
Info:   0 COSINE-BASED
Info: 1 DIHEDRAL
Info: 0 IMPROPER
Info: 0 CROSSTERM
Info: 0 VDW
Info: 21 VDW_PAIRS
Info: 0 NBTHOLE_PAIRS
Info: STRUCTURE SUMMARY:
Info: 2962 ATOMS
Info: 2961 BONDS
Info: 15 ANGLES
Info: 12 DIHEDRALS
Info: 0 IMPROPERS
Info: 0 CROSSTERMS
Info: 2988 EXCLUSIONS
Info: 2958 RIGID BONDS
Info: 5928 DEGREES OF FREEDOM
Info: 988 HYDROGEN GROUPS
Info: 4 ATOMS IN LARGEST HYDROGEN GROUP
Info: 988 MIGRATION GROUPS
Info: 4 ATOMS IN LARGEST MIGRATION GROUP
Info: TOTAL MASS = 17805.9 amu
Info: TOTAL CHARGE = 0.00030005 e
Info: MASS DENSITY = 0.668101 g/cm^3
Info: ATOM DENSITY = 0.0669275 atoms/A^3
Info: ADDED 0 IMPLICIT EXCLUSIONS
Info: NONBONDED TABLE R-SQUARED SPACING: 0.0625
Info: NONBONDED TABLE SIZE: 705 POINTS
Info: REMOVING COM VELOCITY 0.00886422 -0.0460944 -0.124081
TCL: Running for 100000 steps
ETITLE: TS BOND ANGLE DIHED IMPRP ELECT VDW BOUNDARY MISC KINETIC TOTAL TEMP POTENTIAL TOTAL3 TEMPAVG PRESSURE GPRESSURE VOLUME PRESSAVG GPRESSAVG
ENERGY: 0 0.0193 0.3120 0.1072 0.0000 -13737.3424 2439.2242 0.0000 0.0000 1760.3631 -9537.3165 298.8715 -11297.6796 -9537.0049 298.8715 679.2237 721.0946 44256.8405 679.2237 721.0946
ENERGY: 100000 0.0908 0.5378 0.1071 0.0000 -14336.2959 2480.3515 0.0000 0.0000 179.1845 -11676.0243 30.4216 -11855.2087 -11675.4625 30.8974 -18.2099 34.1812 28395.2558 2.4683 2.4767
TCL: Running 100000 steps at 60 kelvin.
TCL: Setting parameter langevinTemp to 60
TCL: Running for 100000 steps
ETITLE: TS BOND ANGLE DIHED IMPRP ELECT VDW BOUNDARY MISC KINETIC TOTAL TEMP POTENTIAL TOTAL3 TEMPAVG PRESSURE GPRESSURE VOLUME PRESSAVG GPRESSAVG
ENERGY: 100000 0.0908 0.5378 0.1071 0.0000 -14336.2959 2480.3515 0.0000 0.0000 179.0932 -11676.1155 30.4061 -11855.2087 -11675.6912 30.4061 -25.9236 34.1358 28395.2558 -25.9236 34.1358
ENERGY: 200000 0.2620 1.0183 0.4296 0.0000 -14282.9465 2494.3835 0.0000 0.0000 352.9505 -11433.9026 59.9233 -11786.8531 -11432.7753 59.9424 399.5584 471.9863 28259.6760 5.2152 5.1786
TCL: Running 100000 steps at 90 kelvin.
TCL: Setting parameter langevinTemp to 90
TCL: Running for 100000 steps
ETITLE: TS BOND ANGLE DIHED IMPRP ELECT VDW BOUNDARY MISC KINETIC TOTAL TEMP POTENTIAL TOTAL3 TEMPAVG PRESSURE GPRESSURE VOLUME PRESSAVG GPRESSAVG
ENERGY: 200000 0.2620 1.0183 0.4296 0.0000 -14282.9465 2494.3835 0.0000 0.0000 352.7764 -11434.0767 59.8938 -11786.8531 -11433.3819 59.8938 422.4222 472.5601 28259.6760 422.4222 472.5601
ENERGY: 300000 0.0834 1.2779 0.1502 0.0000 -13836.5400 2178.3366 0.0000 0.0000 531.8032 -11124.8887 90.2886 -11656.6919 -11123.7587 89.8519 -1651.3326 -1585.7294 28595.2756 4.1042 3.9939
TCL: Running 100000 steps at 120 kelvin.
TCL: Setting parameter langevinTemp to 120
TCL: Running for 100000 steps
ETITLE: TS BOND ANGLE DIHED IMPRP ELECT VDW BOUNDARY MISC KINETIC TOTAL TEMP POTENTIAL TOTAL3 TEMPAVG PRESSURE GPRESSURE VOLUME PRESSAVG GPRESSAVG
ENERGY: 300000 0.0834 1.2779 0.1502 0.0000 -13836.5400 2178.3366 0.0000 0.0000 531.5417 -11125.1502 90.2442 -11656.6919 -11123.9413 90.2442 -1656.9290 -1585.7633 28595.2756 -1656.9290 -1585.7633
ENERGY: 400000 0.1598 2.1619 0.2718 0.0000 -13884.8113 2323.0207 0.0000 0.0000 731.4416 -10827.7556 124.1829 -11559.1971 -10826.2397 119.7505 -166.6223 -82.3753 28530.4703 3.9900 4.1333
TCL: Running 100000 steps at 150 kelvin.
TCL: Setting parameter langevinTemp to 150
TCL: Running for 100000 steps
ETITLE: TS BOND ANGLE DIHED IMPRP ELECT VDW BOUNDARY MISC KINETIC TOTAL TEMP POTENTIAL TOTAL3 TEMPAVG PRESSURE GPRESSURE VOLUME PRESSAVG GPRESSAVG
ENERGY: 400000 0.1598 2.1619 0.2718 0.0000 -13884.8113 2323.0207 0.0000 0.0000 731.0872 -10828.1099 124.1228 -11559.1971 -10826.8054 124.1228 -138.7230 -82.1157 28530.4703 -138.7230 -82.1157
ENERGY: 500000 0.1438 1.8156 0.2258 0.0000 -13574.6564 2194.7665 0.0000 0.0000 871.5950 -10506.1098 147.9779 -11377.7047 -10503.4269 149.6466 -555.9604 -496.1448 28874.1609 3.9777 4.0066
TCL: Running 100000 steps at 180 kelvin.
TCL: Setting parameter langevinTemp to 180
TCL: Running for 100000 steps
ETITLE: TS BOND ANGLE DIHED IMPRP ELECT VDW BOUNDARY MISC KINETIC TOTAL TEMP POTENTIAL TOTAL3 TEMPAVG PRESSURE GPRESSURE VOLUME PRESSAVG GPRESSAVG
ENERGY: 500000 0.1438 1.8156 0.2258 0.0000 -13574.6564 2194.7665 0.0000 0.0000 871.1664 -10506.5384 147.9051 -11377.7047 -10505.1941 147.9051 -549.9582 -495.1902 28874.1609 -549.9582 -495.1902
ENERGY: 600000 0.0866 2.8896 0.4809 0.0000 -13079.8975 2059.4303 0.0000 0.0000 1049.0786 -9967.9315 178.1108 -11017.0101 -9965.3839 179.9424 -389.3989 -306.2783 28830.7631 2.9792 3.0654
TCL: Running 100000 steps at 210 kelvin.
TCL: Setting parameter langevinTemp to 210
TCL: Running for 100000 steps
ETITLE: TS BOND ANGLE DIHED IMPRP ELECT VDW BOUNDARY MISC KINETIC TOTAL TEMP POTENTIAL TOTAL3 TEMPAVG PRESSURE GPRESSURE VOLUME PRESSAVG GPRESSAVG
ENERGY: 600000 0.0866 2.8896 0.4809 0.0000 -13079.8975 2059.4303 0.0000 0.0000 1048.5410 -9968.4690 178.0195 -11017.0101 -9966.6448 178.0195 -347.1093 -305.6115 28830.7631 -347.1093 -305.6115
ENERGY: 700000 0.6072 3.1991 0.6216 0.0000 -12439.0566 1845.3026 0.0000 0.0000 1240.7040 -9348.6221 210.6446 -10589.3261 -9347.1398 210.2289 -839.7537 -753.4212 29481.1936 2.2706 2.1688
TCL: Running 100000 steps at 240 kelvin.
TCL: Setting parameter langevinTemp to 240
TCL: Running for 100000 steps
ETITLE: TS BOND ANGLE DIHED IMPRP ELECT VDW BOUNDARY MISC KINETIC TOTAL TEMP POTENTIAL TOTAL3 TEMPAVG PRESSURE GPRESSURE VOLUME PRESSAVG GPRESSAVG
ENERGY: 700000 0.6072 3.1991 0.6216 0.0000 -12439.0566 1845.3026 0.0000 0.0000 1240.0910 -9349.2351 210.5405 -10589.3261 -9346.5726 210.5405 -829.6531 -754.6771 29481.1936 -829.6531 -754.6771
ENERGY: 800000 0.8671 4.9382 0.2671 0.0000 -11885.6530 1677.8308 0.0000 0.0000 1407.6353 -8794.1145 238.9859 -10201.7498 -8793.5658 239.9761 -485.7081 -442.9670 29034.9121 3.4588 3.6145
TCL: Running 100000 steps at 270 kelvin.
TCL: Setting parameter langevinTemp to 270
TCL: Running for 100000 steps
ETITLE: TS BOND ANGLE DIHED IMPRP ELECT VDW BOUNDARY MISC KINETIC TOTAL TEMP POTENTIAL TOTAL3 TEMPAVG PRESSURE GPRESSURE VOLUME PRESSAVG GPRESSAVG
ENERGY: 800000 0.8671 4.9382 0.2671 0.0000 -11885.6530 1677.8308 0.0000 0.0000 1406.9578 -8794.7921 238.8709 -10201.7498 -8792.5588 238.8709 -529.1724 -444.5745 29034.9121 -529.1724 -444.5745
ENERGY: 900000 1.2563 3.9632 0.4650 0.0000 -11337.0378 1593.0214 0.0000 0.0000 1546.1548 -8192.1770 262.5035 -9738.3319 -8188.9122 269.3149 -100.8837 -20.4386 30085.1661 3.3995 3.3282
TCL: Running 1000000 steps at 300 kelvin.
TCL: Setting parameter langevinTemp to 300
TCL: Running for 1000000 steps
ETITLE: TS BOND ANGLE DIHED IMPRP ELECT VDW BOUNDARY MISC KINETIC TOTAL TEMP POTENTIAL TOTAL3 TEMPAVG PRESSURE GPRESSURE VOLUME PRESSAVG GPRESSAVG
ENERGY: 900000 1.2563 3.9632 0.4650 0.0000 -11337.0378 1593.0214 0.0000 0.0000 1545.3742 -8192.9577 262.3710 -9738.3319 -8190.4436 262.3710 -122.6453 -20.5331 30085.1661 -122.6453 -20.5331
ENERGY: 1100000 0.2870 4.9327 1.4970 0.0000 -10759.2928 1439.1662 0.0000 0.0000 1760.8168 -7552.5931 298.9485 -9313.4099 -7548.5029 300.2000 -333.3107 -197.7710 30939.2561 2.2259 2.0449
ENERGY: 1300000 0.7285 3.0046 0.6434 0.0000 -10769.5551 1412.5731 0.0000 0.0000 1770.0256 -7582.5799 300.5119 -9352.6055 -7578.9816 300.2676 -482.2220 -418.2079 30860.0020 2.2055 2.2334
ENERGY: 1500000 0.2417 4.1275 0.3802 0.0000 -10685.1741 1392.2467 0.0000 0.0000 1774.6319 -7513.5461 301.2940 -9288.1780 -7509.5342 300.2504 -392.9117 -329.5770 30675.3250 2.5086 2.6562
ENERGY: 1700000 0.4709 4.3145 2.4876 0.0000 -10740.1195 1427.7040 0.0000 0.0000 1773.2439 -7531.8987 301.0583 -9305.1426 -7529.9065 300.0182 -178.8642 -100.6864 30763.6036 2.8159 2.6572
ENERGY: 1900000 1.6102 3.7428 0.8918 0.0000 -10770.3131 1475.3268 0.0000 0.0000 1794.6553 -7494.0862 304.6935 -9288.7414 -7488.1836 300.1200 551.3590 606.3197 30377.2048 2.7971 2.9245
TCL: Exiting due to exit command.
