Info: SIMULATION PARAMETERS:
Info: TIMESTEP               2
Info: NUMBER OF STEPS        0
Info: STEPS PER CYCLE        10
Info: PERIODIC CELL BASIS 1  35.01 0 0
Info: PERIODIC CELL BASIS 2  0 35.411 0
Info: PERIODIC CELL BASIS 3  0 0 34.954
Info: PERIODIC CELL CENTER   0 0 0
Info: WRAPPING WATERS AROUND PERIODIC BOUNDARIES ON OUTPUT.
Info: WRAPPING ALL CLUSTERS AROUND PERIODIC BOUNDARIES ON OUTPUT.
Info: FIRST LDB TIMESTEP     50
Info: LAST LDB TIMESTEP     -1
Info: HOM BACKGROUND SCALING 1
Info: PME BACKGROUND SCALING 1
Info: MIN ATOMS PER PATCH    40
Info: EMPTY PATCH LOAD       40 ATOMS
Info: INITIAL TEMPERATURE    300
Info: CENTER OF MASS MOVING INITIALLY? NO
Info: DIELECTRIC             1
Info: EXCLUDE                SCALED ONE-FOUR
Info: 1-4 ELECTROSTATICS SCALED BY 0.833333
Info: MODIFIED 1-4 VDW PARAMETERS WILL BE USED
Info: DCD FILENAME           mobley_8789864_equil.dcd
Info: DCD FREQUENCY          100000
Info: DCD FIRST STEP         100000
Info: DCD FILE WILL CONTAIN UNIT CELL DATA
Info: XST FILENAME           mobley_8789864_equil.xst
Info: XST FREQUENCY          100000
Info: NO VELOCITY DCD OUTPUT
Info: NO FORCE DCD OUTPUT
Info: OUTPUT FILENAME        mobley_8789864_equil
Info: BINARY OUTPUT FILES WILL BE USED
Info: RESTART FILENAME       mobley_8789864_equil.restart
Info: RESTART FREQUENCY      100000
Info: BINARY RESTART FILES WILL BE USED
Info: CUTOFF                 9
Info: PAIRLIST DISTANCE      11
Info: PAIRLIST SHRINK RATE   0.01
Info: PAIRLIST GROW RATE     0.01
Info: PAIRLIST TRIGGER       0.3
Info: PAIRLISTS PER CYCLE    2
Info: PAIRLISTS ENABLED
Info: MARGIN                 8
Info: HYDROGEN GROUP CUTOFF  2.5
Info: PATCH DIMENSION        21.5
Info: ENERGY OUTPUT STEPS    100000
Info: ENERGY EVALUATION STEPS    100000
Info: OUTPUT ENERGY PRECISION 4
Info: CROSSTERM ENERGY INCLUDED IN DIHEDRAL
Info: TIMING OUTPUT STEPS    1000000
Info: PRESSURE OUTPUT STEPS  100000
Info: LANGEVIN DYNAMICS ACTIVE
Info: LANGEVIN TEMPERATURE   30
Info: LANGEVIN USING BBK INTEGRATOR
Info: LANGEVIN DAMPING COEFFICIENT IS 1 INVERSE PS
Info: LANGEVIN DYNAMICS APPLIED TO HYDROGENS
Info: LANGEVIN PISTON PRESSURE CONTROL ACTIVE
Info:        TARGET PRESSURE IS 1.01325 BAR
Info:     OSCILLATION PERIOD IS 50 FS
Info:             DECAY TIME IS 25 FS
Info:     PISTON TEMPERATURE IS 300 K
Info:       PRESSURE CONTROL IS GROUP-BASED
Info:    INITIAL STRAIN RATE IS 0 0 0
Info:       CELL FLUCTUATION IS ISOTROPIC
Info: PARTICLE MESH EWALD (PME) ACTIVE
Info: PME TOLERANCE               1e-06
Info: PME EWALD COEFFICIENT       0.348832
Info: PME INTERPOLATION ORDER     4
Info: PME GRID DIMENSIONS         36 36 36
Info: PME MAXIMUM GRID SPACING    1
Info: FULL ELECTROSTATIC EVALUATION FREQUENCY      2
Info: USING VERLET I (r-RESPA) MTS SCHEME.
Info: C1 SPLITTING OF LONG RANGE ELECTROSTATICS
Info: PLACING ATOMS IN PATCHES BY HYDROGEN GROUPS
Info: RIGID BONDS TO HYDROGEN : ALL
Info:         ERROR TOLERANCE : 1e-08
Info:          MAX ITERATIONS : 100
Info: RIGID WATER USING SETTLE ALGORITHM
Info: RANDOM NUMBER SEED     1743255491
Info: USE HYDROGEN BONDS?    NO
Info: Using AMBER format force field!
Info: AMBER PARM FILE        mobley_8789864.prmtop
Info: COORDINATE PDB         mobley_8789864.pdb
Info: Exclusions will be read from PARM file!
Info: SCNB (VDW SCALING)     2
Info: USING ARITHMETIC MEAN TO COMBINE L-J SIGMA PARAMETERS
Info: BINARY COORDINATES     mobley_8789864_min.coor
Info: SUMMARY OF PARAMETERS:
Info: 8 BONDS
Info: 10 ANGLES
Info:   10 HARMONIC
Info:   0 COSINE-BASED
Info: 10 DIHEDRAL
Info: 0 IMPROPER
Info: 0 CROSSTERM
Info: 0 VDW
Info: 36 VDW_PAIRS
Info: 0 NBTHOLE_PAIRS
Info: STRUCTURE SUMMARY:
Info: 2904 ATOMS
Info: 2903 BONDS
Info: 34 ANGLES
Info: 51 DIHEDRALS
Info: 0 IMPROPERS
Info: 0 CROSSTERMS
Info: 2967 EXCLUSIONS
Info: 2894 RIGID BONDS
Info: 5818 DEGREES OF FREEDOM
Info: 971 HYDROGEN GROUPS
Info: 4 ATOMS IN LARGEST HYDROGEN GROUP
Info: 971 MIGRATION GROUPS
Info: 4 ATOMS IN LARGEST MIGRATION GROUP
Info: TOTAL MASS = 17458.5 amu
Info: TOTAL CHARGE = 0.000500046 e
Info: MASS DENSITY = 0.669021 g/cm^3
Info: ATOM DENSITY = 0.0670146 atoms/A^3
Info: ADDED 0 IMPLICIT EXCLUSIONS
Info: NONBONDED TABLE R-SQUARED SPACING: 0.0625
Info: NONBONDED TABLE SIZE: 705 POINTS
Info: REMOVING COM VELOCITY 0.0921477 0.170932 0.0730726
TCL: Running for 100000 steps
ETITLE: TS BOND ANGLE DIHED IMPRP ELECT VDW BOUNDARY MISC KINETIC TOTAL TEMP POTENTIAL TOTAL3 TEMPAVG PRESSURE GPRESSURE VOLUME PRESSAVG GPRESSAVG
ENERGY: 0 0.2945 2.1525 14.6280 0.0000 -13487.2806 2380.3221 0.0000 0.0000 1740.6072 -9349.2762 301.1046 -11089.8834 -9348.9005 301.1046 472.5346 502.4206 43333.8409 472.5346 502.4206
ENERGY: 100000 0.5019 2.5161 14.5819 0.0000 -14084.8834 2503.2042 0.0000 0.0000 175.3172 -11388.7620 30.3278 -11564.0792 -11388.3271 30.9439 741.7589 822.4300 27984.3117 4.7640 4.7264
TCL: Running 100000 steps at 60 kelvin.
TCL: Setting parameter langevinTemp to 60
TCL: Running for 100000 steps
ETITLE: TS BOND ANGLE DIHED IMPRP ELECT VDW BOUNDARY MISC KINETIC TOTAL TEMP POTENTIAL TOTAL3 TEMPAVG PRESSURE GPRESSURE VOLUME PRESSAVG GPRESSAVG
ENERGY: 100000 0.5019 2.5161 14.5819 0.0000 -14084.8834 2503.2042 0.0000 0.0000 175.2274 -11388.8518 30.3123 -11564.0792 -11388.3368 30.3123 766.1206 822.3384 27984.3117 766.1206 822.3384
ENERGY: 200000 2.0336 5.4355 15.2681 0.0000 -13851.2067 2309.8270 0.0000 0.0000 348.7157 -11169.9266 60.3237 -11518.6424 -11169.6866 60.0858 -498.1429 -445.6108 27865.7596 2.7826 2.7446
TCL: Running 100000 steps at 90 kelvin.
TCL: Setting parameter langevinTemp to 90
TCL: Running for 100000 steps
ETITLE: TS BOND ANGLE DIHED IMPRP ELECT VDW BOUNDARY MISC KINETIC TOTAL TEMP POTENTIAL TOTAL3 TEMPAVG PRESSURE GPRESSURE VOLUME PRESSAVG GPRESSAVG
ENERGY: 200000 2.0336 5.4355 15.2681 0.0000 -13851.2067 2309.8270 0.0000 0.0000 348.5420 -11170.1003 60.2937 -11518.6424 -11169.3241 60.2937 -498.2107 -446.4505 27865.7596 -498.2107 -446.4505
ENERGY: 300000 1.2693 6.1405 14.9498 0.0000 -13691.7892 2274.6629 0.0000 0.0000 525.6014 -10869.1654 90.9229 -11394.7668 -10867.7049 90.1712 -352.2403 -302.6309 28065.5470 3.3532 3.3083
TCL: Running 100000 steps at 120 kelvin.
TCL: Setting parameter langevinTemp to 120
TCL: Running for 100000 steps
ETITLE: TS BOND ANGLE DIHED IMPRP ELECT VDW BOUNDARY MISC KINETIC TOTAL TEMP POTENTIAL TOTAL3 TEMPAVG PRESSURE GPRESSURE VOLUME PRESSAVG GPRESSAVG
ENERGY: 300000 1.2693 6.1405 14.9498 0.0000 -13691.7892 2274.6629 0.0000 0.0000 525.3553 -10869.4115 90.8803 -11394.7668 -10868.1048 90.8803 -359.4558 -302.7759 28065.5470 -359.4558 -302.7759
ENERGY: 400000 1.1112 7.2925 15.1013 0.0000 -13521.4933 2228.3526 0.0000 0.0000 706.5554 -10563.0803 122.2258 -11269.6356 -10561.0774 119.7125 -384.3384 -365.3040 28043.9123 4.9596 4.9768
TCL: Running 100000 steps at 150 kelvin.
TCL: Setting parameter langevinTemp to 150
TCL: Running for 100000 steps
ETITLE: TS BOND ANGLE DIHED IMPRP ELECT VDW BOUNDARY MISC KINETIC TOTAL TEMP POTENTIAL TOTAL3 TEMPAVG PRESSURE GPRESSURE VOLUME PRESSAVG GPRESSAVG
ENERGY: 400000 1.1112 7.2925 15.1013 0.0000 -13521.4933 2228.3526 0.0000 0.0000 706.2176 -10563.4181 122.1674 -11269.6356 -10561.9408 122.1674 -408.6923 -365.3858 28043.9123 -408.6923 -365.3858
ENERGY: 500000 0.8078 7.8864 15.0261 0.0000 -13378.6483 2229.1331 0.0000 0.0000 864.0484 -10261.7465 149.4702 -11125.7949 -10259.1938 150.1690 13.9121 72.7217 28471.3869 3.6028 3.6647
TCL: Running 100000 steps at 180 kelvin.
TCL: Setting parameter langevinTemp to 180
TCL: Running for 100000 steps
ETITLE: TS BOND ANGLE DIHED IMPRP ELECT VDW BOUNDARY MISC KINETIC TOTAL TEMP POTENTIAL TOTAL3 TEMPAVG PRESSURE GPRESSURE VOLUME PRESSAVG GPRESSAVG
ENERGY: 500000 0.8078 7.8864 15.0261 0.0000 -13378.6483 2229.1331 0.0000 0.0000 863.6123 -10262.1825 149.3948 -11125.7949 -10260.3977 149.3948 7.2263 72.4981 28471.3869 7.2263 72.4981
ENERGY: 600000 1.3632 7.6006 14.5397 0.0000 -12955.9580 2086.3759 0.0000 0.0000 1021.6882 -9824.3906 176.7401 -10846.0787 -9822.8239 179.9912 -155.6621 -106.9816 28513.7210 2.4272 2.4080
TCL: Running 100000 steps at 210 kelvin.
TCL: Setting parameter langevinTemp to 210
TCL: Running for 100000 steps
ETITLE: TS BOND ANGLE DIHED IMPRP ELECT VDW BOUNDARY MISC KINETIC TOTAL TEMP POTENTIAL TOTAL3 TEMPAVG PRESSURE GPRESSURE VOLUME PRESSAVG GPRESSAVG
ENERGY: 600000 1.3632 7.6006 14.5397 0.0000 -12955.9580 2086.3759 0.0000 0.0000 1021.1437 -9824.9350 176.6459 -10846.0787 -9822.7774 176.6459 -164.9777 -108.6343 28513.7210 -164.9777 -108.6343
ENERGY: 700000 4.4608 6.5029 14.8929 0.0000 -12397.6220 1934.2648 0.0000 0.0000 1202.5426 -9234.9580 208.0258 -10437.5006 -9233.2335 209.9174 485.9963 510.5826 28044.8859 2.8754 2.7048
TCL: Running 100000 steps at 240 kelvin.
TCL: Setting parameter langevinTemp to 240
TCL: Running for 100000 steps
ETITLE: TS BOND ANGLE DIHED IMPRP ELECT VDW BOUNDARY MISC KINETIC TOTAL TEMP POTENTIAL TOTAL3 TEMPAVG PRESSURE GPRESSURE VOLUME PRESSAVG GPRESSAVG
ENERGY: 700000 4.4608 6.5029 14.8929 0.0000 -12397.6220 1934.2648 0.0000 0.0000 1201.9339 -9235.5667 207.9205 -10437.5006 -9233.3773 207.9205 436.6387 509.4217 28044.8859 436.6387 509.4217
ENERGY: 800000 0.4064 7.4875 16.2806 0.0000 -11546.1613 1638.8648 0.0000 0.0000 1441.5593 -8441.5626 249.3729 -9883.1219 -8437.8626 239.5854 -330.1439 -247.1615 28951.0682 3.5374 3.3172
TCL: Running 100000 steps at 270 kelvin.
TCL: Setting parameter langevinTemp to 270
TCL: Running for 100000 steps
ETITLE: TS BOND ANGLE DIHED IMPRP ELECT VDW BOUNDARY MISC KINETIC TOTAL TEMP POTENTIAL TOTAL3 TEMPAVG PRESSURE GPRESSURE VOLUME PRESSAVG GPRESSAVG
ENERGY: 800000 0.4064 7.4875 16.2806 0.0000 -11546.1613 1638.8648 0.0000 0.0000 1440.8766 -8442.2453 249.2548 -9883.1219 -8440.2618 249.2548 -316.8973 -244.1345 28951.0682 -316.8973 -244.1345
ENERGY: 900000 5.3672 8.0143 15.5599 0.0000 -10975.2208 1446.8318 0.0000 0.0000 1573.9201 -7925.5275 272.2697 -9499.4476 -7922.1074 270.0588 -653.3394 -598.4262 29194.2362 1.7249 1.6064
TCL: Running 1000000 steps at 300 kelvin.
TCL: Setting parameter langevinTemp to 300
TCL: Running for 1000000 steps
ETITLE: TS BOND ANGLE DIHED IMPRP ELECT VDW BOUNDARY MISC KINETIC TOTAL TEMP POTENTIAL TOTAL3 TEMPAVG PRESSURE GPRESSURE VOLUME PRESSAVG GPRESSAVG
ENERGY: 900000 5.3672 8.0143 15.5599 0.0000 -10975.2208 1446.8318 0.0000 0.0000 1573.1350 -7926.3126 272.1339 -9499.4476 -7924.0449 272.1339 -683.4230 -598.4453 29194.2362 -683.4230 -598.4453
ENERGY: 1100000 2.6839 9.5765 15.0370 0.0000 -10555.4941 1417.0358 0.0000 0.0000 1736.7076 -7374.4534 300.4301 -9111.1610 -7371.4850 300.0065 139.2618 221.9871 29828.6532 3.8068 3.8332
ENERGY: 1300000 2.3022 8.7811 16.6032 0.0000 -10567.2488 1417.2464 0.0000 0.0000 1769.0365 -7353.2796 306.0226 -9122.3161 -7350.4936 299.9938 30.9489 112.9517 29888.0998 3.8750 3.9730
ENERGY: 1500000 2.0742 9.5068 15.4748 0.0000 -10526.6738 1364.2882 0.0000 0.0000 1726.5082 -7408.8217 298.6657 -9135.3298 -7405.3713 300.1707 -268.5098 -159.2422 29719.5432 3.2604 3.2427
ENERGY: 1700000 3.3703 11.6747 15.0036 0.0000 -10595.0242 1411.3550 0.0000 0.0000 1717.8536 -7435.7670 297.1685 -9153.6206 -7429.1374 300.4675 -60.0379 10.6510 29680.1793 2.4242 2.2824
ENERGY: 1900000 3.1611 10.8465 14.5797 0.0000 -10523.4846 1366.7775 0.0000 0.0000 1686.6869 -7441.4330 291.7771 -9128.1198 -7439.7714 299.4394 -536.6583 -415.2157 29840.1697 3.2030 3.1683
TCL: Exiting due to exit command.
