Info: SIMULATION PARAMETERS:
Info: TIMESTEP               2
Info: NUMBER OF STEPS        0
Info: STEPS PER CYCLE        10
Info: PERIODIC CELL BASIS 1  36.592 0 0
Info: PERIODIC CELL BASIS 2  0 37.796 0
Info: PERIODIC CELL BASIS 3  0 0 33.088
Info: PERIODIC CELL CENTER   0 0 0
Info: WRAPPING WATERS AROUND PERIODIC BOUNDARIES ON OUTPUT.
Info: WRAPPING ALL CLUSTERS AROUND PERIODIC BOUNDARIES ON OUTPUT.
Info: FIRST LDB TIMESTEP     50
Info: LAST LDB TIMESTEP     -1
Info: HOM BACKGROUND SCALING 1
Info: PME BACKGROUND SCALING 1
Info: MIN ATOMS PER PATCH    40
Info: EMPTY PATCH LOAD       40 ATOMS
Info: INITIAL TEMPERATURE    300
Info: CENTER OF MASS MOVING INITIALLY? NO
Info: DIELECTRIC             1
Info: EXCLUDE                SCALED ONE-FOUR
Info: 1-4 ELECTROSTATICS SCALED BY 0.833333
Info: MODIFIED 1-4 VDW PARAMETERS WILL BE USED
Info: DCD FILENAME           mobley_5890803_equil.dcd
Info: DCD FREQUENCY          100000
Info: DCD FIRST STEP         100000
Info: DCD FILE WILL CONTAIN UNIT CELL DATA
Info: XST FILENAME           mobley_5890803_equil.xst
Info: XST FREQUENCY          100000
Info: NO VELOCITY DCD OUTPUT
Info: NO FORCE DCD OUTPUT
Info: OUTPUT FILENAME        mobley_5890803_equil
Info: BINARY OUTPUT FILES WILL BE USED
Info: RESTART FILENAME       mobley_5890803_equil.restart
Info: RESTART FREQUENCY      100000
Info: BINARY RESTART FILES WILL BE USED
Info: CUTOFF                 9
Info: PAIRLIST DISTANCE      11
Info: PAIRLIST SHRINK RATE   0.01
Info: PAIRLIST GROW RATE     0.01
Info: PAIRLIST TRIGGER       0.3
Info: PAIRLISTS PER CYCLE    2
Info: PAIRLISTS ENABLED
Info: MARGIN                 8
Info: HYDROGEN GROUP CUTOFF  2.5
Info: PATCH DIMENSION        21.5
Info: ENERGY OUTPUT STEPS    100000
Info: ENERGY EVALUATION STEPS    100000
Info: OUTPUT ENERGY PRECISION 4
Info: CROSSTERM ENERGY INCLUDED IN DIHEDRAL
Info: TIMING OUTPUT STEPS    1000000
Info: PRESSURE OUTPUT STEPS  100000
Info: LANGEVIN DYNAMICS ACTIVE
Info: LANGEVIN TEMPERATURE   30
Info: LANGEVIN USING BBK INTEGRATOR
Info: LANGEVIN DAMPING COEFFICIENT IS 1 INVERSE PS
Info: LANGEVIN DYNAMICS APPLIED TO HYDROGENS
Info: LANGEVIN PISTON PRESSURE CONTROL ACTIVE
Info:        TARGET PRESSURE IS 1.01325 BAR
Info:     OSCILLATION PERIOD IS 50 FS
Info:             DECAY TIME IS 25 FS
Info:     PISTON TEMPERATURE IS 300 K
Info:       PRESSURE CONTROL IS GROUP-BASED
Info:    INITIAL STRAIN RATE IS 0 0 0
Info:       CELL FLUCTUATION IS ISOTROPIC
Info: PARTICLE MESH EWALD (PME) ACTIVE
Info: PME TOLERANCE               1e-06
Info: PME EWALD COEFFICIENT       0.348832
Info: PME INTERPOLATION ORDER     4
Info: PME GRID DIMENSIONS         40 40 36
Info: PME MAXIMUM GRID SPACING    1
Info: FULL ELECTROSTATIC EVALUATION FREQUENCY      2
Info: USING VERLET I (r-RESPA) MTS SCHEME.
Info: C1 SPLITTING OF LONG RANGE ELECTROSTATICS
Info: PLACING ATOMS IN PATCHES BY HYDROGEN GROUPS
Info: RIGID BONDS TO HYDROGEN : ALL
Info:         ERROR TOLERANCE : 1e-08
Info:          MAX ITERATIONS : 100
Info: RIGID WATER USING SETTLE ALGORITHM
Info: RANDOM NUMBER SEED     1743250899
Info: USE HYDROGEN BONDS?    NO
Info: Using AMBER format force field!
Info: AMBER PARM FILE        mobley_5890803.prmtop
Info: COORDINATE PDB         mobley_5890803.pdb
Info: Exclusions will be read from PARM file!
Info: SCNB (VDW SCALING)     2
Info: USING ARITHMETIC MEAN TO COMBINE L-J SIGMA PARAMETERS
Info: BINARY COORDINATES     mobley_5890803_min.coor
Info: SUMMARY OF PARAMETERS:
Info: 9 BONDS
Info: 13 ANGLES
Info:   13 HARMONIC
Info:   0 COSINE-BASED
Info: 17 DIHEDRAL
Info: 0 IMPROPER
Info: 0 CROSSTERM
Info: 0 VDW
Info: 36 VDW_PAIRS
Info: 0 NBTHOLE_PAIRS
Info: STRUCTURE SUMMARY:
Info: 2945 ATOMS
Info: 2944 BONDS
Info: 34 ANGLES
Info: 49 DIHEDRALS
Info: 0 IMPROPERS
Info: 0 CROSSTERMS
Info: 3016 EXCLUSIONS
Info: 2937 RIGID BONDS
Info: 5898 DEGREES OF FREEDOM
Info: 983 HYDROGEN GROUPS
Info: 4 ATOMS IN LARGEST HYDROGEN GROUP
Info: 983 MIGRATION GROUPS
Info: 4 ATOMS IN LARGEST MIGRATION GROUP
Info: TOTAL MASS = 17681.8 amu
Info: TOTAL CHARGE = 0.000100039 e
Info: MASS DENSITY = 0.641626 g/cm^3
Info: ATOM DENSITY = 0.0643551 atoms/A^3
Info: ADDED 0 IMPLICIT EXCLUSIONS
Info: NONBONDED TABLE R-SQUARED SPACING: 0.0625
Info: NONBONDED TABLE SIZE: 705 POINTS
Info: REMOVING COM VELOCITY -0.0454687 0.208504 0.180527
TCL: Running for 100000 steps
ETITLE: TS BOND ANGLE DIHED IMPRP ELECT VDW BOUNDARY MISC KINETIC TOTAL TEMP POTENTIAL TOTAL3 TEMPAVG PRESSURE GPRESSURE VOLUME PRESSAVG GPRESSAVG
ENERGY: 0 0.0764 0.6249 3.7911 0.0000 -13631.2068 2419.0610 0.0000 0.0000 1770.3250 -9437.3283 302.0916 -11207.6533 -9436.9845 302.0916 503.1153 536.3663 45761.7374 503.1153 536.3663
ENERGY: 100000 0.2944 1.0029 3.6796 0.0000 -14229.3493 2489.6892 0.0000 0.0000 176.9910 -11557.6924 30.2021 -11734.6834 -11557.0937 30.9096 80.4014 130.1185 28865.2556 3.6261 3.5721
TCL: Running 100000 steps at 60 kelvin.
TCL: Setting parameter langevinTemp to 60
TCL: Running for 100000 steps
ETITLE: TS BOND ANGLE DIHED IMPRP ELECT VDW BOUNDARY MISC KINETIC TOTAL TEMP POTENTIAL TOTAL3 TEMPAVG PRESSURE GPRESSURE VOLUME PRESSAVG GPRESSAVG
ENERGY: 100000 0.2944 1.0029 3.6796 0.0000 -14229.3493 2489.6892 0.0000 0.0000 176.9023 -11557.7811 30.1869 -11734.6834 -11557.3909 30.1869 87.4483 130.4086 28865.2556 87.4483 130.4086
ENERGY: 200000 0.4131 2.0096 3.5621 0.0000 -14027.7831 2366.6779 0.0000 0.0000 355.1189 -11300.0014 60.5982 -11655.1203 -11298.6433 59.9545 -510.7535 -450.2421 28891.7105 4.5718 4.5589
TCL: Running 100000 steps at 90 kelvin.
TCL: Setting parameter langevinTemp to 90
TCL: Running for 100000 steps
ETITLE: TS BOND ANGLE DIHED IMPRP ELECT VDW BOUNDARY MISC KINETIC TOTAL TEMP POTENTIAL TOTAL3 TEMPAVG PRESSURE GPRESSURE VOLUME PRESSAVG GPRESSAVG
ENERGY: 200000 0.4131 2.0096 3.5621 0.0000 -14027.7831 2366.6779 0.0000 0.0000 354.9511 -11300.1692 60.5695 -11655.1203 -11299.4323 60.5695 -509.4590 -449.8993 28891.7105 -509.4590 -449.8993
ENERGY: 300000 0.6060 3.7863 3.4035 0.0000 -13819.2337 2233.4735 0.0000 0.0000 529.6289 -11048.3355 90.3769 -11577.9644 -11046.8684 90.0016 -1249.5621 -1149.3921 28600.3560 3.4466 3.4935
TCL: Running 100000 steps at 120 kelvin.
TCL: Setting parameter langevinTemp to 120
TCL: Running for 100000 steps
ETITLE: TS BOND ANGLE DIHED IMPRP ELECT VDW BOUNDARY MISC KINETIC TOTAL TEMP POTENTIAL TOTAL3 TEMPAVG PRESSURE GPRESSURE VOLUME PRESSAVG GPRESSAVG
ENERGY: 300000 0.6060 3.7863 3.4035 0.0000 -13819.2337 2233.4735 0.0000 0.0000 529.3811 -11048.5834 90.3346 -11577.9644 -11047.0942 90.3346 -1213.7761 -1150.0849 28600.3560 -1213.7761 -1150.0849
ENERGY: 400000 1.3736 3.5569 4.4159 0.0000 -13862.0798 2430.1495 0.0000 0.0000 720.6362 -10701.9477 122.9707 -11422.5839 -10699.5373 120.0808 850.4964 878.1249 28766.2744 3.2963 3.3211
TCL: Running 100000 steps at 150 kelvin.
TCL: Setting parameter langevinTemp to 150
TCL: Running for 100000 steps
ETITLE: TS BOND ANGLE DIHED IMPRP ELECT VDW BOUNDARY MISC KINETIC TOTAL TEMP POTENTIAL TOTAL3 TEMPAVG PRESSURE GPRESSURE VOLUME PRESSAVG GPRESSAVG
ENERGY: 400000 1.3736 3.5569 4.4159 0.0000 -13862.0798 2430.1495 0.0000 0.0000 720.2792 -10702.3047 122.9098 -11422.5839 -10700.9016 122.9098 832.8766 878.6531 28766.2744 832.8766 878.6531
ENERGY: 500000 2.0270 5.5583 5.2284 0.0000 -13362.5054 2108.5124 0.0000 0.0000 872.5030 -10368.6765 148.8855 -11241.1794 -10366.9064 149.6611 -1241.1047 -1140.4915 28994.7969 3.7020 3.7887
TCL: Running 100000 steps at 180 kelvin.
TCL: Setting parameter langevinTemp to 180
TCL: Running for 100000 steps
ETITLE: TS BOND ANGLE DIHED IMPRP ELECT VDW BOUNDARY MISC KINETIC TOTAL TEMP POTENTIAL TOTAL3 TEMPAVG PRESSURE GPRESSURE VOLUME PRESSAVG GPRESSAVG
ENERGY: 500000 2.0270 5.5583 5.2284 0.0000 -13362.5054 2108.5124 0.0000 0.0000 872.0787 -10369.1007 148.8131 -11241.1794 -10367.5968 148.8131 -1204.9807 -1139.6999 28994.7969 -1204.9807 -1139.6999
ENERGY: 600000 0.9821 5.6851 3.3197 0.0000 -12999.7290 2054.0499 0.0000 0.0000 1039.3584 -9896.3339 177.3581 -10935.6922 -9893.4471 180.0654 -550.7477 -466.3579 29021.1169 3.4750 3.6078
TCL: Running 100000 steps at 210 kelvin.
TCL: Setting parameter langevinTemp to 210
TCL: Running for 100000 steps
ETITLE: TS BOND ANGLE DIHED IMPRP ELECT VDW BOUNDARY MISC KINETIC TOTAL TEMP POTENTIAL TOTAL3 TEMPAVG PRESSURE GPRESSURE VOLUME PRESSAVG GPRESSAVG
ENERGY: 600000 0.9821 5.6851 3.3197 0.0000 -12999.7290 2054.0499 0.0000 0.0000 1038.8296 -9896.8626 177.2678 -10935.6922 -9894.8213 177.2678 -529.9619 -466.7798 29021.1169 -529.9619 -466.7798
ENERGY: 700000 0.4894 4.6207 3.4849 0.0000 -12585.7592 2005.6649 0.0000 0.0000 1223.4414 -9348.0580 208.7703 -10571.4993 -9345.6013 209.3403 756.9575 859.2320 28404.0021 3.1189 2.9728
TCL: Running 100000 steps at 240 kelvin.
TCL: Setting parameter langevinTemp to 240
TCL: Running for 100000 steps
ETITLE: TS BOND ANGLE DIHED IMPRP ELECT VDW BOUNDARY MISC KINETIC TOTAL TEMP POTENTIAL TOTAL3 TEMPAVG PRESSURE GPRESSURE VOLUME PRESSAVG GPRESSAVG
ENERGY: 700000 0.4894 4.6207 3.4849 0.0000 -12585.7592 2005.6649 0.0000 0.0000 1222.8405 -9348.6589 208.6678 -10571.4993 -9346.2390 208.6678 792.6743 858.3506 28404.0021 792.6743 858.3506
ENERGY: 800000 3.7218 7.1377 3.6697 0.0000 -11746.7810 1696.5131 0.0000 0.0000 1409.3179 -8626.4209 240.4886 -10035.7387 -8622.3306 240.0462 54.5769 246.4142 28670.6498 3.8683 3.9267
TCL: Running 100000 steps at 270 kelvin.
TCL: Setting parameter langevinTemp to 270
TCL: Running for 100000 steps
ETITLE: TS BOND ANGLE DIHED IMPRP ELECT VDW BOUNDARY MISC KINETIC TOTAL TEMP POTENTIAL TOTAL3 TEMPAVG PRESSURE GPRESSURE VOLUME PRESSAVG GPRESSAVG
ENERGY: 800000 3.7218 7.1377 3.6697 0.0000 -11746.7810 1696.5131 0.0000 0.0000 1408.6142 -8627.1246 240.3686 -10035.7387 -8624.5861 240.3686 161.8763 247.8648 28670.6498 161.8763 247.8648
ENERGY: 900000 2.0963 6.3449 4.3089 0.0000 -11256.6267 1655.6073 0.0000 0.0000 1580.7632 -8007.5060 269.7444 -9588.2692 -8003.8059 270.5978 1055.8116 1081.6220 29319.2986 3.3677 3.6302
TCL: Running 1000000 steps at 300 kelvin.
TCL: Setting parameter langevinTemp to 300
TCL: Running for 1000000 steps
ETITLE: TS BOND ANGLE DIHED IMPRP ELECT VDW BOUNDARY MISC KINETIC TOTAL TEMP POTENTIAL TOTAL3 TEMPAVG PRESSURE GPRESSURE VOLUME PRESSAVG GPRESSAVG
ENERGY: 900000 2.0963 6.3449 4.3089 0.0000 -11256.6267 1655.6073 0.0000 0.0000 1579.9259 -8008.3432 269.6015 -9588.2692 -8006.6486 269.6015 991.9071 1084.4210 29319.2986 991.9071 1084.4210
ENERGY: 1100000 1.3065 5.7932 2.7819 0.0000 -10822.7648 1532.1480 0.0000 0.0000 1675.5135 -7605.2217 285.9128 -9280.7352 -7601.3790 299.7542 559.1790 602.1156 30418.3602 2.4007 2.2126
ENERGY: 1300000 2.6570 8.0222 4.6954 0.0000 -10721.3099 1412.3125 0.0000 0.0000 1718.5135 -7575.1093 293.2504 -9293.6228 -7571.8600 300.1471 -304.4227 -199.7154 30064.3218 2.3580 2.3433
ENERGY: 1500000 6.1911 9.8976 4.7561 0.0000 -10683.2324 1512.4708 0.0000 0.0000 1696.6936 -7453.2232 289.5270 -9149.9168 -7448.9499 300.0658 691.1398 770.0355 30404.6840 2.4739 2.6998
ENERGY: 1700000 3.4049 10.8026 3.1399 0.0000 -10587.5999 1364.0025 0.0000 0.0000 1752.3632 -7453.8868 299.0265 -9206.2500 -7451.9681 300.1899 -576.9431 -494.1710 30443.6950 3.1221 3.1858
ENERGY: 1900000 3.2352 8.1465 5.0837 0.0000 -10779.1818 1486.3544 0.0000 0.0000 1788.0485 -7488.3135 305.1160 -9276.3620 -7485.9818 300.1639 319.6857 363.7242 30273.9008 3.3920 3.4089
TCL: Exiting due to exit command.
