Info: SIMULATION PARAMETERS:
Info: TIMESTEP               2
Info: NUMBER OF STEPS        0
Info: STEPS PER CYCLE        10
Info: PERIODIC CELL BASIS 1  35.89 0 0
Info: PERIODIC CELL BASIS 2  0 34.26 0
Info: PERIODIC CELL BASIS 3  0 0 36.199
Info: PERIODIC CELL CENTER   0 0 0
Info: WRAPPING WATERS AROUND PERIODIC BOUNDARIES ON OUTPUT.
Info: WRAPPING ALL CLUSTERS AROUND PERIODIC BOUNDARIES ON OUTPUT.
Info: FIRST LDB TIMESTEP     50
Info: LAST LDB TIMESTEP     -1
Info: HOM BACKGROUND SCALING 1
Info: PME BACKGROUND SCALING 1
Info: MIN ATOMS PER PATCH    40
Info: EMPTY PATCH LOAD       40 ATOMS
Info: INITIAL TEMPERATURE    300
Info: CENTER OF MASS MOVING INITIALLY? NO
Info: DIELECTRIC             1
Info: EXCLUDE                SCALED ONE-FOUR
Info: 1-4 ELECTROSTATICS SCALED BY 0.833333
Info: MODIFIED 1-4 VDW PARAMETERS WILL BE USED
Info: DCD FILENAME           mobley_8705848_equil.dcd
Info: DCD FREQUENCY          100000
Info: DCD FIRST STEP         100000
Info: DCD FILE WILL CONTAIN UNIT CELL DATA
Info: XST FILENAME           mobley_8705848_equil.xst
Info: XST FREQUENCY          100000
Info: NO VELOCITY DCD OUTPUT
Info: NO FORCE DCD OUTPUT
Info: OUTPUT FILENAME        mobley_8705848_equil
Info: BINARY OUTPUT FILES WILL BE USED
Info: RESTART FILENAME       mobley_8705848_equil.restart
Info: RESTART FREQUENCY      100000
Info: BINARY RESTART FILES WILL BE USED
Info: CUTOFF                 9
Info: PAIRLIST DISTANCE      11
Info: PAIRLIST SHRINK RATE   0.01
Info: PAIRLIST GROW RATE     0.01
Info: PAIRLIST TRIGGER       0.3
Info: PAIRLISTS PER CYCLE    2
Info: PAIRLISTS ENABLED
Info: MARGIN                 8
Info: HYDROGEN GROUP CUTOFF  2.5
Info: PATCH DIMENSION        21.5
Info: ENERGY OUTPUT STEPS    100000
Info: ENERGY EVALUATION STEPS    100000
Info: OUTPUT ENERGY PRECISION 4
Info: CROSSTERM ENERGY INCLUDED IN DIHEDRAL
Info: TIMING OUTPUT STEPS    1000000
Info: PRESSURE OUTPUT STEPS  100000
Info: LANGEVIN DYNAMICS ACTIVE
Info: LANGEVIN TEMPERATURE   30
Info: LANGEVIN USING BBK INTEGRATOR
Info: LANGEVIN DAMPING COEFFICIENT IS 1 INVERSE PS
Info: LANGEVIN DYNAMICS APPLIED TO HYDROGENS
Info: LANGEVIN PISTON PRESSURE CONTROL ACTIVE
Info:        TARGET PRESSURE IS 1.01325 BAR
Info:     OSCILLATION PERIOD IS 50 FS
Info:             DECAY TIME IS 25 FS
Info:     PISTON TEMPERATURE IS 300 K
Info:       PRESSURE CONTROL IS GROUP-BASED
Info:    INITIAL STRAIN RATE IS 0 0 0
Info:       CELL FLUCTUATION IS ISOTROPIC
Info: PARTICLE MESH EWALD (PME) ACTIVE
Info: PME TOLERANCE               1e-06
Info: PME EWALD COEFFICIENT       0.348832
Info: PME INTERPOLATION ORDER     4
Info: PME GRID DIMENSIONS         36 36 40
Info: PME MAXIMUM GRID SPACING    1
Info: FULL ELECTROSTATIC EVALUATION FREQUENCY      2
Info: USING VERLET I (r-RESPA) MTS SCHEME.
Info: C1 SPLITTING OF LONG RANGE ELECTROSTATICS
Info: PLACING ATOMS IN PATCHES BY HYDROGEN GROUPS
Info: RIGID BONDS TO HYDROGEN : ALL
Info:         ERROR TOLERANCE : 1e-08
Info:          MAX ITERATIONS : 100
Info: RIGID WATER USING SETTLE ALGORITHM
Info: RANDOM NUMBER SEED     1743245343
Info: USE HYDROGEN BONDS?    NO
Info: Using AMBER format force field!
Info: AMBER PARM FILE        mobley_8705848.prmtop
Info: COORDINATE PDB         mobley_8705848.pdb
Info: Exclusions will be read from PARM file!
Info: SCNB (VDW SCALING)     2
Info: USING ARITHMETIC MEAN TO COMBINE L-J SIGMA PARAMETERS
Info: BINARY COORDINATES     mobley_8705848_min.coor
Info: SUMMARY OF PARAMETERS:
Info: 7 BONDS
Info: 8 ANGLES
Info:   8 HARMONIC
Info:   0 COSINE-BASED
Info: 4 DIHEDRAL
Info: 0 IMPROPER
Info: 0 CROSSTERM
Info: 0 VDW
Info: 28 VDW_PAIRS
Info: 0 NBTHOLE_PAIRS
Info: STRUCTURE SUMMARY:
Info: 2917 ATOMS
Info: 2916 BONDS
Info: 39 ANGLES
Info: 52 DIHEDRALS
Info: 0 IMPROPERS
Info: 0 CROSSTERMS
Info: 3003 EXCLUSIONS
Info: 2910 RIGID BONDS
Info: 5841 DEGREES OF FREEDOM
Info: 972 HYDROGEN GROUPS
Info: 4 ATOMS IN LARGEST HYDROGEN GROUP
Info: 972 MIGRATION GROUPS
Info: 4 ATOMS IN LARGEST MIGRATION GROUP
Info: TOTAL MASS = 17486.6 amu
Info: TOTAL CHARGE = -0.000199944 e
Info: MASS DENSITY = 0.652391 g/cm^3
Info: ATOM DENSITY = 0.0655359 atoms/A^3
Info: ADDED 0 IMPLICIT EXCLUSIONS
Info: NONBONDED TABLE R-SQUARED SPACING: 0.0625
Info: NONBONDED TABLE SIZE: 705 POINTS
Info: REMOVING COM VELOCITY 0.0355494 -0.0206952 0.0365092
TCL: Running for 100000 steps
ETITLE: TS BOND ANGLE DIHED IMPRP ELECT VDW BOUNDARY MISC KINETIC TOTAL TEMP POTENTIAL TOTAL3 TEMPAVG PRESSURE GPRESSURE VOLUME PRESSAVG GPRESSAVG
ENERGY: 0 0.1152 1.3220 1.7297 0.0000 -13464.0007 2381.3101 0.0000 0.0000 1685.1297 -9394.3939 290.3598 -11079.5236 -9394.0404 290.3598 489.8023 531.4268 44509.9791 489.8023 531.4268
ENERGY: 100000 0.1602 2.3588 1.6285 0.0000 -14094.2770 2482.0691 0.0000 0.0000 179.9971 -11428.0634 31.0148 -11608.0605 -11427.2978 30.9136 426.8326 500.3919 28317.2021 5.2271 5.2229
TCL: Running 100000 steps at 60 kelvin.
TCL: Setting parameter langevinTemp to 60
TCL: Running for 100000 steps
ETITLE: TS BOND ANGLE DIHED IMPRP ELECT VDW BOUNDARY MISC KINETIC TOTAL TEMP POTENTIAL TOTAL3 TEMPAVG PRESSURE GPRESSURE VOLUME PRESSAVG GPRESSAVG
ENERGY: 100000 0.1602 2.3588 1.6285 0.0000 -14094.2770 2482.0691 0.0000 0.0000 179.9102 -11428.1503 30.9998 -11608.0605 -11427.7980 30.9998 429.1051 500.6881 28317.2021 429.1051 500.6881
ENERGY: 200000 0.4765 3.3846 1.8483 0.0000 -13904.4586 2355.6849 0.0000 0.0000 361.2979 -11181.7664 62.2542 -11543.0643 -11180.7312 59.7757 -336.7387 -254.0598 28377.0116 2.9536 2.9422
TCL: Running 100000 steps at 90 kelvin.
TCL: Setting parameter langevinTemp to 90
TCL: Running for 100000 steps
ETITLE: TS BOND ANGLE DIHED IMPRP ELECT VDW BOUNDARY MISC KINETIC TOTAL TEMP POTENTIAL TOTAL3 TEMPAVG PRESSURE GPRESSURE VOLUME PRESSAVG GPRESSAVG
ENERGY: 200000 0.4765 3.3846 1.8483 0.0000 -13904.4586 2355.6849 0.0000 0.0000 361.1303 -11181.9340 62.2253 -11543.0643 -11181.1362 62.2253 -318.6643 -254.2543 28377.0116 -318.6643 -254.2543
ENERGY: 300000 0.7117 3.1108 2.5322 0.0000 -13799.3551 2355.6357 0.0000 0.0000 519.7385 -10917.6262 89.5546 -11437.3647 -10916.7082 89.7464 110.9187 160.2382 28309.9163 2.9116 2.9134
TCL: Running 100000 steps at 120 kelvin.
TCL: Setting parameter langevinTemp to 120
TCL: Running for 100000 steps
ETITLE: TS BOND ANGLE DIHED IMPRP ELECT VDW BOUNDARY MISC KINETIC TOTAL TEMP POTENTIAL TOTAL3 TEMPAVG PRESSURE GPRESSURE VOLUME PRESSAVG GPRESSAVG
ENERGY: 300000 0.7117 3.1108 2.5322 0.0000 -13799.3550 2355.6357 0.0000 0.0000 519.4828 -10917.8819 89.5106 -11437.3647 -10916.7529 89.5106 114.8448 160.2543 28309.9163 114.8448 160.2543
ENERGY: 400000 0.4903 5.2269 2.8003 0.0000 -13624.0396 2316.7509 0.0000 0.0000 695.2592 -10603.5119 119.7981 -11298.7711 -10601.5690 119.8489 266.8317 337.4494 28491.1505 3.7253 3.8069
TCL: Running 100000 steps at 150 kelvin.
TCL: Setting parameter langevinTemp to 150
TCL: Running for 100000 steps
ETITLE: TS BOND ANGLE DIHED IMPRP ELECT VDW BOUNDARY MISC KINETIC TOTAL TEMP POTENTIAL TOTAL3 TEMPAVG PRESSURE GPRESSURE VOLUME PRESSAVG GPRESSAVG
ENERGY: 400000 0.4903 5.2269 2.8003 0.0000 -13624.0396 2316.7509 0.0000 0.0000 694.9321 -10603.8390 119.7417 -11298.7711 -10602.5219 119.7417 288.2697 337.7611 28491.1505 288.2697 337.7611
ENERGY: 500000 0.6265 4.1055 2.9436 0.0000 -13260.4784 2129.9896 0.0000 0.0000 865.9694 -10256.8437 149.2127 -11122.8131 -10253.6360 149.9104 -522.1414 -518.7256 28387.7569 4.5644 4.4048
TCL: Running 100000 steps at 180 kelvin.
TCL: Setting parameter langevinTemp to 180
TCL: Running for 100000 steps
ETITLE: TS BOND ANGLE DIHED IMPRP ELECT VDW BOUNDARY MISC KINETIC TOTAL TEMP POTENTIAL TOTAL3 TEMPAVG PRESSURE GPRESSURE VOLUME PRESSAVG GPRESSAVG
ENERGY: 500000 0.6265 4.1055 2.9436 0.0000 -13260.4784 2129.9896 0.0000 0.0000 865.5418 -10257.2713 149.1390 -11122.8131 -10255.7545 149.1390 -572.6685 -518.7527 28387.7569 -572.6685 -518.7527
ENERGY: 600000 0.3320 5.2373 2.5291 0.0000 -13025.5445 2138.6972 0.0000 0.0000 1039.6904 -9839.0586 179.1460 -10878.7489 -9837.0633 179.9815 170.8631 188.8175 28630.3699 4.4954 4.5722
TCL: Running 100000 steps at 210 kelvin.
TCL: Setting parameter langevinTemp to 210
TCL: Running for 100000 steps
ETITLE: TS BOND ANGLE DIHED IMPRP ELECT VDW BOUNDARY MISC KINETIC TOTAL TEMP POTENTIAL TOTAL3 TEMPAVG PRESSURE GPRESSURE VOLUME PRESSAVG GPRESSAVG
ENERGY: 600000 0.3320 5.2373 2.5291 0.0000 -13025.5445 2138.6972 0.0000 0.0000 1039.1339 -9839.6150 179.0502 -10878.7489 -9837.2749 179.0502 137.9094 187.5286 28630.3699 137.9094 187.5286
ENERGY: 700000 2.3247 6.0837 2.6368 0.0000 -12219.7194 1836.9458 0.0000 0.0000 1192.3624 -9179.3660 205.4525 -10371.7284 -9177.3274 209.6502 -255.0236 -147.8611 28390.8419 4.9898 4.9265
TCL: Running 100000 steps at 240 kelvin.
TCL: Setting parameter langevinTemp to 240
TCL: Running for 100000 steps
ETITLE: TS BOND ANGLE DIHED IMPRP ELECT VDW BOUNDARY MISC KINETIC TOTAL TEMP POTENTIAL TOTAL3 TEMPAVG PRESSURE GPRESSURE VOLUME PRESSAVG GPRESSAVG
ENERGY: 700000 2.3247 6.0837 2.6368 0.0000 -12219.7194 1836.9458 0.0000 0.0000 1191.7374 -9179.9910 205.3448 -10371.7284 -9177.7244 205.3448 -205.9696 -147.8340 28390.8419 -205.9696 -147.8340
ENERGY: 800000 2.6438 6.6549 3.0183 0.0000 -11623.1360 1666.0902 0.0000 0.0000 1464.0367 -8480.6921 252.2639 -9944.7288 -8477.8755 239.5623 -94.7600 -40.3284 28650.8696 3.5479 3.6140
TCL: Running 100000 steps at 270 kelvin.
TCL: Setting parameter langevinTemp to 270
TCL: Running for 100000 steps
ETITLE: TS BOND ANGLE DIHED IMPRP ELECT VDW BOUNDARY MISC KINETIC TOTAL TEMP POTENTIAL TOTAL3 TEMPAVG PRESSURE GPRESSURE VOLUME PRESSAVG GPRESSAVG
ENERGY: 800000 2.6438 6.6549 3.0183 0.0000 -11623.1360 1666.0902 0.0000 0.0000 1463.3552 -8481.3736 252.1465 -9944.7288 -8478.9734 252.1465 -120.0586 -40.9545 28650.8696 -120.0586 -40.9545
ENERGY: 900000 2.2770 9.3548 2.5887 0.0000 -11112.4227 1528.4828 0.0000 0.0000 1523.9814 -8045.7380 262.5928 -9569.7194 -8042.3797 269.8349 -335.5568 -248.6564 29391.1466 3.4851 3.2602
TCL: Running 1000000 steps at 300 kelvin.
TCL: Setting parameter langevinTemp to 300
TCL: Running for 1000000 steps
ETITLE: TS BOND ANGLE DIHED IMPRP ELECT VDW BOUNDARY MISC KINETIC TOTAL TEMP POTENTIAL TOTAL3 TEMPAVG PRESSURE GPRESSURE VOLUME PRESSAVG GPRESSAVG
ENERGY: 900000 2.2770 9.3548 2.5887 0.0000 -11112.4227 1528.4828 0.0000 0.0000 1523.2114 -8046.5080 262.4601 -9569.7194 -8043.8730 262.4601 -338.4874 -248.6398 29391.1466 -338.4874 -248.6398
ENERGY: 1100000 1.0487 14.4074 2.3775 0.0000 -10585.9168 1408.3852 0.0000 0.0000 1690.0293 -7469.6686 291.2041 -9159.6979 -7466.5638 299.3364 -173.8562 -84.2620 30213.8658 2.6854 2.7076
ENERGY: 1300000 1.7682 10.6795 2.1024 0.0000 -10602.4688 1392.3212 0.0000 0.0000 1738.9887 -7456.6087 299.6401 -9195.5974 -7454.5281 299.7465 -276.5691 -157.6063 29790.0969 2.6108 2.7469
ENERGY: 1500000 2.0970 6.7563 3.3150 0.0000 -10679.7442 1468.2443 0.0000 0.0000 1732.7741 -7466.5575 298.5693 -9199.3316 -7463.9750 300.0875 52.4954 169.6812 30150.9353 2.8635 2.7380
ENERGY: 1700000 1.7111 10.8948 3.3766 0.0000 -10502.5686 1367.1672 0.0000 0.0000 1694.3046 -7425.1143 291.9407 -9119.4189 -7421.0028 300.2750 -511.0583 -454.6761 30394.6233 2.7436 2.7139
ENERGY: 1900000 1.1328 10.6509 2.8498 0.0000 -10634.9851 1474.5634 0.0000 0.0000 1749.2820 -7396.5062 301.4137 -9145.7881 -7395.5848 299.5123 598.9117 698.1841 29796.6598 3.5008 3.5029
TCL: Exiting due to exit command.
