Info: SIMULATION PARAMETERS:
Info: TIMESTEP               2
Info: NUMBER OF STEPS        0
Info: STEPS PER CYCLE        10
Info: PERIODIC CELL BASIS 1  37.133 0 0
Info: PERIODIC CELL BASIS 2  0 35.779 0
Info: PERIODIC CELL BASIS 3  0 0 33.27
Info: PERIODIC CELL CENTER   0 0 0
Info: WRAPPING WATERS AROUND PERIODIC BOUNDARIES ON OUTPUT.
Info: WRAPPING ALL CLUSTERS AROUND PERIODIC BOUNDARIES ON OUTPUT.
Info: FIRST LDB TIMESTEP     50
Info: LAST LDB TIMESTEP     -1
Info: HOM BACKGROUND SCALING 1
Info: PME BACKGROUND SCALING 1
Info: MIN ATOMS PER PATCH    40
Info: EMPTY PATCH LOAD       40 ATOMS
Info: INITIAL TEMPERATURE    300
Info: CENTER OF MASS MOVING INITIALLY? NO
Info: DIELECTRIC             1
Info: EXCLUDE                SCALED ONE-FOUR
Info: 1-4 ELECTROSTATICS SCALED BY 0.833333
Info: MODIFIED 1-4 VDW PARAMETERS WILL BE USED
Info: DCD FILENAME           mobley_2261979_equil.dcd
Info: DCD FREQUENCY          100000
Info: DCD FIRST STEP         100000
Info: DCD FILE WILL CONTAIN UNIT CELL DATA
Info: XST FILENAME           mobley_2261979_equil.xst
Info: XST FREQUENCY          100000
Info: NO VELOCITY DCD OUTPUT
Info: NO FORCE DCD OUTPUT
Info: OUTPUT FILENAME        mobley_2261979_equil
Info: BINARY OUTPUT FILES WILL BE USED
Info: RESTART FILENAME       mobley_2261979_equil.restart
Info: RESTART FREQUENCY      100000
Info: BINARY RESTART FILES WILL BE USED
Info: CUTOFF                 9
Info: PAIRLIST DISTANCE      11
Info: PAIRLIST SHRINK RATE   0.01
Info: PAIRLIST GROW RATE     0.01
Info: PAIRLIST TRIGGER       0.3
Info: PAIRLISTS PER CYCLE    2
Info: PAIRLISTS ENABLED
Info: MARGIN                 8
Info: HYDROGEN GROUP CUTOFF  2.5
Info: PATCH DIMENSION        21.5
Info: ENERGY OUTPUT STEPS    100000
Info: ENERGY EVALUATION STEPS    100000
Info: OUTPUT ENERGY PRECISION 4
Info: CROSSTERM ENERGY INCLUDED IN DIHEDRAL
Info: TIMING OUTPUT STEPS    1000000
Info: PRESSURE OUTPUT STEPS  100000
Info: LANGEVIN DYNAMICS ACTIVE
Info: LANGEVIN TEMPERATURE   30
Info: LANGEVIN USING BBK INTEGRATOR
Info: LANGEVIN DAMPING COEFFICIENT IS 1 INVERSE PS
Info: LANGEVIN DYNAMICS APPLIED TO HYDROGENS
Info: LANGEVIN PISTON PRESSURE CONTROL ACTIVE
Info:        TARGET PRESSURE IS 1.01325 BAR
Info:     OSCILLATION PERIOD IS 50 FS
Info:             DECAY TIME IS 25 FS
Info:     PISTON TEMPERATURE IS 300 K
Info:       PRESSURE CONTROL IS GROUP-BASED
Info:    INITIAL STRAIN RATE IS 0 0 0
Info:       CELL FLUCTUATION IS ISOTROPIC
Info: PARTICLE MESH EWALD (PME) ACTIVE
Info: PME TOLERANCE               1e-06
Info: PME EWALD COEFFICIENT       0.348832
Info: PME INTERPOLATION ORDER     4
Info: PME GRID DIMENSIONS         40 36 36
Info: PME MAXIMUM GRID SPACING    1
Info: FULL ELECTROSTATIC EVALUATION FREQUENCY      2
Info: USING VERLET I (r-RESPA) MTS SCHEME.
Info: C1 SPLITTING OF LONG RANGE ELECTROSTATICS
Info: PLACING ATOMS IN PATCHES BY HYDROGEN GROUPS
Info: RIGID BONDS TO HYDROGEN : ALL
Info:         ERROR TOLERANCE : 1e-08
Info:          MAX ITERATIONS : 100
Info: RIGID WATER USING SETTLE ALGORITHM
Info: RANDOM NUMBER SEED     1743219299
Info: USE HYDROGEN BONDS?    NO
Info: Using AMBER format force field!
Info: AMBER PARM FILE        mobley_2261979.prmtop
Info: COORDINATE PDB         mobley_2261979.pdb
Info: Exclusions will be read from PARM file!
Info: SCNB (VDW SCALING)     2
Info: USING ARITHMETIC MEAN TO COMBINE L-J SIGMA PARAMETERS
Info: BINARY COORDINATES     mobley_2261979_min.coor
Info: SUMMARY OF PARAMETERS:
Info: 7 BONDS
Info: 7 ANGLES
Info: 5 DIHEDRAL
Info: 0 IMPROPER
Info: 0 CROSSTERM
Info: 0 VDW
Info: 21 VDW_PAIRS
Info: 0 NBTHOLE_PAIRS
Info: STRUCTURE SUMMARY:
Info: 2932 ATOMS
Info: 2934 BONDS
Info: 42 ANGLES
Info: 75 DIHEDRALS
Info: 0 IMPROPERS
Info: 0 CROSSTERMS
Info: 3030 EXCLUSIONS
Info: 2920 RIGID BONDS
Info: 5876 DEGREES OF FREEDOM
Info: 982 HYDROGEN GROUPS
Info: 3 ATOMS IN LARGEST HYDROGEN GROUP
Info: 982 MIGRATION GROUPS
Info: 3 ATOMS IN LARGEST MIGRATION GROUP
Info: TOTAL MASS = 17629.7 amu
Info: TOTAL CHARGE = 0.000399977 e
Info: MASS DENSITY = 0.662314 g/cm^3
Info: ATOM DENSITY = 0.066332 atoms/A^3
Info: ADDED 0 IMPLICIT EXCLUSIONS
Info: NONBONDED TABLE R-SQUARED SPACING: 0.0625
Info: NONBONDED TABLE SIZE: 705 POINTS
Info: REMOVING COM VELOCITY -0.12087 0.00235236 -0.050642
TCL: Running for 100000 steps
ETITLE: TS BOND ANGLE DIHED IMPRP ELECT VDW BOUNDARY MISC KINETIC TOTAL TEMP POTENTIAL TOTAL3 TEMPAVG PRESSURE GPRESSURE VOLUME PRESSAVG GPRESSAVG
ENERGY: 0 1.3809 13.4560 3.0017 0.0000 -13501.4848 2388.9001 0.0000 0.0000 1763.3681 -9331.3781 302.0310 -11094.7462 -9331.0291 302.0310 521.6753 553.3499 44201.9101 521.6753 553.3499
ENERGY: 100000 1.9233 13.7417 2.9907 0.0000 -14203.2839 2573.3125 0.0000 0.0000 172.5574 -11438.7582 29.5558 -11611.3156 -11438.3082 30.9231 908.7127 956.7342 28926.5822 4.9439 4.9172
TCL: Running 100000 steps at 60 kelvin.
TCL: Setting parameter langevinTemp to 60
TCL: Running for 100000 steps
ETITLE: TS BOND ANGLE DIHED IMPRP ELECT VDW BOUNDARY MISC KINETIC TOTAL TEMP POTENTIAL TOTAL3 TEMPAVG PRESSURE GPRESSURE VOLUME PRESSAVG GPRESSAVG
ENERGY: 100000 1.9233 13.7417 2.9907 0.0000 -14203.2839 2573.3125 0.0000 0.0000 172.4692 -11438.8464 29.5407 -11611.3156 -11438.5501 29.5407 894.5050 956.8123 28926.5822 894.5050 956.8123
ENERGY: 200000 3.1334 14.2816 3.1807 0.0000 -13808.4935 2229.6541 0.0000 0.0000 357.8752 -11200.3685 61.2971 -11558.2437 -11199.1045 60.0032 -1769.9740 -1699.7371 28841.1727 4.0073 3.9729
TCL: Running 100000 steps at 90 kelvin.
TCL: Setting parameter langevinTemp to 90
TCL: Running for 100000 steps
ETITLE: TS BOND ANGLE DIHED IMPRP ELECT VDW BOUNDARY MISC KINETIC TOTAL TEMP POTENTIAL TOTAL3 TEMPAVG PRESSURE GPRESSURE VOLUME PRESSAVG GPRESSAVG
ENERGY: 200000 3.1334 14.2816 3.1807 0.0000 -13808.4935 2229.6541 0.0000 0.0000 357.6983 -11200.5454 61.2668 -11558.2437 -11199.5811 61.2668 -1757.9352 -1699.6023 28841.1727 -1757.9352 -1699.6023
ENERGY: 300000 2.6513 13.6337 3.5325 0.0000 -13899.8108 2459.3031 0.0000 0.0000 531.2643 -10889.4259 90.9954 -11420.6901 -10888.4977 89.8107 1074.3977 1140.4610 28204.2242 3.9112 3.8086
TCL: Running 100000 steps at 120 kelvin.
TCL: Setting parameter langevinTemp to 120
TCL: Running for 100000 steps
ETITLE: TS BOND ANGLE DIHED IMPRP ELECT VDW BOUNDARY MISC KINETIC TOTAL TEMP POTENTIAL TOTAL3 TEMPAVG PRESSURE GPRESSURE VOLUME PRESSAVG GPRESSAVG
ENERGY: 300000 2.6513 13.6337 3.5325 0.0000 -13899.8108 2459.3031 0.0000 0.0000 531.0035 -10889.6866 90.9507 -11420.6901 -10888.8337 90.9507 1082.1682 1140.9020 28204.2242 1082.1682 1140.9020
ENERGY: 400000 4.2339 17.4096 4.1846 0.0000 -13585.8323 2233.4430 0.0000 0.0000 715.7678 -10610.7934 122.5973 -11326.5612 -10609.3552 120.1718 -651.7079 -596.3287 28466.3233 3.2835 3.3680
TCL: Running 100000 steps at 150 kelvin.
TCL: Setting parameter langevinTemp to 150
TCL: Running for 100000 steps
ETITLE: TS BOND ANGLE DIHED IMPRP ELECT VDW BOUNDARY MISC KINETIC TOTAL TEMP POTENTIAL TOTAL3 TEMPAVG PRESSURE GPRESSURE VOLUME PRESSAVG GPRESSAVG
ENERGY: 400000 4.2339 17.4096 4.1846 0.0000 -13585.8323 2233.4430 0.0000 0.0000 715.4193 -10611.1419 122.5376 -11326.5612 -10609.6436 122.5376 -644.2091 -596.6776 28466.3233 -644.2091 -596.6776
ENERGY: 500000 4.8907 17.9332 3.4712 0.0000 -13257.7300 2077.8063 0.0000 0.0000 900.7507 -10252.8778 154.2813 -11153.6284 -10251.3835 149.9936 -1316.2349 -1263.4482 28859.6221 4.2850 4.3094
TCL: Running 100000 steps at 180 kelvin.
TCL: Setting parameter langevinTemp to 180
TCL: Running for 100000 steps
ETITLE: TS BOND ANGLE DIHED IMPRP ELECT VDW BOUNDARY MISC KINETIC TOTAL TEMP POTENTIAL TOTAL3 TEMPAVG PRESSURE GPRESSURE VOLUME PRESSAVG GPRESSAVG
ENERGY: 500000 4.8907 17.9332 3.4712 0.0000 -13257.7300 2077.8063 0.0000 0.0000 900.3292 -10253.2992 154.2091 -11153.6284 -10250.9249 154.2091 -1314.4401 -1265.6869 28859.6221 -1314.4401 -1265.6869
ENERGY: 600000 2.2782 16.6928 5.7178 0.0000 -13012.3338 2120.7022 0.0000 0.0000 1063.1311 -9803.8117 182.0939 -10866.9428 -9801.6567 179.6544 319.4422 363.9188 28553.5000 4.3107 4.4808
TCL: Running 100000 steps at 210 kelvin.
TCL: Setting parameter langevinTemp to 210
TCL: Running for 100000 steps
ETITLE: TS BOND ANGLE DIHED IMPRP ELECT VDW BOUNDARY MISC KINETIC TOTAL TEMP POTENTIAL TOTAL3 TEMPAVG PRESSURE GPRESSURE VOLUME PRESSAVG GPRESSAVG
ENERGY: 600000 2.2782 16.6928 5.7178 0.0000 -13012.3338 2120.7022 0.0000 0.0000 1062.6038 -9804.3390 182.0036 -10866.9428 -9801.6975 182.0036 289.4482 364.7566 28553.5000 289.4482 364.7566
ENERGY: 700000 2.0768 20.0097 4.9233 0.0000 -12395.5443 1966.4077 0.0000 0.0000 1233.3756 -9168.7512 211.2535 -10402.1268 -9165.9911 209.9192 744.0238 854.1517 28411.5164 6.1144 6.1188
TCL: Running 100000 steps at 240 kelvin.
TCL: Setting parameter langevinTemp to 240
TCL: Running for 100000 steps
ETITLE: TS BOND ANGLE DIHED IMPRP ELECT VDW BOUNDARY MISC KINETIC TOTAL TEMP POTENTIAL TOTAL3 TEMPAVG PRESSURE GPRESSURE VOLUME PRESSAVG GPRESSAVG
ENERGY: 700000 2.0768 20.0097 4.9233 0.0000 -12395.5443 1966.4077 0.0000 0.0000 1232.7495 -9169.3773 211.1463 -10402.1268 -9167.2142 211.1463 771.9276 853.3260 28411.5164 771.9276 853.3260
ENERGY: 800000 4.0856 20.2292 5.8358 0.0000 -11676.8653 1677.4583 0.0000 0.0000 1430.5533 -8538.7031 245.0263 -9969.2564 -8534.5753 240.2882 -120.1771 -45.0007 28905.7531 2.9761 2.8561
TCL: Running 100000 steps at 270 kelvin.
TCL: Setting parameter langevinTemp to 270
TCL: Running for 100000 steps
ETITLE: TS BOND ANGLE DIHED IMPRP ELECT VDW BOUNDARY MISC KINETIC TOTAL TEMP POTENTIAL TOTAL3 TEMPAVG PRESSURE GPRESSURE VOLUME PRESSAVG GPRESSAVG
ENERGY: 800000 4.0856 20.2292 5.8358 0.0000 -11676.8653 1677.4583 0.0000 0.0000 1429.8329 -8539.4235 244.9029 -9969.2564 -8537.1755 244.9029 -117.3152 -42.1614 28905.7531 -117.3152 -42.1614
ENERGY: 900000 5.7537 19.5483 4.3461 0.0000 -11133.3636 1567.2937 0.0000 0.0000 1559.2631 -7977.1588 267.0718 -9536.4218 -7976.8939 269.8020 80.4289 195.5180 29440.2315 2.9811 3.1682
TCL: Running 1000000 steps at 300 kelvin.
TCL: Setting parameter langevinTemp to 300
TCL: Running for 1000000 steps
ETITLE: TS BOND ANGLE DIHED IMPRP ELECT VDW BOUNDARY MISC KINETIC TOTAL TEMP POTENTIAL TOTAL3 TEMPAVG PRESSURE GPRESSURE VOLUME PRESSAVG GPRESSAVG
ENERGY: 900000 5.7537 19.5483 4.3461 0.0000 -11133.3636 1567.2937 0.0000 0.0000 1558.4731 -7977.9488 266.9365 -9536.4218 -7975.7084 266.9365 123.6784 194.5913 29440.2315 123.6784 194.5913
ENERGY: 1100000 6.3978 20.7218 5.7654 0.0000 -10688.9766 1496.6734 0.0000 0.0000 1722.7028 -7436.7154 295.0658 -9159.4182 -7434.1210 300.3953 414.7976 507.3747 30269.0752 3.7019 3.7208
ENERGY: 1300000 5.3650 18.8717 8.5335 0.0000 -10513.1128 1363.7229 0.0000 0.0000 1759.0045 -7357.6152 301.2836 -9116.6197 -7354.6705 300.0816 -419.8045 -366.9212 30202.8457 1.7300 1.8074
ENERGY: 1500000 5.6393 22.2627 7.6906 0.0000 -10508.9989 1412.4859 0.0000 0.0000 1756.4256 -7304.4948 300.8419 -9060.9204 -7299.4415 300.7563 152.3407 321.3333 30185.5173 3.5164 3.6870
ENERGY: 1700000 5.8284 21.3477 6.2326 0.0000 -10502.3943 1339.5478 0.0000 0.0000 1752.9905 -7376.4473 300.2536 -9129.4378 -7372.1628 300.4695 -977.5863 -786.3374 30656.9599 4.9244 4.6862
ENERGY: 1900000 3.9169 23.7405 5.3470 0.0000 -10545.2451 1365.5565 0.0000 0.0000 1732.2696 -7414.4145 296.7045 -9146.6842 -7412.9015 299.5712 -262.1628 -85.7398 29674.2843 4.0653 4.3345
TCL: Exiting due to exit command.
