Info: SIMULATION PARAMETERS:
Info: TIMESTEP               2
Info: NUMBER OF STEPS        0
Info: STEPS PER CYCLE        10
Info: PERIODIC CELL BASIS 1  34.986 0 0
Info: PERIODIC CELL BASIS 2  0 34.26 0
Info: PERIODIC CELL BASIS 3  0 0 36.583
Info: PERIODIC CELL CENTER   0 0 0
Info: WRAPPING WATERS AROUND PERIODIC BOUNDARIES ON OUTPUT.
Info: WRAPPING ALL CLUSTERS AROUND PERIODIC BOUNDARIES ON OUTPUT.
Info: FIRST LDB TIMESTEP     50
Info: LAST LDB TIMESTEP     -1
Info: HOM BACKGROUND SCALING 1
Info: PME BACKGROUND SCALING 1
Info: MIN ATOMS PER PATCH    40
Info: EMPTY PATCH LOAD       40 ATOMS
Info: INITIAL TEMPERATURE    300
Info: CENTER OF MASS MOVING INITIALLY? NO
Info: DIELECTRIC             1
Info: EXCLUDE                SCALED ONE-FOUR
Info: 1-4 ELECTROSTATICS SCALED BY 0.833333
Info: MODIFIED 1-4 VDW PARAMETERS WILL BE USED
Info: DCD FILENAME           mobley_7227357_equil.dcd
Info: DCD FREQUENCY          100000
Info: DCD FIRST STEP         100000
Info: DCD FILE WILL CONTAIN UNIT CELL DATA
Info: XST FILENAME           mobley_7227357_equil.xst
Info: XST FREQUENCY          100000
Info: NO VELOCITY DCD OUTPUT
Info: NO FORCE DCD OUTPUT
Info: OUTPUT FILENAME        mobley_7227357_equil
Info: BINARY OUTPUT FILES WILL BE USED
Info: RESTART FILENAME       mobley_7227357_equil.restart
Info: RESTART FREQUENCY      100000
Info: BINARY RESTART FILES WILL BE USED
Info: CUTOFF                 9
Info: PAIRLIST DISTANCE      11
Info: PAIRLIST SHRINK RATE   0.01
Info: PAIRLIST GROW RATE     0.01
Info: PAIRLIST TRIGGER       0.3
Info: PAIRLISTS PER CYCLE    2
Info: PAIRLISTS ENABLED
Info: MARGIN                 8
Info: HYDROGEN GROUP CUTOFF  2.5
Info: PATCH DIMENSION        21.5
Info: ENERGY OUTPUT STEPS    100000
Info: ENERGY EVALUATION STEPS    100000
Info: OUTPUT ENERGY PRECISION 4
Info: CROSSTERM ENERGY INCLUDED IN DIHEDRAL
Info: TIMING OUTPUT STEPS    1000000
Info: PRESSURE OUTPUT STEPS  100000
Info: LANGEVIN DYNAMICS ACTIVE
Info: LANGEVIN TEMPERATURE   30
Info: LANGEVIN USING BBK INTEGRATOR
Info: LANGEVIN DAMPING COEFFICIENT IS 1 INVERSE PS
Info: LANGEVIN DYNAMICS APPLIED TO HYDROGENS
Info: LANGEVIN PISTON PRESSURE CONTROL ACTIVE
Info:        TARGET PRESSURE IS 1.01325 BAR
Info:     OSCILLATION PERIOD IS 50 FS
Info:             DECAY TIME IS 25 FS
Info:     PISTON TEMPERATURE IS 300 K
Info:       PRESSURE CONTROL IS GROUP-BASED
Info:    INITIAL STRAIN RATE IS 0 0 0
Info:       CELL FLUCTUATION IS ISOTROPIC
Info: PARTICLE MESH EWALD (PME) ACTIVE
Info: PME TOLERANCE               1e-06
Info: PME EWALD COEFFICIENT       0.348832
Info: PME INTERPOLATION ORDER     4
Info: PME GRID DIMENSIONS         36 36 40
Info: PME MAXIMUM GRID SPACING    1
Info: FULL ELECTROSTATIC EVALUATION FREQUENCY      2
Info: USING VERLET I (r-RESPA) MTS SCHEME.
Info: C1 SPLITTING OF LONG RANGE ELECTROSTATICS
Info: PLACING ATOMS IN PATCHES BY HYDROGEN GROUPS
Info: RIGID BONDS TO HYDROGEN : ALL
Info:         ERROR TOLERANCE : 1e-08
Info:          MAX ITERATIONS : 100
Info: RIGID WATER USING SETTLE ALGORITHM
Info: RANDOM NUMBER SEED     1743241931
Info: USE HYDROGEN BONDS?    NO
Info: Using AMBER format force field!
Info: AMBER PARM FILE        mobley_7227357.prmtop
Info: COORDINATE PDB         mobley_7227357.pdb
Info: Exclusions will be read from PARM file!
Info: SCNB (VDW SCALING)     2
Info: USING ARITHMETIC MEAN TO COMBINE L-J SIGMA PARAMETERS
Info: BINARY COORDINATES     mobley_7227357_min.coor
Info: SUMMARY OF PARAMETERS:
Info: 7 BONDS
Info: 7 ANGLES
Info:   7 HARMONIC
Info:   0 COSINE-BASED
Info: 9 DIHEDRAL
Info: 0 IMPROPER
Info: 0 CROSSTERM
Info: 0 VDW
Info: 21 VDW_PAIRS
Info: 0 NBTHOLE_PAIRS
Info: STRUCTURE SUMMARY:
Info: 2970 ATOMS
Info: 2969 BONDS
Info: 31 ANGLES
Info: 49 DIHEDRALS
Info: 0 IMPROPERS
Info: 0 CROSSTERMS
Info: 3039 EXCLUSIONS
Info: 2964 RIGID BONDS
Info: 5946 DEGREES OF FREEDOM
Info: 990 HYDROGEN GROUPS
Info: 4 ATOMS IN LARGEST HYDROGEN GROUP
Info: 990 MIGRATION GROUPS
Info: 4 ATOMS IN LARGEST MIGRATION GROUP
Info: TOTAL MASS = 17815.9 amu
Info: TOTAL CHARGE = 0.000399984 e
Info: MASS DENSITY = 0.674692 g/cm^3
Info: ATOM DENSITY = 0.0677322 atoms/A^3
Info: ADDED 0 IMPLICIT EXCLUSIONS
Info: NONBONDED TABLE R-SQUARED SPACING: 0.0625
Info: NONBONDED TABLE SIZE: 705 POINTS
Info: REMOVING COM VELOCITY -0.01388 -0.186578 0.280955
TCL: Running for 100000 steps
ETITLE: TS BOND ANGLE DIHED IMPRP ELECT VDW BOUNDARY MISC KINETIC TOTAL TEMP POTENTIAL TOTAL3 TEMPAVG PRESSURE GPRESSURE VOLUME PRESSAVG GPRESSAVG
ENERGY: 0 0.0913 0.3847 2.3646 0.0000 -13770.5967 2422.9271 0.0000 0.0000 1740.1467 -9604.6822 294.5448 -11344.8289 -9604.3621 294.5448 444.0112 488.7956 43849.1286 444.0112 488.7956
ENERGY: 100000 0.2298 1.3716 2.4597 0.0000 -14240.9853 2430.0056 0.0000 0.0000 177.3558 -11629.5628 30.0200 -11806.9186 -11629.0422 30.8541 -632.9499 -593.6266 29137.3951 4.3722 4.4082
TCL: Running 100000 steps at 60 kelvin.
TCL: Setting parameter langevinTemp to 60
TCL: Running for 100000 steps
ETITLE: TS BOND ANGLE DIHED IMPRP ELECT VDW BOUNDARY MISC KINETIC TOTAL TEMP POTENTIAL TOTAL3 TEMPAVG PRESSURE GPRESSURE VOLUME PRESSAVG GPRESSAVG
ENERGY: 100000 0.2298 1.3716 2.4597 0.0000 -14240.9853 2430.0056 0.0000 0.0000 177.2628 -11629.6558 30.0043 -11806.9186 -11629.2930 30.0043 -651.9679 -593.5682 29137.3951 -651.9679 -593.5682
ENERGY: 200000 0.3149 2.0514 2.9529 0.0000 -14142.9986 2381.5870 0.0000 0.0000 351.2538 -11404.8387 59.4547 -11756.0924 -11403.5165 59.9475 -822.7359 -790.7253 29127.4245 2.8235 2.8744
TCL: Running 100000 steps at 90 kelvin.
TCL: Setting parameter langevinTemp to 90
TCL: Running for 100000 steps
ETITLE: TS BOND ANGLE DIHED IMPRP ELECT VDW BOUNDARY MISC KINETIC TOTAL TEMP POTENTIAL TOTAL3 TEMPAVG PRESSURE GPRESSURE VOLUME PRESSAVG GPRESSAVG
ENERGY: 200000 0.3149 2.0514 2.9529 0.0000 -14142.9986 2381.5870 0.0000 0.0000 351.0803 -11405.0121 59.4254 -11756.0924 -11404.1346 59.4254 -837.6916 -790.7790 29127.4245 -837.6916 -790.7790
ENERGY: 300000 0.1994 3.9191 2.8041 0.0000 -14079.1568 2450.7549 0.0000 0.0000 547.3725 -11074.1067 92.6506 -11621.4793 -11072.7784 89.8545 512.4037 549.8355 28892.4468 5.1346 5.0761
TCL: Running 100000 steps at 120 kelvin.
TCL: Setting parameter langevinTemp to 120
TCL: Running for 100000 steps
ETITLE: TS BOND ANGLE DIHED IMPRP ELECT VDW BOUNDARY MISC KINETIC TOTAL TEMP POTENTIAL TOTAL3 TEMPAVG PRESSURE GPRESSURE VOLUME PRESSAVG GPRESSAVG
ENERGY: 300000 0.1994 3.9191 2.8041 0.0000 -14079.1568 2450.7549 0.0000 0.0000 547.1016 -11074.3776 92.6048 -11621.4793 -11073.2926 92.6048 502.1449 549.2519 28892.4468 502.1449 549.2519
ENERGY: 400000 0.3716 3.8502 2.9047 0.0000 -13928.5290 2380.6270 0.0000 0.0000 705.9275 -10834.8480 119.4883 -11540.7754 -10833.3159 119.7804 400.6042 484.4686 28505.9511 5.5879 5.6258
TCL: Running 100000 steps at 150 kelvin.
TCL: Setting parameter langevinTemp to 150
TCL: Running for 100000 steps
ETITLE: TS BOND ANGLE DIHED IMPRP ELECT VDW BOUNDARY MISC KINETIC TOTAL TEMP POTENTIAL TOTAL3 TEMPAVG PRESSURE GPRESSURE VOLUME PRESSAVG GPRESSAVG
ENERGY: 400000 0.3716 3.8502 2.9047 0.0000 -13928.5290 2380.6270 0.0000 0.0000 705.5914 -10835.1840 119.4315 -11540.7754 -10833.4670 119.4315 435.7235 483.5788 28505.9511 435.7235 483.5788
ENERGY: 500000 0.2371 4.2924 3.6870 0.0000 -13588.8940 2249.9052 0.0000 0.0000 868.1894 -10462.5830 146.9535 -11330.7724 -10460.8255 150.0859 -38.2930 35.9080 28838.7242 3.5187 3.6358
TCL: Running 100000 steps at 180 kelvin.
TCL: Setting parameter langevinTemp to 180
TCL: Running for 100000 steps
ETITLE: TS BOND ANGLE DIHED IMPRP ELECT VDW BOUNDARY MISC KINETIC TOTAL TEMP POTENTIAL TOTAL3 TEMPAVG PRESSURE GPRESSURE VOLUME PRESSAVG GPRESSAVG
ENERGY: 500000 0.2371 4.2924 3.6870 0.0000 -13588.8940 2249.9052 0.0000 0.0000 867.7339 -10463.0385 146.8764 -11330.7724 -10461.3529 146.8764 -15.6980 36.4180 28838.7242 -15.6980 36.4180
ENERGY: 600000 0.6022 4.9515 2.7291 0.0000 -13259.3801 2192.6255 0.0000 0.0000 1048.3964 -10010.0754 177.4561 -11058.4718 -10007.4341 180.0284 354.4894 417.1902 29057.2385 3.6063 3.6182
TCL: Running 100000 steps at 210 kelvin.
TCL: Setting parameter langevinTemp to 210
TCL: Running for 100000 steps
ETITLE: TS BOND ANGLE DIHED IMPRP ELECT VDW BOUNDARY MISC KINETIC TOTAL TEMP POTENTIAL TOTAL3 TEMPAVG PRESSURE GPRESSURE VOLUME PRESSAVG GPRESSAVG
ENERGY: 600000 0.6022 4.9515 2.7291 0.0000 -13259.3801 2192.6255 0.0000 0.0000 1047.8500 -10010.6218 177.3636 -11058.4718 -10008.7157 177.3636 359.2026 418.0224 29057.2385 359.2026 418.0224
ENERGY: 700000 0.7312 7.1985 4.1872 0.0000 -12424.2821 1813.5378 0.0000 0.0000 1234.5573 -9364.0702 208.9665 -10598.6275 -9361.0425 209.8159 -1025.6810 -892.0800 29116.8657 2.8896 2.8796
TCL: Running 100000 steps at 240 kelvin.
TCL: Setting parameter langevinTemp to 240
TCL: Running for 100000 steps
ETITLE: TS BOND ANGLE DIHED IMPRP ELECT VDW BOUNDARY MISC KINETIC TOTAL TEMP POTENTIAL TOTAL3 TEMPAVG PRESSURE GPRESSURE VOLUME PRESSAVG GPRESSAVG
ENERGY: 700000 0.7312 7.1985 4.1872 0.0000 -12424.2821 1813.5378 0.0000 0.0000 1233.9506 -9364.6768 208.8638 -10598.6275 -9362.4509 208.8638 -963.2355 -894.0621 29116.8657 -963.2355 -894.0621
ENERGY: 800000 1.7817 3.6477 4.2839 0.0000 -11830.5541 1699.9250 0.0000 0.0000 1391.0511 -8729.8647 235.4554 -10120.9159 -8728.6064 240.0055 -197.4060 -156.3788 29087.6991 3.5525 3.5352
TCL: Running 100000 steps at 270 kelvin.
TCL: Setting parameter langevinTemp to 270
TCL: Running for 100000 steps
ETITLE: TS BOND ANGLE DIHED IMPRP ELECT VDW BOUNDARY MISC KINETIC TOTAL TEMP POTENTIAL TOTAL3 TEMPAVG PRESSURE GPRESSURE VOLUME PRESSAVG GPRESSAVG
ENERGY: 800000 1.7817 3.6477 4.2839 0.0000 -11830.5541 1699.9250 0.0000 0.0000 1390.3121 -8730.6037 235.3303 -10120.9159 -8727.7074 235.3303 -236.2641 -156.1902 29087.6991 -236.2641 -156.1902
ENERGY: 900000 0.6015 5.6247 2.5747 0.0000 -11338.7699 1547.1215 0.0000 0.0000 1589.3951 -8193.4525 269.0279 -9782.8476 -8190.1017 269.5627 -358.0692 -265.3486 29569.3867 4.1455 4.0558
TCL: Running 1000000 steps at 300 kelvin.
TCL: Setting parameter langevinTemp to 300
TCL: Running for 1000000 steps
ETITLE: TS BOND ANGLE DIHED IMPRP ELECT VDW BOUNDARY MISC KINETIC TOTAL TEMP POTENTIAL TOTAL3 TEMPAVG PRESSURE GPRESSURE VOLUME PRESSAVG GPRESSAVG
ENERGY: 900000 0.6015 5.6247 2.5747 0.0000 -11338.7699 1547.1215 0.0000 0.0000 1588.6128 -8194.2348 268.8955 -9782.8476 -8191.4631 268.8955 -361.1961 -266.8465 29569.3867 -361.1961 -266.8465
ENERGY: 1100000 0.2592 5.6997 2.5719 0.0000 -10733.2361 1469.4688 0.0000 0.0000 1784.2867 -7470.9499 302.0161 -9255.2365 -7468.3977 299.7951 219.0915 401.9921 30653.4573 2.8268 2.6756
ENERGY: 1300000 1.4075 6.1087 4.0019 0.0000 -10603.1659 1369.7046 0.0000 0.0000 1733.0160 -7488.9272 293.3378 -9221.9432 -7485.3416 300.4565 -555.3714 -552.0682 30930.9218 3.6587 3.6722
ENERGY: 1500000 0.7165 4.3622 3.0888 0.0000 -10775.2065 1447.3114 0.0000 0.0000 1715.6550 -7604.0727 290.3992 -9319.7277 -7600.6596 299.9069 -243.9191 -172.0555 30865.7229 2.3621 2.3736
ENERGY: 1700000 1.6042 8.3118 5.1455 0.0000 -10743.0175 1409.7051 0.0000 0.0000 1770.7768 -7547.4741 299.7294 -9318.2509 -7543.4561 300.2337 -644.6557 -570.4645 31237.2673 2.8963 3.0742
ENERGY: 1900000 1.8643 7.7700 4.2242 0.0000 -10774.6098 1482.1600 0.0000 0.0000 1763.0209 -7515.5705 298.4166 -9278.5914 -7511.9652 299.9451 490.5769 545.5230 30361.1447 3.6119 3.6095
TCL: Exiting due to exit command.
