Info: SIMULATION PARAMETERS:
Info: TIMESTEP               2
Info: NUMBER OF STEPS        0
Info: STEPS PER CYCLE        10
Info: PERIODIC CELL BASIS 1  35.01 0 0
Info: PERIODIC CELL BASIS 2  0 35.411 0
Info: PERIODIC CELL BASIS 3  0 0 35.644
Info: PERIODIC CELL CENTER   0 0 0
Info: WRAPPING WATERS AROUND PERIODIC BOUNDARIES ON OUTPUT.
Info: WRAPPING ALL CLUSTERS AROUND PERIODIC BOUNDARIES ON OUTPUT.
Info: FIRST LDB TIMESTEP     50
Info: LAST LDB TIMESTEP     -1
Info: HOM BACKGROUND SCALING 1
Info: PME BACKGROUND SCALING 1
Info: MIN ATOMS PER PATCH    40
Info: EMPTY PATCH LOAD       40 ATOMS
Info: INITIAL TEMPERATURE    300
Info: CENTER OF MASS MOVING INITIALLY? NO
Info: DIELECTRIC             1
Info: EXCLUDE                SCALED ONE-FOUR
Info: 1-4 ELECTROSTATICS SCALED BY 0.833333
Info: MODIFIED 1-4 VDW PARAMETERS WILL BE USED
Info: DCD FILENAME           mobley_6266306_equil.dcd
Info: DCD FREQUENCY          100000
Info: DCD FIRST STEP         100000
Info: DCD FILE WILL CONTAIN UNIT CELL DATA
Info: XST FILENAME           mobley_6266306_equil.xst
Info: XST FREQUENCY          100000
Info: NO VELOCITY DCD OUTPUT
Info: NO FORCE DCD OUTPUT
Info: OUTPUT FILENAME        mobley_6266306_equil
Info: BINARY OUTPUT FILES WILL BE USED
Info: RESTART FILENAME       mobley_6266306_equil.restart
Info: RESTART FREQUENCY      100000
Info: BINARY RESTART FILES WILL BE USED
Info: CUTOFF                 9
Info: PAIRLIST DISTANCE      11
Info: PAIRLIST SHRINK RATE   0.01
Info: PAIRLIST GROW RATE     0.01
Info: PAIRLIST TRIGGER       0.3
Info: PAIRLISTS PER CYCLE    2
Info: PAIRLISTS ENABLED
Info: MARGIN                 8
Info: HYDROGEN GROUP CUTOFF  2.5
Info: PATCH DIMENSION        21.5
Info: ENERGY OUTPUT STEPS    100000
Info: ENERGY EVALUATION STEPS    100000
Info: OUTPUT ENERGY PRECISION 4
Info: CROSSTERM ENERGY INCLUDED IN DIHEDRAL
Info: TIMING OUTPUT STEPS    1000000
Info: PRESSURE OUTPUT STEPS  100000
Info: LANGEVIN DYNAMICS ACTIVE
Info: LANGEVIN TEMPERATURE   30
Info: LANGEVIN USING BBK INTEGRATOR
Info: LANGEVIN DAMPING COEFFICIENT IS 1 INVERSE PS
Info: LANGEVIN DYNAMICS APPLIED TO HYDROGENS
Info: LANGEVIN PISTON PRESSURE CONTROL ACTIVE
Info:        TARGET PRESSURE IS 1.01325 BAR
Info:     OSCILLATION PERIOD IS 50 FS
Info:             DECAY TIME IS 25 FS
Info:     PISTON TEMPERATURE IS 300 K
Info:       PRESSURE CONTROL IS GROUP-BASED
Info:    INITIAL STRAIN RATE IS 0 0 0
Info:       CELL FLUCTUATION IS ISOTROPIC
Info: PARTICLE MESH EWALD (PME) ACTIVE
Info: PME TOLERANCE               1e-06
Info: PME EWALD COEFFICIENT       0.348832
Info: PME INTERPOLATION ORDER     4
Info: PME GRID DIMENSIONS         36 36 36
Info: PME MAXIMUM GRID SPACING    1
Info: FULL ELECTROSTATIC EVALUATION FREQUENCY      2
Info: USING VERLET I (r-RESPA) MTS SCHEME.
Info: C1 SPLITTING OF LONG RANGE ELECTROSTATICS
Info: PLACING ATOMS IN PATCHES BY HYDROGEN GROUPS
Info: RIGID BONDS TO HYDROGEN : ALL
Info:         ERROR TOLERANCE : 1e-08
Info:          MAX ITERATIONS : 100
Info: RIGID WATER USING SETTLE ALGORITHM
Info: RANDOM NUMBER SEED     1743161611
Info: USE HYDROGEN BONDS?    NO
Info: Using AMBER format force field!
Info: AMBER PARM FILE        mobley_6266306.prmtop
Info: COORDINATE PDB         mobley_6266306.pdb
Info: Exclusions will be read from PARM file!
Info: SCNB (VDW SCALING)     2
Info: USING ARITHMETIC MEAN TO COMBINE L-J SIGMA PARAMETERS
Info: BINARY COORDINATES     mobley_6266306_min.coor
Info: SUMMARY OF PARAMETERS:
Info: 7 BONDS
Info: 9 ANGLES
Info:   9 HARMONIC
Info:   0 COSINE-BASED
Info: 3 DIHEDRAL
Info: 0 IMPROPER
Info: 0 CROSSTERM
Info: 0 VDW
Info: 28 VDW_PAIRS
Info: 0 NBTHOLE_PAIRS
Info: STRUCTURE SUMMARY:
Info: 2975 ATOMS
Info: 2975 BONDS
Info: 21 ANGLES
Info: 32 DIHEDRALS
Info: 0 IMPROPERS
Info: 0 CROSSTERMS
Info: 3013 EXCLUSIONS
Info: 2971 RIGID BONDS
Info: 5954 DEGREES OF FREEDOM
Info: 992 HYDROGEN GROUPS
Info: 3 ATOMS IN LARGEST HYDROGEN GROUP
Info: 992 MIGRATION GROUPS
Info: 3 ATOMS IN LARGEST MIGRATION GROUP
Info: TOTAL MASS = 17856.9 amu
Info: TOTAL CHARGE = -4.47035e-08 e
Info: MASS DENSITY = 0.67104 g/cm^3
Info: ATOM DENSITY = 0.067324 atoms/A^3
Info: ADDED 0 IMPLICIT EXCLUSIONS
Info: NONBONDED TABLE R-SQUARED SPACING: 0.0625
Info: NONBONDED TABLE SIZE: 705 POINTS
Info: REMOVING COM VELOCITY 0.165942 0.128486 -0.0781414
TCL: Running for 100000 steps
ETITLE: TS BOND ANGLE DIHED IMPRP ELECT VDW BOUNDARY MISC KINETIC TOTAL TEMP POTENTIAL TOTAL3 TEMPAVG PRESSURE GPRESSURE VOLUME PRESSAVG GPRESSAVG
ENERGY: 0 0.1010 28.9239 11.8738 0.0000 -13784.1121 2467.7659 0.0000 0.0000 1781.6729 -9493.7747 301.1685 -11275.4475 -9493.4331 301.1685 675.4774 710.9819 44189.2608 675.4774 710.9819
ENERGY: 100000 0.2671 29.9515 11.2305 0.0000 -14272.1026 2428.2743 0.0000 0.0000 174.2795 -11628.0997 29.4597 -11802.3792 -11627.6594 30.8992 -749.3260 -685.1590 29423.8355 4.3640 4.4185
TCL: Running 100000 steps at 60 kelvin.
TCL: Setting parameter langevinTemp to 60
TCL: Running for 100000 steps
ETITLE: TS BOND ANGLE DIHED IMPRP ELECT VDW BOUNDARY MISC KINETIC TOTAL TEMP POTENTIAL TOTAL3 TEMPAVG PRESSURE GPRESSURE VOLUME PRESSAVG GPRESSAVG
ENERGY: 100000 0.2671 29.9515 11.2305 0.0000 -14272.1026 2428.2743 0.0000 0.0000 174.1917 -11628.1874 29.4448 -11802.3792 -11627.7416 29.4448 -747.4580 -685.4592 29423.8355 -747.4580 -685.4592
ENERGY: 200000 0.1974 30.6866 11.1276 0.0000 -14055.2144 2306.2724 0.0000 0.0000 355.5417 -11351.3887 60.0997 -11706.9304 -11350.0423 59.8391 -1205.6328 -1188.3251 29393.4823 3.3348 3.2609
TCL: Running 100000 steps at 90 kelvin.
TCL: Setting parameter langevinTemp to 90
TCL: Running for 100000 steps
ETITLE: TS BOND ANGLE DIHED IMPRP ELECT VDW BOUNDARY MISC KINETIC TOTAL TEMP POTENTIAL TOTAL3 TEMPAVG PRESSURE GPRESSURE VOLUME PRESSAVG GPRESSAVG
ENERGY: 200000 0.1974 30.6866 11.1276 0.0000 -14055.2144 2306.2724 0.0000 0.0000 355.3670 -11351.5633 60.0701 -11706.9304 -11350.6567 60.0701 -1228.3593 -1188.2065 29393.4823 -1228.3593 -1188.2065
ENERGY: 300000 0.3412 30.1572 12.0330 0.0000 -14059.4052 2366.8201 0.0000 0.0000 526.7699 -11123.2837 89.0435 -11650.0535 -11121.8521 89.9124 -591.9094 -591.0252 29353.2640 5.4966 5.6506
TCL: Running 100000 steps at 120 kelvin.
TCL: Setting parameter langevinTemp to 120
TCL: Running for 100000 steps
ETITLE: TS BOND ANGLE DIHED IMPRP ELECT VDW BOUNDARY MISC KINETIC TOTAL TEMP POTENTIAL TOTAL3 TEMPAVG PRESSURE GPRESSURE VOLUME PRESSAVG GPRESSAVG
ENERGY: 300000 0.3412 30.1572 12.0330 0.0000 -14059.4052 2366.8201 0.0000 0.0000 526.5015 -11123.5520 88.9982 -11650.0535 -11122.4551 88.9982 -634.9635 -591.2163 29353.2640 -634.9635 -591.2163
ENERGY: 400000 0.6835 30.8353 12.3998 0.0000 -13858.1765 2321.1029 0.0000 0.0000 729.8421 -10763.3128 123.3703 -11493.1549 -10761.8291 120.2253 -311.2333 -321.0916 29375.6782 4.4636 4.4428
TCL: Running 100000 steps at 150 kelvin.
TCL: Setting parameter langevinTemp to 150
TCL: Running for 100000 steps
ETITLE: TS BOND ANGLE DIHED IMPRP ELECT VDW BOUNDARY MISC KINETIC TOTAL TEMP POTENTIAL TOTAL3 TEMPAVG PRESSURE GPRESSURE VOLUME PRESSAVG GPRESSAVG
ENERGY: 400000 0.6835 30.8353 12.3998 0.0000 -13858.1765 2321.1029 0.0000 0.0000 729.4881 -10763.6668 123.3104 -11493.1549 -10762.3696 123.3104 -366.2623 -321.2976 29375.6782 -366.2623 -321.2976
ENERGY: 500000 0.8364 31.1644 11.0031 0.0000 -13691.9475 2298.8539 0.0000 0.0000 869.2377 -10480.8520 146.9333 -11350.0897 -10479.1705 149.6331 -125.5164 -52.2469 29369.8508 2.3469 2.3939
TCL: Running 100000 steps at 180 kelvin.
TCL: Setting parameter langevinTemp to 180
TCL: Running for 100000 steps
ETITLE: TS BOND ANGLE DIHED IMPRP ELECT VDW BOUNDARY MISC KINETIC TOTAL TEMP POTENTIAL TOTAL3 TEMPAVG PRESSURE GPRESSURE VOLUME PRESSAVG GPRESSAVG
ENERGY: 500000 0.8364 31.1644 11.0031 0.0000 -13691.9475 2298.8539 0.0000 0.0000 868.7967 -10481.2930 146.8587 -11350.0897 -10479.5745 146.8587 -103.0963 -52.4011 29369.8508 -103.0963 -52.4011
ENERGY: 600000 0.4722 34.1393 9.5524 0.0000 -13109.7415 2065.5570 0.0000 0.0000 1076.5140 -9923.5066 181.9706 -11000.0206 -9920.6323 179.6733 -495.7040 -521.8579 29351.8293 4.2090 4.3564
TCL: Running 100000 steps at 210 kelvin.
TCL: Setting parameter langevinTemp to 210
TCL: Running for 100000 steps
ETITLE: TS BOND ANGLE DIHED IMPRP ELECT VDW BOUNDARY MISC KINETIC TOTAL TEMP POTENTIAL TOTAL3 TEMPAVG PRESSURE GPRESSURE VOLUME PRESSAVG GPRESSAVG
ENERGY: 600000 0.4722 34.1393 9.5524 0.0000 -13109.7415 2065.5570 0.0000 0.0000 1075.9760 -9924.0446 181.8797 -11000.0206 -9921.8648 181.8797 -589.3076 -522.4365 29351.8293 -589.3076 -522.4365
ENERGY: 700000 0.9997 31.2539 12.0479 0.0000 -12610.3180 1968.1405 0.0000 0.0000 1289.0755 -9308.8006 217.9013 -10597.8760 -9305.6432 210.5418 524.8759 572.0286 28757.1307 3.9503 3.8062
TCL: Running 100000 steps at 240 kelvin.
TCL: Setting parameter langevinTemp to 240
TCL: Running for 100000 steps
ETITLE: TS BOND ANGLE DIHED IMPRP ELECT VDW BOUNDARY MISC KINETIC TOTAL TEMP POTENTIAL TOTAL3 TEMPAVG PRESSURE GPRESSURE VOLUME PRESSAVG GPRESSAVG
ENERGY: 700000 0.9997 31.2539 12.0479 0.0000 -12610.3180 1968.1405 0.0000 0.0000 1288.4285 -9309.4475 217.7920 -10597.8760 -9307.4383 217.7920 497.3826 572.9414 28757.1307 497.3826 572.9414
ENERGY: 800000 0.5739 37.1426 9.0370 0.0000 -11859.8794 1680.3625 0.0000 0.0000 1425.0750 -8707.6883 240.8903 -10132.7633 -8704.1060 240.2843 -357.2336 -286.4200 29320.3659 2.7908 2.9723
TCL: Running 100000 steps at 270 kelvin.
TCL: Setting parameter langevinTemp to 270
TCL: Running for 100000 steps
ETITLE: TS BOND ANGLE DIHED IMPRP ELECT VDW BOUNDARY MISC KINETIC TOTAL TEMP POTENTIAL TOTAL3 TEMPAVG PRESSURE GPRESSURE VOLUME PRESSAVG GPRESSAVG
ENERGY: 800000 0.5739 37.1426 9.0370 0.0000 -11859.8794 1680.3625 0.0000 0.0000 1424.3625 -8708.4008 240.7698 -10132.7633 -8705.9789 240.7698 -361.8004 -285.9167 29320.3659 -361.8004 -285.9167
ENERGY: 900000 2.4551 30.4185 12.0351 0.0000 -11291.8488 1542.1139 0.0000 0.0000 1596.8968 -8107.9293 269.9345 -9704.8261 -8104.6834 269.5774 -285.5051 -206.6657 30100.6395 2.2242 2.1245
TCL: Running 1000000 steps at 300 kelvin.
TCL: Setting parameter langevinTemp to 300
TCL: Running for 1000000 steps
ETITLE: TS BOND ANGLE DIHED IMPRP ELECT VDW BOUNDARY MISC KINETIC TOTAL TEMP POTENTIAL TOTAL3 TEMPAVG PRESSURE GPRESSURE VOLUME PRESSAVG GPRESSAVG
ENERGY: 900000 2.4551 30.4185 12.0351 0.0000 -11291.8488 1542.1139 0.0000 0.0000 1596.0918 -8108.7343 269.7984 -9704.8261 -8106.2241 269.7984 -283.7274 -207.1328 30100.6395 -283.7274 -207.1328
ENERGY: 1100000 2.8046 39.2910 8.9231 0.0000 -10625.9180 1407.9866 0.0000 0.0000 1787.6588 -7379.2539 302.1803 -9166.9127 -7375.8400 300.2020 -349.9434 -277.9142 31249.6124 2.9032 3.0665
ENERGY: 1300000 0.6795 36.0681 10.4061 0.0000 -10682.7869 1419.9941 0.0000 0.0000 1732.3794 -7483.2596 292.8361 -9215.6390 -7479.8227 299.2925 190.3525 298.6486 30265.7020 2.1555 2.0225
ENERGY: 1500000 0.6037 35.6856 11.1797 0.0000 -10741.6783 1456.3930 0.0000 0.0000 1774.1093 -7463.7072 299.8900 -9237.8164 -7460.5918 300.0536 249.8501 298.3021 30479.3010 3.1112 3.1454
ENERGY: 1700000 1.0930 34.2371 11.9231 0.0000 -10688.4000 1351.0955 0.0000 0.0000 1803.8828 -7486.1685 304.9228 -9290.0512 -7481.3959 300.3905 -606.7168 -597.8470 30671.5639 3.4095 3.4191
ENERGY: 1900000 0.4663 42.4619 10.0385 0.0000 -10743.8002 1384.0462 0.0000 0.0000 1797.5697 -7509.2176 303.8556 -9306.7873 -7506.1929 300.2029 -502.9722 -445.4003 30612.4631 2.1092 1.9466
TCL: Exiting due to exit command.
