Info: SIMULATION PARAMETERS:
Info: TIMESTEP               2
Info: NUMBER OF STEPS        0
Info: STEPS PER CYCLE        10
Info: PERIODIC CELL BASIS 1  34.207 0 0
Info: PERIODIC CELL BASIS 2  0 34.457 0
Info: PERIODIC CELL BASIS 3  0 0 36.199
Info: PERIODIC CELL CENTER   0 0 0
Info: WRAPPING WATERS AROUND PERIODIC BOUNDARIES ON OUTPUT.
Info: WRAPPING ALL CLUSTERS AROUND PERIODIC BOUNDARIES ON OUTPUT.
Info: FIRST LDB TIMESTEP     50
Info: LAST LDB TIMESTEP     -1
Info: HOM BACKGROUND SCALING 1
Info: PME BACKGROUND SCALING 1
Info: MIN ATOMS PER PATCH    40
Info: EMPTY PATCH LOAD       40 ATOMS
Info: INITIAL TEMPERATURE    300
Info: CENTER OF MASS MOVING INITIALLY? NO
Info: DIELECTRIC             1
Info: EXCLUDE                SCALED ONE-FOUR
Info: 1-4 ELECTROSTATICS SCALED BY 0.833333
Info: MODIFIED 1-4 VDW PARAMETERS WILL BE USED
Info: DCD FILENAME           mobley_6115639_equil.dcd
Info: DCD FREQUENCY          100000
Info: DCD FIRST STEP         100000
Info: DCD FILE WILL CONTAIN UNIT CELL DATA
Info: XST FILENAME           mobley_6115639_equil.xst
Info: XST FREQUENCY          100000
Info: NO VELOCITY DCD OUTPUT
Info: NO FORCE DCD OUTPUT
Info: OUTPUT FILENAME        mobley_6115639_equil
Info: BINARY OUTPUT FILES WILL BE USED
Info: RESTART FILENAME       mobley_6115639_equil.restart
Info: RESTART FREQUENCY      100000
Info: BINARY RESTART FILES WILL BE USED
Info: CUTOFF                 9
Info: PAIRLIST DISTANCE      11
Info: PAIRLIST SHRINK RATE   0.01
Info: PAIRLIST GROW RATE     0.01
Info: PAIRLIST TRIGGER       0.3
Info: PAIRLISTS PER CYCLE    2
Info: PAIRLISTS ENABLED
Info: MARGIN                 8
Info: HYDROGEN GROUP CUTOFF  2.5
Info: PATCH DIMENSION        21.5
Info: ENERGY OUTPUT STEPS    100000
Info: ENERGY EVALUATION STEPS    100000
Info: OUTPUT ENERGY PRECISION 4
Info: CROSSTERM ENERGY INCLUDED IN DIHEDRAL
Info: TIMING OUTPUT STEPS    1000000
Info: PRESSURE OUTPUT STEPS  100000
Info: LANGEVIN DYNAMICS ACTIVE
Info: LANGEVIN TEMPERATURE   30
Info: LANGEVIN USING BBK INTEGRATOR
Info: LANGEVIN DAMPING COEFFICIENT IS 1 INVERSE PS
Info: LANGEVIN DYNAMICS APPLIED TO HYDROGENS
Info: LANGEVIN PISTON PRESSURE CONTROL ACTIVE
Info:        TARGET PRESSURE IS 1.01325 BAR
Info:     OSCILLATION PERIOD IS 50 FS
Info:             DECAY TIME IS 25 FS
Info:     PISTON TEMPERATURE IS 300 K
Info:       PRESSURE CONTROL IS GROUP-BASED
Info:    INITIAL STRAIN RATE IS 0 0 0
Info:       CELL FLUCTUATION IS ISOTROPIC
Info: PARTICLE MESH EWALD (PME) ACTIVE
Info: PME TOLERANCE               1e-06
Info: PME EWALD COEFFICIENT       0.348832
Info: PME INTERPOLATION ORDER     4
Info: PME GRID DIMENSIONS         36 36 40
Info: PME MAXIMUM GRID SPACING    1
Info: FULL ELECTROSTATIC EVALUATION FREQUENCY      2
Info: USING VERLET I (r-RESPA) MTS SCHEME.
Info: C1 SPLITTING OF LONG RANGE ELECTROSTATICS
Info: PLACING ATOMS IN PATCHES BY HYDROGEN GROUPS
Info: RIGID BONDS TO HYDROGEN : ALL
Info:         ERROR TOLERANCE : 1e-08
Info:          MAX ITERATIONS : 100
Info: RIGID WATER USING SETTLE ALGORITHM
Info: RANDOM NUMBER SEED     1743248798
Info: USE HYDROGEN BONDS?    NO
Info: Using AMBER format force field!
Info: AMBER PARM FILE        mobley_6115639.prmtop
Info: COORDINATE PDB         mobley_6115639.pdb
Info: Exclusions will be read from PARM file!
Info: SCNB (VDW SCALING)     2
Info: USING ARITHMETIC MEAN TO COMBINE L-J SIGMA PARAMETERS
Info: BINARY COORDINATES     mobley_6115639_min.coor
Info: SUMMARY OF PARAMETERS:
Info: 6 BONDS
Info: 5 ANGLES
Info: 5 DIHEDRAL
Info: 0 IMPROPER
Info: 0 CROSSTERM
Info: 0 VDW
Info: 28 VDW_PAIRS
Info: 0 NBTHOLE_PAIRS
Info: STRUCTURE SUMMARY:
Info: 2918 ATOMS
Info: 2917 BONDS
Info: 27 ANGLES
Info: 27 DIHEDRALS
Info: 0 IMPROPERS
Info: 0 CROSSTERMS
Info: 2962 EXCLUSIONS
Info: 2910 RIGID BONDS
Info: 5844 DEGREES OF FREEDOM
Info: 975 HYDROGEN GROUPS
Info: 4 ATOMS IN LARGEST HYDROGEN GROUP
Info: 975 MIGRATION GROUPS
Info: 4 ATOMS IN LARGEST MIGRATION GROUP
Info: TOTAL MASS = 17561.5 amu
Info: TOTAL CHARGE = 0.000599861 e
Info: MASS DENSITY = 0.683491 g/cm^3
Info: ATOM DENSITY = 0.0683906 atoms/A^3
Info: ADDED 0 IMPLICIT EXCLUSIONS
Info: NONBONDED TABLE R-SQUARED SPACING: 0.0625
Info: NONBONDED TABLE SIZE: 705 POINTS
Info: REMOVING COM VELOCITY 0.0416997 0.0557169 0.029393
TCL: Running for 100000 steps
ETITLE: TS BOND ANGLE DIHED IMPRP ELECT VDW BOUNDARY MISC KINETIC TOTAL TEMP POTENTIAL TOTAL3 TEMPAVG PRESSURE GPRESSURE VOLUME PRESSAVG GPRESSAVG
ENERGY: 0 0.0946 0.4252 9.7934 0.0000 -13561.7349 2363.3471 0.0000 0.0000 1707.5469 -9480.5277 294.0714 -11188.0745 -9480.1944 294.0714 356.6320 389.9282 42666.6970 356.6320 389.9282
ENERGY: 100000 0.4429 1.1552 10.3165 0.0000 -14146.3339 2445.9057 0.0000 0.0000 173.6143 -11514.8993 29.8996 -11688.5135 -11514.3400 30.9334 -104.3865 -46.6450 28509.0157 2.7124 2.7573
TCL: Running 100000 steps at 60 kelvin.
TCL: Setting parameter langevinTemp to 60
TCL: Running for 100000 steps
ETITLE: TS BOND ANGLE DIHED IMPRP ELECT VDW BOUNDARY MISC KINETIC TOTAL TEMP POTENTIAL TOTAL3 TEMPAVG PRESSURE GPRESSURE VOLUME PRESSAVG GPRESSAVG
ENERGY: 100000 0.4429 1.1552 10.3165 0.0000 -14146.3339 2445.9057 0.0000 0.0000 173.5276 -11514.9860 29.8847 -11688.5135 -11514.7122 29.8847 -85.5549 -46.7368 28509.0157 -85.5549 -46.7368
ENERGY: 200000 0.2277 1.5429 9.8876 0.0000 -13999.9875 2387.0642 0.0000 0.0000 359.2824 -11241.9828 61.8751 -11601.2651 -11240.7696 60.0004 -428.3571 -354.9242 28786.0862 3.1127 3.1162
TCL: Running 100000 steps at 90 kelvin.
TCL: Setting parameter langevinTemp to 90
TCL: Running for 100000 steps
ETITLE: TS BOND ANGLE DIHED IMPRP ELECT VDW BOUNDARY MISC KINETIC TOTAL TEMP POTENTIAL TOTAL3 TEMPAVG PRESSURE GPRESSURE VOLUME PRESSAVG GPRESSAVG
ENERGY: 200000 0.2277 1.5429 9.8876 0.0000 -13999.9875 2387.0642 0.0000 0.0000 359.1054 -11242.1597 61.8447 -11601.2651 -11241.2977 61.8447 -407.7146 -354.9397 28786.0862 -407.7146 -354.9397
ENERGY: 300000 0.6703 2.2820 9.8871 0.0000 -13825.9602 2305.5048 0.0000 0.0000 516.7642 -10990.8517 88.9964 -11507.6160 -10989.5430 90.0825 -750.4100 -735.4310 28821.4829 4.2760 4.2697
TCL: Running 100000 steps at 120 kelvin.
TCL: Setting parameter langevinTemp to 120
TCL: Running for 100000 steps
ETITLE: TS BOND ANGLE DIHED IMPRP ELECT VDW BOUNDARY MISC KINETIC TOTAL TEMP POTENTIAL TOTAL3 TEMPAVG PRESSURE GPRESSURE VOLUME PRESSAVG GPRESSAVG
ENERGY: 300000 0.6703 2.2820 9.8871 0.0000 -13825.9602 2305.5048 0.0000 0.0000 516.5038 -10991.1122 88.9516 -11507.6160 -10989.9266 88.9516 -776.9940 -735.6411 28821.4829 -776.9940 -735.6411
ENERGY: 400000 1.8108 2.8953 10.2557 0.0000 -13808.4515 2379.3689 0.0000 0.0000 700.5631 -10713.5577 120.6500 -11414.1208 -10711.2963 119.9373 526.2119 519.4748 28557.0838 3.8874 3.9392
TCL: Running 100000 steps at 150 kelvin.
TCL: Setting parameter langevinTemp to 150
TCL: Running for 100000 steps
ETITLE: TS BOND ANGLE DIHED IMPRP ELECT VDW BOUNDARY MISC KINETIC TOTAL TEMP POTENTIAL TOTAL3 TEMPAVG PRESSURE GPRESSURE VOLUME PRESSAVG GPRESSAVG
ENERGY: 400000 1.8108 2.8953 10.2557 0.0000 -13808.4515 2379.3689 0.0000 0.0000 700.2346 -10713.8862 120.5935 -11414.1208 -10712.4627 120.5935 485.4479 520.9776 28557.0838 485.4479 520.9776
ENERGY: 500000 0.7902 4.6072 11.3702 0.0000 -13389.3313 2162.0744 0.0000 0.0000 884.4516 -10326.0376 152.3191 -11210.4892 -10323.3734 150.2755 -767.8461 -736.1896 29133.2890 3.2236 3.2518
TCL: Running 100000 steps at 180 kelvin.
TCL: Setting parameter langevinTemp to 180
TCL: Running for 100000 steps
ETITLE: TS BOND ANGLE DIHED IMPRP ELECT VDW BOUNDARY MISC KINETIC TOTAL TEMP POTENTIAL TOTAL3 TEMPAVG PRESSURE GPRESSURE VOLUME PRESSAVG GPRESSAVG
ENERGY: 500000 0.7902 4.6072 11.3702 0.0000 -13389.3313 2162.0744 0.0000 0.0000 884.0186 -10326.4706 152.2445 -11210.4892 -10324.6515 152.2445 -781.8321 -735.9937 29133.2890 -781.8321 -735.9937
ENERGY: 600000 1.3801 5.9761 10.1743 0.0000 -13050.4799 2104.7144 0.0000 0.0000 1058.7830 -9869.4520 182.3422 -10928.2350 -9866.8677 179.9617 289.5100 323.4626 28414.5051 2.8206 2.8291
TCL: Running 100000 steps at 210 kelvin.
TCL: Setting parameter langevinTemp to 210
TCL: Running for 100000 steps
ETITLE: TS BOND ANGLE DIHED IMPRP ELECT VDW BOUNDARY MISC KINETIC TOTAL TEMP POTENTIAL TOTAL3 TEMPAVG PRESSURE GPRESSURE VOLUME PRESSAVG GPRESSAVG
ENERGY: 600000 1.3801 5.9761 10.1743 0.0000 -13050.4799 2104.7144 0.0000 0.0000 1058.2735 -9869.9616 182.2544 -10928.2350 -9867.5310 182.2544 274.2168 322.7629 28414.5051 274.2168 322.7629
ENERGY: 700000 1.0908 5.8390 9.8894 0.0000 -12436.7745 1906.1424 0.0000 0.0000 1215.1056 -9298.7074 209.2638 -10513.8130 -9295.6867 209.9988 -13.9942 32.5273 28563.3228 4.0978 3.8970
TCL: Running 100000 steps at 240 kelvin.
TCL: Setting parameter langevinTemp to 240
TCL: Running for 100000 steps
ETITLE: TS BOND ANGLE DIHED IMPRP ELECT VDW BOUNDARY MISC KINETIC TOTAL TEMP POTENTIAL TOTAL3 TEMPAVG PRESSURE GPRESSURE VOLUME PRESSAVG GPRESSAVG
ENERGY: 700000 1.0908 5.8390 9.8894 0.0000 -12436.7745 1906.1424 0.0000 0.0000 1214.4922 -9299.3208 209.1582 -10513.8130 -9297.5324 209.1582 -34.2576 32.5034 28563.3228 -34.2576 32.5034
ENERGY: 800000 3.3175 3.7943 11.4188 0.0000 -11623.2245 1657.4712 0.0000 0.0000 1405.6111 -8541.6117 242.0724 -9947.2227 -8538.5769 239.9866 -102.0403 12.4343 28718.8651 3.9629 4.1243
TCL: Running 100000 steps at 270 kelvin.
TCL: Setting parameter langevinTemp to 270
TCL: Running for 100000 steps
ETITLE: TS BOND ANGLE DIHED IMPRP ELECT VDW BOUNDARY MISC KINETIC TOTAL TEMP POTENTIAL TOTAL3 TEMPAVG PRESSURE GPRESSURE VOLUME PRESSAVG GPRESSAVG
ENERGY: 800000 3.3175 3.7943 11.4188 0.0000 -11623.2245 1657.4712 0.0000 0.0000 1404.9516 -8542.2711 241.9589 -9947.2227 -8540.3243 241.9589 -70.0120 11.9609 28718.8651 -70.0120 11.9609
ENERGY: 900000 3.9225 6.7736 10.1767 0.0000 -11027.6568 1407.5855 0.0000 0.0000 1574.8963 -8024.3022 271.2265 -9599.1985 -8018.6883 269.9560 -1024.0621 -946.7568 29449.0549 2.2485 2.1405
TCL: Running 1000000 steps at 300 kelvin.
TCL: Setting parameter langevinTemp to 300
TCL: Running for 1000000 steps
ETITLE: TS BOND ANGLE DIHED IMPRP ELECT VDW BOUNDARY MISC KINETIC TOTAL TEMP POTENTIAL TOTAL3 TEMPAVG PRESSURE GPRESSURE VOLUME PRESSAVG GPRESSAVG
ENERGY: 900000 3.9225 6.7736 10.1767 0.0000 -11027.6568 1407.5855 0.0000 0.0000 1574.1071 -8025.0914 271.0906 -9599.1985 -8022.5148 271.0906 -1035.7975 -945.5245 29449.0549 -1035.7975 -945.5245
ENERGY: 1100000 2.2760 7.7149 10.0763 0.0000 -10517.2205 1285.4809 0.0000 0.0000 1742.9186 -7468.7537 300.1631 -9211.6724 -7465.1636 300.0075 -1044.9184 -966.1034 30027.3860 2.8732 2.7683
ENERGY: 1300000 1.7696 7.7872 10.1732 0.0000 -10805.4673 1456.7724 0.0000 0.0000 1770.1813 -7558.7837 304.8582 -9328.9649 -7554.4290 299.6847 -49.5385 14.9944 30054.7304 2.5254 2.3535
ENERGY: 1500000 2.3543 5.7833 11.9128 0.0000 -10617.8565 1367.4360 0.0000 0.0000 1735.2480 -7495.1220 298.8421 -9230.3700 -7491.8057 299.2470 -645.3943 -542.3347 30373.5211 3.1367 3.0595
ENERGY: 1700000 2.8462 9.4778 10.5390 0.0000 -10510.6866 1341.6198 0.0000 0.0000 1747.8843 -7398.3195 301.0183 -9146.2038 -7397.8950 301.1839 -628.7800 -538.3796 30182.0914 2.1339 2.1982
ENERGY: 1900000 1.7414 4.3802 10.9268 0.0000 -10658.3617 1451.4489 0.0000 0.0000 1638.4113 -7551.4532 282.1650 -9189.8644 -7546.1839 300.0853 170.4508 277.5800 29924.9232 2.9914 2.8894
TCL: Exiting due to exit command.
