Info: SIMULATION PARAMETERS:
Info: TIMESTEP               2
Info: NUMBER OF STEPS        0
Info: STEPS PER CYCLE        10
Info: PERIODIC CELL BASIS 1  33.998 0 0
Info: PERIODIC CELL BASIS 2  0 35.779 0
Info: PERIODIC CELL BASIS 3  0 0 36.199
Info: PERIODIC CELL CENTER   0 0 0
Info: WRAPPING WATERS AROUND PERIODIC BOUNDARIES ON OUTPUT.
Info: WRAPPING ALL CLUSTERS AROUND PERIODIC BOUNDARIES ON OUTPUT.
Info: FIRST LDB TIMESTEP     50
Info: LAST LDB TIMESTEP     -1
Info: HOM BACKGROUND SCALING 1
Info: PME BACKGROUND SCALING 1
Info: MIN ATOMS PER PATCH    40
Info: EMPTY PATCH LOAD       40 ATOMS
Info: INITIAL TEMPERATURE    300
Info: CENTER OF MASS MOVING INITIALLY? NO
Info: DIELECTRIC             1
Info: EXCLUDE                SCALED ONE-FOUR
Info: 1-4 ELECTROSTATICS SCALED BY 0.833333
Info: MODIFIED 1-4 VDW PARAMETERS WILL BE USED
Info: DCD FILENAME           mobley_2864987_equil.dcd
Info: DCD FREQUENCY          100000
Info: DCD FIRST STEP         100000
Info: DCD FILE WILL CONTAIN UNIT CELL DATA
Info: XST FILENAME           mobley_2864987_equil.xst
Info: XST FREQUENCY          100000
Info: NO VELOCITY DCD OUTPUT
Info: NO FORCE DCD OUTPUT
Info: OUTPUT FILENAME        mobley_2864987_equil
Info: BINARY OUTPUT FILES WILL BE USED
Info: RESTART FILENAME       mobley_2864987_equil.restart
Info: RESTART FREQUENCY      100000
Info: BINARY RESTART FILES WILL BE USED
Info: CUTOFF                 9
Info: PAIRLIST DISTANCE      11
Info: PAIRLIST SHRINK RATE   0.01
Info: PAIRLIST GROW RATE     0.01
Info: PAIRLIST TRIGGER       0.3
Info: PAIRLISTS PER CYCLE    2
Info: PAIRLISTS ENABLED
Info: MARGIN                 8
Info: HYDROGEN GROUP CUTOFF  2.5
Info: PATCH DIMENSION        21.5
Info: ENERGY OUTPUT STEPS    100000
Info: ENERGY EVALUATION STEPS    100000
Info: OUTPUT ENERGY PRECISION 4
Info: CROSSTERM ENERGY INCLUDED IN DIHEDRAL
Info: TIMING OUTPUT STEPS    1000000
Info: PRESSURE OUTPUT STEPS  100000
Info: LANGEVIN DYNAMICS ACTIVE
Info: LANGEVIN TEMPERATURE   30
Info: LANGEVIN USING BBK INTEGRATOR
Info: LANGEVIN DAMPING COEFFICIENT IS 1 INVERSE PS
Info: LANGEVIN DYNAMICS APPLIED TO HYDROGENS
Info: LANGEVIN PISTON PRESSURE CONTROL ACTIVE
Info:        TARGET PRESSURE IS 1.01325 BAR
Info:     OSCILLATION PERIOD IS 50 FS
Info:             DECAY TIME IS 25 FS
Info:     PISTON TEMPERATURE IS 300 K
Info:       PRESSURE CONTROL IS GROUP-BASED
Info:    INITIAL STRAIN RATE IS 0 0 0
Info:       CELL FLUCTUATION IS ISOTROPIC
Info: PARTICLE MESH EWALD (PME) ACTIVE
Info: PME TOLERANCE               1e-06
Info: PME EWALD COEFFICIENT       0.348832
Info: PME INTERPOLATION ORDER     4
Info: PME GRID DIMENSIONS         36 36 40
Info: PME MAXIMUM GRID SPACING    1
Info: FULL ELECTROSTATIC EVALUATION FREQUENCY      2
Info: USING VERLET I (r-RESPA) MTS SCHEME.
Info: C1 SPLITTING OF LONG RANGE ELECTROSTATICS
Info: PLACING ATOMS IN PATCHES BY HYDROGEN GROUPS
Info: RIGID BONDS TO HYDROGEN : ALL
Info:         ERROR TOLERANCE : 1e-08
Info:          MAX ITERATIONS : 100
Info: RIGID WATER USING SETTLE ALGORITHM
Info: RANDOM NUMBER SEED     1743241578
Info: USE HYDROGEN BONDS?    NO
Info: Using AMBER format force field!
Info: AMBER PARM FILE        mobley_2864987.prmtop
Info: COORDINATE PDB         mobley_2864987.pdb
Info: Exclusions will be read from PARM file!
Info: SCNB (VDW SCALING)     2
Info: USING ARITHMETIC MEAN TO COMBINE L-J SIGMA PARAMETERS
Info: BINARY COORDINATES     mobley_2864987_min.coor
Info: SUMMARY OF PARAMETERS:
Info: 7 BONDS
Info: 7 ANGLES
Info:   7 HARMONIC
Info:   0 COSINE-BASED
Info: 9 DIHEDRAL
Info: 0 IMPROPER
Info: 0 CROSSTERM
Info: 0 VDW
Info: 21 VDW_PAIRS
Info: 0 NBTHOLE_PAIRS
Info: STRUCTURE SUMMARY:
Info: 2964 ATOMS
Info: 2963 BONDS
Info: 31 ANGLES
Info: 50 DIHEDRALS
Info: 0 IMPROPERS
Info: 0 CROSSTERMS
Info: 3033 EXCLUSIONS
Info: 2958 RIGID BONDS
Info: 5934 DEGREES OF FREEDOM
Info: 988 HYDROGEN GROUPS
Info: 4 ATOMS IN LARGEST HYDROGEN GROUP
Info: 988 MIGRATION GROUPS
Info: 4 ATOMS IN LARGEST MIGRATION GROUP
Info: TOTAL MASS = 17779.9 amu
Info: TOTAL CHARGE = -4.47035e-08 e
Info: MASS DENSITY = 0.670516 g/cm^3
Info: ATOM DENSITY = 0.0673132 atoms/A^3
Info: ADDED 0 IMPLICIT EXCLUSIONS
Info: NONBONDED TABLE R-SQUARED SPACING: 0.0625
Info: NONBONDED TABLE SIZE: 705 POINTS
Info: REMOVING COM VELOCITY 0.00833717 0.0623506 -0.0983076
TCL: Running for 100000 steps
ETITLE: TS BOND ANGLE DIHED IMPRP ELECT VDW BOUNDARY MISC KINETIC TOTAL TEMP POTENTIAL TOTAL3 TEMPAVG PRESSURE GPRESSURE VOLUME PRESSAVG GPRESSAVG
ENERGY: 0 0.0652 0.3454 2.5361 0.0000 -13669.1849 2413.9826 0.0000 0.0000 1764.1509 -9488.1046 299.2117 -11252.2555 -9487.7633 299.2117 502.1584 541.3769 44032.9864 502.1584 541.3769
ENERGY: 100000 0.3479 1.2217 2.6769 0.0000 -14387.1518 2538.3841 0.0000 0.0000 180.1224 -11664.3987 30.5500 -11844.5211 -11663.9788 30.9084 267.4630 336.4267 28512.8753 3.6499 3.6937
TCL: Running 100000 steps at 60 kelvin.
TCL: Setting parameter langevinTemp to 60
TCL: Running for 100000 steps
ETITLE: TS BOND ANGLE DIHED IMPRP ELECT VDW BOUNDARY MISC KINETIC TOTAL TEMP POTENTIAL TOTAL3 TEMPAVG PRESSURE GPRESSURE VOLUME PRESSAVG GPRESSAVG
ENERGY: 100000 0.3479 1.2217 2.6769 0.0000 -14387.1518 2538.3841 0.0000 0.0000 180.0326 -11664.4885 30.5347 -11844.5211 -11664.1569 30.5347 282.2300 336.4291 28512.8753 282.2300 336.4291
ENERGY: 200000 0.2098 2.3590 3.2352 0.0000 -14254.9282 2497.1833 0.0000 0.0000 351.3328 -11400.6081 59.5884 -11751.9409 -11399.6915 59.9521 277.9775 361.6154 28623.8262 3.8796 3.8811
TCL: Running 100000 steps at 90 kelvin.
TCL: Setting parameter langevinTemp to 90
TCL: Running for 100000 steps
ETITLE: TS BOND ANGLE DIHED IMPRP ELECT VDW BOUNDARY MISC KINETIC TOTAL TEMP POTENTIAL TOTAL3 TEMPAVG PRESSURE GPRESSURE VOLUME PRESSAVG GPRESSAVG
ENERGY: 200000 0.2098 2.3590 3.2352 0.0000 -14254.9282 2497.1833 0.0000 0.0000 351.1529 -11400.7880 59.5579 -11751.9409 -11399.9659 59.5579 314.9141 361.7187 28623.8262 314.9141 361.7187
ENERGY: 300000 0.2035 2.6251 2.9128 0.0000 -14139.2063 2483.3205 0.0000 0.0000 518.0747 -11132.0698 87.8689 -11650.1445 -11130.9757 90.0208 541.2278 606.3778 28624.5538 4.7036 4.6690
TCL: Running 100000 steps at 120 kelvin.
TCL: Setting parameter langevinTemp to 120
TCL: Running for 100000 steps
ETITLE: TS BOND ANGLE DIHED IMPRP ELECT VDW BOUNDARY MISC KINETIC TOTAL TEMP POTENTIAL TOTAL3 TEMPAVG PRESSURE GPRESSURE VOLUME PRESSAVG GPRESSAVG
ENERGY: 300000 0.2035 2.6251 2.9128 0.0000 -14139.2063 2483.3205 0.0000 0.0000 517.8046 -11132.3399 87.8231 -11650.1445 -11131.3018 87.8231 537.9425 606.4554 28624.5538 537.9425 606.4554
ENERGY: 400000 0.7846 2.8368 3.4779 0.0000 -13999.4469 2486.7682 0.0000 0.0000 694.3400 -10811.2393 117.7647 -11505.5794 -10810.1007 120.0240 1156.4740 1232.9502 28505.5343 4.7039 4.7056
TCL: Running 100000 steps at 150 kelvin.
TCL: Setting parameter langevinTemp to 150
TCL: Running for 100000 steps
ETITLE: TS BOND ANGLE DIHED IMPRP ELECT VDW BOUNDARY MISC KINETIC TOTAL TEMP POTENTIAL TOTAL3 TEMPAVG PRESSURE GPRESSURE VOLUME PRESSAVG GPRESSAVG
ENERGY: 400000 0.7846 2.8368 3.4779 0.0000 -13999.4469 2486.7682 0.0000 0.0000 693.9890 -10811.5904 117.7051 -11505.5794 -10810.5259 117.7051 1178.5370 1233.0604 28505.5343 1178.5370 1233.0604
ENERGY: 500000 0.1495 3.4971 3.2049 0.0000 -13609.6206 2249.8476 0.0000 0.0000 885.4056 -10467.5159 150.1707 -11352.9214 -10465.5189 150.1413 -85.1354 -60.9324 28675.6099 3.1010 3.1484
TCL: Running 100000 steps at 180 kelvin.
TCL: Setting parameter langevinTemp to 180
TCL: Running for 100000 steps
ETITLE: TS BOND ANGLE DIHED IMPRP ELECT VDW BOUNDARY MISC KINETIC TOTAL TEMP POTENTIAL TOTAL3 TEMPAVG PRESSURE GPRESSURE VOLUME PRESSAVG GPRESSAVG
ENERGY: 500000 0.1495 3.4971 3.2049 0.0000 -13609.6206 2249.8476 0.0000 0.0000 884.9702 -10467.9513 150.0968 -11352.9214 -10465.8511 150.0968 -111.7685 -62.8755 28675.6099 -111.7685 -62.8755
ENERGY: 600000 2.0337 2.6277 3.3207 0.0000 -13059.1041 2057.4031 0.0000 0.0000 1075.0521 -9918.6669 182.3360 -10993.7190 -9917.4544 179.5395 -442.9404 -345.0003 28979.9068 5.2433 5.2979
TCL: Running 100000 steps at 210 kelvin.
TCL: Setting parameter langevinTemp to 210
TCL: Running for 100000 steps
ETITLE: TS BOND ANGLE DIHED IMPRP ELECT VDW BOUNDARY MISC KINETIC TOTAL TEMP POTENTIAL TOTAL3 TEMPAVG PRESSURE GPRESSURE VOLUME PRESSAVG GPRESSAVG
ENERGY: 600000 2.0337 2.6277 3.3207 0.0000 -13059.1041 2057.4031 0.0000 0.0000 1074.4987 -9919.2203 182.2421 -10993.7190 -9916.7922 182.2421 -403.2440 -346.7161 28979.9068 -403.2440 -346.7161
ENERGY: 700000 1.4509 5.0530 2.8906 0.0000 -12487.5787 1916.7024 0.0000 0.0000 1223.8047 -9337.6772 207.5654 -10561.4819 -9335.1367 209.5690 34.4613 117.5294 29007.5159 3.8061 3.8720
TCL: Running 100000 steps at 240 kelvin.
TCL: Setting parameter langevinTemp to 240
TCL: Running for 100000 steps
ETITLE: TS BOND ANGLE DIHED IMPRP ELECT VDW BOUNDARY MISC KINETIC TOTAL TEMP POTENTIAL TOTAL3 TEMPAVG PRESSURE GPRESSURE VOLUME PRESSAVG GPRESSAVG
ENERGY: 700000 1.4509 5.0530 2.8906 0.0000 -12487.5787 1916.7024 0.0000 0.0000 1223.1688 -9338.3132 207.4575 -10561.4819 -9336.0785 207.4575 32.2860 114.7395 29007.5159 32.2860 114.7395
ENERGY: 800000 1.2005 6.9249 4.9156 0.0000 -11888.2741 1748.3075 0.0000 0.0000 1426.7891 -8700.1363 241.9929 -10126.9255 -8698.4251 240.1893 292.0408 391.0547 29029.5246 2.8719 2.7731
TCL: Running 100000 steps at 270 kelvin.
TCL: Setting parameter langevinTemp to 270
TCL: Running for 100000 steps
ETITLE: TS BOND ANGLE DIHED IMPRP ELECT VDW BOUNDARY MISC KINETIC TOTAL TEMP POTENTIAL TOTAL3 TEMPAVG PRESSURE GPRESSURE VOLUME PRESSAVG GPRESSAVG
ENERGY: 800000 1.2005 6.9249 4.9156 0.0000 -11888.2741 1748.3075 0.0000 0.0000 1426.0781 -8700.8473 241.8723 -10126.9255 -8698.2257 241.8723 319.6229 389.1312 29029.5246 319.6229 389.1312
ENERGY: 900000 2.1755 6.4934 4.7052 0.0000 -11310.3597 1637.5896 0.0000 0.0000 1592.7137 -8066.6824 270.1348 -9659.3960 -8062.9439 269.9061 379.5337 492.2166 29974.4623 4.9370 4.7902
TCL: Running 1000000 steps at 300 kelvin.
TCL: Setting parameter langevinTemp to 300
TCL: Running for 1000000 steps
ETITLE: TS BOND ANGLE DIHED IMPRP ELECT VDW BOUNDARY MISC KINETIC TOTAL TEMP POTENTIAL TOTAL3 TEMPAVG PRESSURE GPRESSURE VOLUME PRESSAVG GPRESSAVG
ENERGY: 900000 2.1755 6.4934 4.7052 0.0000 -11310.3597 1637.5896 0.0000 0.0000 1591.9024 -8067.4936 269.9972 -9659.3960 -8064.7835 269.9972 400.7432 493.5415 29974.4623 400.7432 493.5415
ENERGY: 1100000 1.1594 6.9007 3.6064 0.0000 -10693.8573 1434.1372 0.0000 0.0000 1667.6412 -7580.4125 282.8430 -9248.0537 -7574.9768 300.1706 -203.0536 -48.3906 30415.0276 2.4614 2.4493
ENERGY: 1300000 0.1647 13.3004 3.6393 0.0000 -10547.8489 1304.9867 0.0000 0.0000 1774.8940 -7450.8640 301.0338 -9225.7579 -7445.3217 300.0149 -1066.5705 -986.0257 31137.5048 3.0168 2.9965
ENERGY: 1500000 1.0438 9.9704 4.3068 0.0000 -10765.3946 1508.3600 0.0000 0.0000 1762.3865 -7479.3270 298.9124 -9241.7135 -7477.1787 300.4475 267.8896 374.0690 30761.1170 2.9882 3.1857
ENERGY: 1700000 2.0712 12.8486 5.0337 0.0000 -10798.9391 1480.2761 0.0000 0.0000 1747.1232 -7551.5862 296.3237 -9298.7095 -7549.7353 300.0331 202.8349 279.6049 30791.7424 3.8179 3.8912
ENERGY: 1900000 0.8388 12.8823 4.5465 0.0000 -10732.2655 1437.1168 0.0000 0.0000 1717.7074 -7559.1738 291.3346 -9276.8812 -7554.8830 300.1070 -19.5674 81.9806 30134.7978 4.4525 4.5362
TCL: Exiting due to exit command.
