Info: SIMULATION PARAMETERS:
Info: TIMESTEP               2
Info: NUMBER OF STEPS        0
Info: STEPS PER CYCLE        10
Info: PERIODIC CELL BASIS 1  34.986 0 0
Info: PERIODIC CELL BASIS 2  0 33.404 0
Info: PERIODIC CELL BASIS 3  0 0 37.195
Info: PERIODIC CELL CENTER   0 0 0
Info: WRAPPING WATERS AROUND PERIODIC BOUNDARIES ON OUTPUT.
Info: WRAPPING ALL CLUSTERS AROUND PERIODIC BOUNDARIES ON OUTPUT.
Info: FIRST LDB TIMESTEP     50
Info: LAST LDB TIMESTEP     -1
Info: HOM BACKGROUND SCALING 1
Info: PME BACKGROUND SCALING 1
Info: MIN ATOMS PER PATCH    40
Info: EMPTY PATCH LOAD       40 ATOMS
Info: INITIAL TEMPERATURE    300
Info: CENTER OF MASS MOVING INITIALLY? NO
Info: DIELECTRIC             1
Info: EXCLUDE                SCALED ONE-FOUR
Info: 1-4 ELECTROSTATICS SCALED BY 0.833333
Info: MODIFIED 1-4 VDW PARAMETERS WILL BE USED
Info: DCD FILENAME           mobley_20524_equil.dcd
Info: DCD FREQUENCY          100000
Info: DCD FIRST STEP         100000
Info: DCD FILE WILL CONTAIN UNIT CELL DATA
Info: XST FILENAME           mobley_20524_equil.xst
Info: XST FREQUENCY          100000
Info: NO VELOCITY DCD OUTPUT
Info: NO FORCE DCD OUTPUT
Info: OUTPUT FILENAME        mobley_20524_equil
Info: BINARY OUTPUT FILES WILL BE USED
Info: RESTART FILENAME       mobley_20524_equil.restart
Info: RESTART FREQUENCY      100000
Info: BINARY RESTART FILES WILL BE USED
Info: CUTOFF                 9
Info: PAIRLIST DISTANCE      11
Info: PAIRLIST SHRINK RATE   0.01
Info: PAIRLIST GROW RATE     0.01
Info: PAIRLIST TRIGGER       0.3
Info: PAIRLISTS PER CYCLE    2
Info: PAIRLISTS ENABLED
Info: MARGIN                 8
Info: HYDROGEN GROUP CUTOFF  2.5
Info: PATCH DIMENSION        21.5
Info: ENERGY OUTPUT STEPS    100000
Info: ENERGY EVALUATION STEPS    100000
Info: OUTPUT ENERGY PRECISION 4
Info: CROSSTERM ENERGY INCLUDED IN DIHEDRAL
Info: TIMING OUTPUT STEPS    1000000
Info: PRESSURE OUTPUT STEPS  100000
Info: LANGEVIN DYNAMICS ACTIVE
Info: LANGEVIN TEMPERATURE   30
Info: LANGEVIN USING BBK INTEGRATOR
Info: LANGEVIN DAMPING COEFFICIENT IS 1 INVERSE PS
Info: LANGEVIN DYNAMICS APPLIED TO HYDROGENS
Info: LANGEVIN PISTON PRESSURE CONTROL ACTIVE
Info:        TARGET PRESSURE IS 1.01325 BAR
Info:     OSCILLATION PERIOD IS 50 FS
Info:             DECAY TIME IS 25 FS
Info:     PISTON TEMPERATURE IS 300 K
Info:       PRESSURE CONTROL IS GROUP-BASED
Info:    INITIAL STRAIN RATE IS 0 0 0
Info:       CELL FLUCTUATION IS ISOTROPIC
Info: PARTICLE MESH EWALD (PME) ACTIVE
Info: PME TOLERANCE               1e-06
Info: PME EWALD COEFFICIENT       0.348832
Info: PME INTERPOLATION ORDER     4
Info: PME GRID DIMENSIONS         36 36 40
Info: PME MAXIMUM GRID SPACING    1
Info: FULL ELECTROSTATIC EVALUATION FREQUENCY      2
Info: USING VERLET I (r-RESPA) MTS SCHEME.
Info: C1 SPLITTING OF LONG RANGE ELECTROSTATICS
Info: PLACING ATOMS IN PATCHES BY HYDROGEN GROUPS
Info: RIGID BONDS TO HYDROGEN : ALL
Info:         ERROR TOLERANCE : 1e-08
Info:          MAX ITERATIONS : 100
Info: RIGID WATER USING SETTLE ALGORITHM
Info: RANDOM NUMBER SEED     1743208471
Info: USE HYDROGEN BONDS?    NO
Info: Using AMBER format force field!
Info: AMBER PARM FILE        mobley_20524.prmtop
Info: COORDINATE PDB         mobley_20524.pdb
Info: Exclusions will be read from PARM file!
Info: SCNB (VDW SCALING)     2
Info: USING ARITHMETIC MEAN TO COMBINE L-J SIGMA PARAMETERS
Info: BINARY COORDINATES     mobley_20524_min.coor
Info: SUMMARY OF PARAMETERS:
Info: 6 BONDS
Info: 4 ANGLES
Info:   4 HARMONIC
Info:   0 COSINE-BASED
Info: 3 DIHEDRAL
Info: 0 IMPROPER
Info: 0 CROSSTERM
Info: 0 VDW
Info: 15 VDW_PAIRS
Info: 0 NBTHOLE_PAIRS
Info: STRUCTURE SUMMARY:
Info: 2938 ATOMS
Info: 2938 BONDS
Info: 19 ANGLES
Info: 32 DIHEDRALS
Info: 0 IMPROPERS
Info: 0 CROSSTERMS
Info: 2980 EXCLUSIONS
Info: 2931 RIGID BONDS
Info: 5883 DEGREES OF FREEDOM
Info: 982 HYDROGEN GROUPS
Info: 3 ATOMS IN LARGEST HYDROGEN GROUP
Info: 982 MIGRATION GROUPS
Info: 3 ATOMS IN LARGEST MIGRATION GROUP
Info: TOTAL MASS = 17659.7 amu
Info: TOTAL CHARGE = -1.49012e-08 e
Info: MASS DENSITY = 0.67463 g/cm^3
Info: ATOM DENSITY = 0.0675888 atoms/A^3
Info: ADDED 0 IMPLICIT EXCLUSIONS
Info: NONBONDED TABLE R-SQUARED SPACING: 0.0625
Info: NONBONDED TABLE SIZE: 705 POINTS
Info: REMOVING COM VELOCITY 0.0750054 -0.0484106 -0.0923541
TCL: Running for 100000 steps
ETITLE: TS BOND ANGLE DIHED IMPRP ELECT VDW BOUNDARY MISC KINETIC TOTAL TEMP POTENTIAL TOTAL3 TEMPAVG PRESSURE GPRESSURE VOLUME PRESSAVG GPRESSAVG
ENERGY: 0 0.0915 0.0646 0.1886 0.0000 -13580.8995 2422.5519 0.0000 0.0000 1723.3915 -9434.6114 294.8326 -11158.0029 -9434.2852 294.8326 701.4904 740.4913 43468.7678 701.4904 740.4913
ENERGY: 100000 0.1500 0.2268 0.3968 0.0000 -14344.7712 2579.7844 0.0000 0.0000 176.2508 -11587.9623 30.1525 -11764.2131 -11587.4228 30.9677 1196.2850 1260.0082 27635.7009 4.5013 4.4657
TCL: Running 100000 steps at 60 kelvin.
TCL: Setting parameter langevinTemp to 60
TCL: Running for 100000 steps
ETITLE: TS BOND ANGLE DIHED IMPRP ELECT VDW BOUNDARY MISC KINETIC TOTAL TEMP POTENTIAL TOTAL3 TEMPAVG PRESSURE GPRESSURE VOLUME PRESSAVG GPRESSAVG
ENERGY: 100000 0.1500 0.2268 0.3968 0.0000 -14344.7712 2579.7844 0.0000 0.0000 176.1621 -11588.0510 30.1373 -11764.2131 -11587.6549 30.1373 1199.2376 1260.0833 27635.7009 1199.2376 1260.0833
ENERGY: 200000 0.8267 0.9610 0.9209 0.0000 -14086.0708 2397.7899 0.0000 0.0000 341.7245 -11343.8478 58.4612 -11685.5723 -11343.0438 59.9938 -127.3261 -55.8472 27902.3102 5.1226 5.1215
TCL: Running 100000 steps at 90 kelvin.
TCL: Setting parameter langevinTemp to 90
TCL: Running for 100000 steps
ETITLE: TS BOND ANGLE DIHED IMPRP ELECT VDW BOUNDARY MISC KINETIC TOTAL TEMP POTENTIAL TOTAL3 TEMPAVG PRESSURE GPRESSURE VOLUME PRESSAVG GPRESSAVG
ENERGY: 200000 0.8267 0.9610 0.9209 0.0000 -14086.0708 2397.7899 0.0000 0.0000 341.5477 -11344.0247 58.4309 -11685.5723 -11343.3146 58.4309 -116.5720 -55.8242 27902.3102 -116.5720 -55.8242
ENERGY: 300000 0.1642 0.6979 0.8112 0.0000 -13993.5236 2416.5929 0.0000 0.0000 543.4938 -11031.7637 92.9793 -11575.2574 -11030.3555 90.0187 296.0465 352.6687 28237.1067 5.6856 5.7219
TCL: Running 100000 steps at 120 kelvin.
TCL: Setting parameter langevinTemp to 120
TCL: Running for 100000 steps
ETITLE: TS BOND ANGLE DIHED IMPRP ELECT VDW BOUNDARY MISC KINETIC TOTAL TEMP POTENTIAL TOTAL3 TEMPAVG PRESSURE GPRESSURE VOLUME PRESSAVG GPRESSAVG
ENERGY: 300000 0.1642 0.6979 0.8112 0.0000 -13993.5236 2416.5929 0.0000 0.0000 543.2273 -11032.0301 92.9337 -11575.2574 -11030.8567 92.9337 293.1401 352.5780 28237.1067 293.1401 352.5780
ENERGY: 400000 0.3382 3.3895 1.9579 0.0000 -13633.4180 2203.8486 0.0000 0.0000 699.8559 -10724.0279 119.7292 -11423.8838 -10723.1227 119.8269 -919.4054 -847.9586 28470.0208 5.0822 4.9464
TCL: Running 100000 steps at 150 kelvin.
TCL: Setting parameter langevinTemp to 150
TCL: Running for 100000 steps
ETITLE: TS BOND ANGLE DIHED IMPRP ELECT VDW BOUNDARY MISC KINETIC TOTAL TEMP POTENTIAL TOTAL3 TEMPAVG PRESSURE GPRESSURE VOLUME PRESSAVG GPRESSAVG
ENERGY: 400000 0.3382 3.3895 1.9579 0.0000 -13633.4180 2203.8486 0.0000 0.0000 699.5147 -10724.3691 119.6709 -11423.8838 -10722.7372 119.6709 -905.0049 -849.1628 28470.0208 -905.0049 -849.1628
ENERGY: 500000 1.5634 2.1909 2.5574 0.0000 -13371.6505 2125.0376 0.0000 0.0000 892.2300 -10348.0711 152.6400 -11240.3012 -10345.3488 150.0317 -722.7571 -663.2077 28380.3759 3.5291 3.6455
TCL: Running 100000 steps at 180 kelvin.
TCL: Setting parameter langevinTemp to 180
TCL: Running for 100000 steps
ETITLE: TS BOND ANGLE DIHED IMPRP ELECT VDW BOUNDARY MISC KINETIC TOTAL TEMP POTENTIAL TOTAL3 TEMPAVG PRESSURE GPRESSURE VOLUME PRESSAVG GPRESSAVG
ENERGY: 500000 1.5634 2.1909 2.5574 0.0000 -13371.6505 2125.0376 0.0000 0.0000 891.8117 -10348.4894 152.5684 -11240.3012 -10346.9873 152.5684 -711.0155 -662.6986 28380.3759 -711.0155 -662.6986
ENERGY: 600000 1.2841 1.3970 1.5281 0.0000 -13076.2123 2075.4641 0.0000 0.0000 1067.7874 -9928.7515 182.6738 -10996.5389 -9925.2687 180.0304 -208.1387 -166.3508 28400.5737 4.2706 4.2680
TCL: Running 100000 steps at 210 kelvin.
TCL: Setting parameter langevinTemp to 210
TCL: Running for 100000 steps
ETITLE: TS BOND ANGLE DIHED IMPRP ELECT VDW BOUNDARY MISC KINETIC TOTAL TEMP POTENTIAL TOTAL3 TEMPAVG PRESSURE GPRESSURE VOLUME PRESSAVG GPRESSAVG
ENERGY: 600000 1.2841 1.3970 1.5281 0.0000 -13076.2123 2075.4641 0.0000 0.0000 1067.2704 -9929.2686 182.5854 -10996.5389 -9927.0172 182.5854 -237.1548 -166.0944 28400.5737 -237.1548 -166.0944
ENERGY: 700000 0.9491 2.2601 0.8212 0.0000 -12381.6221 1895.7524 0.0000 0.0000 1226.2644 -9255.5749 209.7856 -10481.8393 -9251.5705 210.0052 -367.6556 -298.0861 29315.2276 4.9756 5.0660
TCL: Running 100000 steps at 240 kelvin.
TCL: Setting parameter langevinTemp to 240
TCL: Running for 100000 steps
ETITLE: TS BOND ANGLE DIHED IMPRP ELECT VDW BOUNDARY MISC KINETIC TOTAL TEMP POTENTIAL TOTAL3 TEMPAVG PRESSURE GPRESSURE VOLUME PRESSAVG GPRESSAVG
ENERGY: 700000 0.9491 2.2601 0.8212 0.0000 -12381.6221 1895.7524 0.0000 0.0000 1225.6690 -9256.1703 209.6837 -10481.8393 -9254.1251 209.6837 -356.7130 -297.8450 29315.2276 -356.7130 -297.8450
ENERGY: 800000 1.3401 0.9963 2.1955 0.0000 -11740.1902 1771.9048 0.0000 0.0000 1380.1348 -8583.6186 236.1093 -9963.7534 -8579.9061 240.0224 781.8032 842.9698 28876.0908 3.4529 3.4181
TCL: Running 100000 steps at 270 kelvin.
TCL: Setting parameter langevinTemp to 270
TCL: Running for 100000 steps
ETITLE: TS BOND ANGLE DIHED IMPRP ELECT VDW BOUNDARY MISC KINETIC TOTAL TEMP POTENTIAL TOTAL3 TEMPAVG PRESSURE GPRESSURE VOLUME PRESSAVG GPRESSAVG
ENERGY: 800000 1.3401 0.9963 2.1955 0.0000 -11740.1902 1771.9048 0.0000 0.0000 1379.4371 -8584.3163 235.9899 -9963.7534 -8582.7869 235.9899 769.0165 843.8723 28876.0908 769.0165 843.8723
ENERGY: 900000 2.7815 2.4241 2.5210 0.0000 -11207.0643 1544.7866 0.0000 0.0000 1566.8019 -8087.7494 268.0437 -9654.5512 -8085.0275 269.4557 -333.0004 -161.2352 29338.0490 2.9081 2.8361
TCL: Running 1000000 steps at 300 kelvin.
TCL: Setting parameter langevinTemp to 300
TCL: Running for 1000000 steps
ETITLE: TS BOND ANGLE DIHED IMPRP ELECT VDW BOUNDARY MISC KINETIC TOTAL TEMP POTENTIAL TOTAL3 TEMPAVG PRESSURE GPRESSURE VOLUME PRESSAVG GPRESSAVG
ENERGY: 900000 2.7815 2.4241 2.5210 0.0000 -11207.0643 1544.7866 0.0000 0.0000 1566.0557 -8088.4955 267.9161 -9654.5512 -8086.3717 267.9161 -264.9715 -160.8460 29338.0490 -264.9715 -160.8460
ENERGY: 1100000 0.7252 3.9191 3.2115 0.0000 -10728.8184 1497.0446 0.0000 0.0000 1792.2957 -7431.6224 306.6205 -9223.9181 -7429.3484 300.8214 315.2335 432.3464 30530.2946 3.1328 3.1365
ENERGY: 1300000 6.6697 2.0889 2.3242 0.0000 -10754.1769 1509.9178 0.0000 0.0000 1770.0530 -7463.1233 302.8153 -9233.1763 -7458.1397 299.8227 266.6884 397.8983 30227.9979 3.2602 3.1289
ENERGY: 1500000 2.7837 2.4628 1.5950 0.0000 -10755.0622 1449.8975 0.0000 0.0000 1793.1827 -7505.1405 306.7723 -9298.3232 -7499.2327 300.7169 19.5451 106.8347 30068.2549 3.5356 3.5231
ENERGY: 1700000 3.4746 2.8014 2.1513 0.0000 -10609.7508 1387.4297 0.0000 0.0000 1759.8875 -7454.0063 301.0762 -9213.8938 -7448.9680 300.5807 -548.0129 -494.8589 30621.8848 4.2162 4.1046
ENERGY: 1900000 0.9087 1.8534 4.5869 0.0000 -10754.4401 1498.8104 0.0000 0.0000 1733.4597 -7514.8211 296.5550 -9248.2808 -7512.9638 300.1569 690.7182 829.7685 29691.7243 4.3658 4.2020
TCL: Exiting due to exit command.
