Info: SIMULATION PARAMETERS:
Info: TIMESTEP               2
Info: NUMBER OF STEPS        0
Info: STEPS PER CYCLE        10
Info: PERIODIC CELL BASIS 1  34.207 0 0
Info: PERIODIC CELL BASIS 2  0 35.779 0
Info: PERIODIC CELL BASIS 3  0 0 35.723
Info: PERIODIC CELL CENTER   0 0 0
Info: WRAPPING WATERS AROUND PERIODIC BOUNDARIES ON OUTPUT.
Info: WRAPPING ALL CLUSTERS AROUND PERIODIC BOUNDARIES ON OUTPUT.
Info: FIRST LDB TIMESTEP     50
Info: LAST LDB TIMESTEP     -1
Info: HOM BACKGROUND SCALING 1
Info: PME BACKGROUND SCALING 1
Info: MIN ATOMS PER PATCH    40
Info: EMPTY PATCH LOAD       40 ATOMS
Info: INITIAL TEMPERATURE    300
Info: CENTER OF MASS MOVING INITIALLY? NO
Info: DIELECTRIC             1
Info: EXCLUDE                SCALED ONE-FOUR
Info: 1-4 ELECTROSTATICS SCALED BY 0.833333
Info: MODIFIED 1-4 VDW PARAMETERS WILL BE USED
Info: DCD FILENAME           mobley_9112978_equil.dcd
Info: DCD FREQUENCY          100000
Info: DCD FIRST STEP         100000
Info: DCD FILE WILL CONTAIN UNIT CELL DATA
Info: XST FILENAME           mobley_9112978_equil.xst
Info: XST FREQUENCY          100000
Info: NO VELOCITY DCD OUTPUT
Info: NO FORCE DCD OUTPUT
Info: OUTPUT FILENAME        mobley_9112978_equil
Info: BINARY OUTPUT FILES WILL BE USED
Info: RESTART FILENAME       mobley_9112978_equil.restart
Info: RESTART FREQUENCY      100000
Info: BINARY RESTART FILES WILL BE USED
Info: CUTOFF                 9
Info: PAIRLIST DISTANCE      11
Info: PAIRLIST SHRINK RATE   0.01
Info: PAIRLIST GROW RATE     0.01
Info: PAIRLIST TRIGGER       0.3
Info: PAIRLISTS PER CYCLE    2
Info: PAIRLISTS ENABLED
Info: MARGIN                 8
Info: HYDROGEN GROUP CUTOFF  2.5
Info: PATCH DIMENSION        21.5
Info: ENERGY OUTPUT STEPS    100000
Info: ENERGY EVALUATION STEPS    100000
Info: OUTPUT ENERGY PRECISION 4
Info: CROSSTERM ENERGY INCLUDED IN DIHEDRAL
Info: TIMING OUTPUT STEPS    1000000
Info: PRESSURE OUTPUT STEPS  100000
Info: LANGEVIN DYNAMICS ACTIVE
Info: LANGEVIN TEMPERATURE   30
Info: LANGEVIN USING BBK INTEGRATOR
Info: LANGEVIN DAMPING COEFFICIENT IS 1 INVERSE PS
Info: LANGEVIN DYNAMICS APPLIED TO HYDROGENS
Info: LANGEVIN PISTON PRESSURE CONTROL ACTIVE
Info:        TARGET PRESSURE IS 1.01325 BAR
Info:     OSCILLATION PERIOD IS 50 FS
Info:             DECAY TIME IS 25 FS
Info:     PISTON TEMPERATURE IS 300 K
Info:       PRESSURE CONTROL IS GROUP-BASED
Info:    INITIAL STRAIN RATE IS 0 0 0
Info:       CELL FLUCTUATION IS ISOTROPIC
Info: PARTICLE MESH EWALD (PME) ACTIVE
Info: PME TOLERANCE               1e-06
Info: PME EWALD COEFFICIENT       0.348832
Info: PME INTERPOLATION ORDER     4
Info: PME GRID DIMENSIONS         36 36 36
Info: PME MAXIMUM GRID SPACING    1
Info: FULL ELECTROSTATIC EVALUATION FREQUENCY      2
Info: USING VERLET I (r-RESPA) MTS SCHEME.
Info: C1 SPLITTING OF LONG RANGE ELECTROSTATICS
Info: PLACING ATOMS IN PATCHES BY HYDROGEN GROUPS
Info: RIGID BONDS TO HYDROGEN : ALL
Info:         ERROR TOLERANCE : 1e-08
Info:          MAX ITERATIONS : 100
Info: RIGID WATER USING SETTLE ALGORITHM
Info: RANDOM NUMBER SEED     1743229055
Info: USE HYDROGEN BONDS?    NO
Info: Using AMBER format force field!
Info: AMBER PARM FILE        mobley_9112978.prmtop
Info: COORDINATE PDB         mobley_9112978.pdb
Info: Exclusions will be read from PARM file!
Info: SCNB (VDW SCALING)     2
Info: USING ARITHMETIC MEAN TO COMBINE L-J SIGMA PARAMETERS
Info: BINARY COORDINATES     mobley_9112978_min.coor
Info: SUMMARY OF PARAMETERS:
Info: 7 BONDS
Info: 7 ANGLES
Info: 8 DIHEDRAL
Info: 0 IMPROPER
Info: 0 CROSSTERM
Info: 0 VDW
Info: 21 VDW_PAIRS
Info: 0 NBTHOLE_PAIRS
Info: STRUCTURE SUMMARY:
Info: 2931 ATOMS
Info: 2930 BONDS
Info: 24 ANGLES
Info: 38 DIHEDRALS
Info: 0 IMPROPERS
Info: 0 CROSSTERMS
Info: 2979 EXCLUSIONS
Info: 2926 RIGID BONDS
Info: 5867 DEGREES OF FREEDOM
Info: 977 HYDROGEN GROUPS
Info: 4 ATOMS IN LARGEST HYDROGEN GROUP
Info: 977 MIGRATION GROUPS
Info: 4 ATOMS IN LARGEST MIGRATION GROUP
Info: TOTAL MASS = 17581.7 amu
Info: TOTAL CHARGE = 0.000100017 e
Info: MASS DENSITY = 0.667773 g/cm^3
Info: ATOM DENSITY = 0.0670386 atoms/A^3
Info: ADDED 0 IMPLICIT EXCLUSIONS
Info: NONBONDED TABLE R-SQUARED SPACING: 0.0625
Info: NONBONDED TABLE SIZE: 705 POINTS
Info: REMOVING COM VELOCITY -0.155972 0.00139559 0.174032
TCL: Running for 100000 steps
ETITLE: TS BOND ANGLE DIHED IMPRP ELECT VDW BOUNDARY MISC KINETIC TOTAL TEMP POTENTIAL TOTAL3 TEMPAVG PRESSURE GPRESSURE VOLUME PRESSAVG GPRESSAVG
ENERGY: 0 0.0543 0.7896 6.4710 0.0000 -13543.3861 2392.2481 0.0000 0.0000 1699.7380 -9444.0852 291.5790 -11143.8232 -9443.7585 291.5790 580.5284 616.9225 43721.1030 580.5284 616.9225
ENERGY: 100000 0.0521 1.3324 6.9502 0.0000 -14104.1991 2429.5439 0.0000 0.0000 174.3736 -11491.9469 29.9127 -11666.3205 -11491.4359 30.9582 -247.9311 -204.4080 28615.8204 4.4794 4.4668
TCL: Running 100000 steps at 60 kelvin.
TCL: Setting parameter langevinTemp to 60
TCL: Running for 100000 steps
ETITLE: TS BOND ANGLE DIHED IMPRP ELECT VDW BOUNDARY MISC KINETIC TOTAL TEMP POTENTIAL TOTAL3 TEMPAVG PRESSURE GPRESSURE VOLUME PRESSAVG GPRESSAVG
ENERGY: 100000 0.0521 1.3324 6.9502 0.0000 -14104.1991 2429.5439 0.0000 0.0000 174.2885 -11492.0320 29.8981 -11666.3205 -11491.6151 29.8981 -259.7857 -204.3025 28615.8204 -259.7857 -204.3025
ENERGY: 200000 0.5832 1.8943 7.1110 0.0000 -14049.1130 2477.6220 0.0000 0.0000 343.1728 -11218.7297 58.8691 -11561.9025 -11217.3106 59.9490 742.0374 811.4163 28201.7357 4.2857 4.2811
TCL: Running 100000 steps at 90 kelvin.
TCL: Setting parameter langevinTemp to 90
TCL: Running for 100000 steps
ETITLE: TS BOND ANGLE DIHED IMPRP ELECT VDW BOUNDARY MISC KINETIC TOTAL TEMP POTENTIAL TOTAL3 TEMPAVG PRESSURE GPRESSURE VOLUME PRESSAVG GPRESSAVG
ENERGY: 200000 0.5832 1.8943 7.1110 0.0000 -14049.1130 2477.6220 0.0000 0.0000 342.9946 -11218.9079 58.8385 -11561.9025 -11218.2418 58.8385 745.1706 812.0880 28201.7357 745.1706 812.0880
ENERGY: 300000 0.4463 2.7011 7.2303 0.0000 -13822.5919 2325.1921 0.0000 0.0000 533.8682 -10953.1539 91.5816 -11487.0221 -10951.7400 89.9263 -121.7062 -55.8620 28105.4800 3.9099 3.8850
TCL: Running 100000 steps at 120 kelvin.
TCL: Setting parameter langevinTemp to 120
TCL: Running for 100000 steps
ETITLE: TS BOND ANGLE DIHED IMPRP ELECT VDW BOUNDARY MISC KINETIC TOTAL TEMP POTENTIAL TOTAL3 TEMPAVG PRESSURE GPRESSURE VOLUME PRESSAVG GPRESSAVG
ENERGY: 300000 0.4463 2.7011 7.2303 0.0000 -13822.5919 2325.1921 0.0000 0.0000 533.6107 -10953.4113 91.5375 -11487.0221 -10952.2820 91.5375 -99.7597 -56.1933 28105.4800 -99.7597 -56.1933
ENERGY: 400000 0.7774 3.1385 6.9167 0.0000 -13718.4708 2362.0864 0.0000 0.0000 713.9937 -10631.5581 122.4810 -11345.5519 -10629.7257 120.0010 649.0092 739.8374 28026.9895 3.5553 3.5150
TCL: Running 100000 steps at 150 kelvin.
TCL: Setting parameter langevinTemp to 150
TCL: Running for 100000 steps
ETITLE: TS BOND ANGLE DIHED IMPRP ELECT VDW BOUNDARY MISC KINETIC TOTAL TEMP POTENTIAL TOTAL3 TEMPAVG PRESSURE GPRESSURE VOLUME PRESSAVG GPRESSAVG
ENERGY: 400000 0.7774 3.1385 6.9167 0.0000 -13718.4708 2362.0864 0.0000 0.0000 713.6471 -10631.9047 122.4215 -11345.5519 -10630.3290 122.4215 690.0615 739.6407 28026.9895 690.0615 739.6407
ENERGY: 500000 0.6042 3.6180 6.9495 0.0000 -13385.0568 2144.7033 0.0000 0.0000 894.5534 -10334.6284 153.4548 -11229.1818 -10332.3521 150.2666 -880.1474 -828.1286 28542.6536 2.9162 2.8203
TCL: Running 100000 steps at 180 kelvin.
TCL: Setting parameter langevinTemp to 180
TCL: Running for 100000 steps
ETITLE: TS BOND ANGLE DIHED IMPRP ELECT VDW BOUNDARY MISC KINETIC TOTAL TEMP POTENTIAL TOTAL3 TEMPAVG PRESSURE GPRESSURE VOLUME PRESSAVG GPRESSAVG
ENERGY: 500000 0.6042 3.6180 6.9495 0.0000 -13385.0568 2144.7033 0.0000 0.0000 894.1408 -10335.0409 153.3841 -11229.1817 -10332.7532 153.3841 -883.4834 -827.4592 28542.6536 -883.4834 -827.4592
ENERGY: 600000 1.0347 3.6206 6.9090 0.0000 -13037.8723 2091.7395 0.0000 0.0000 1060.6882 -9873.8802 181.9542 -10934.5684 -9871.0628 179.5636 -245.5914 -146.7675 28618.7161 2.0096 2.0127
TCL: Running 100000 steps at 210 kelvin.
TCL: Setting parameter langevinTemp to 210
TCL: Running for 100000 steps
ETITLE: TS BOND ANGLE DIHED IMPRP ELECT VDW BOUNDARY MISC KINETIC TOTAL TEMP POTENTIAL TOTAL3 TEMPAVG PRESSURE GPRESSURE VOLUME PRESSAVG GPRESSAVG
ENERGY: 600000 1.0347 3.6206 6.9090 0.0000 -13037.8723 2091.7395 0.0000 0.0000 1060.1522 -9874.4162 181.8622 -10934.5684 -9872.2215 181.8622 -212.2003 -146.7855 28618.7161 -212.2003 -146.7855
ENERGY: 700000 0.8035 4.5009 8.5033 0.0000 -12260.2485 1843.4659 0.0000 0.0000 1229.9519 -9173.0230 210.9903 -10402.9748 -9170.8041 209.9022 -433.5222 -307.6061 28935.8635 2.2115 2.1860
TCL: Running 100000 steps at 240 kelvin.
TCL: Setting parameter langevinTemp to 240
TCL: Running for 100000 steps
ETITLE: TS BOND ANGLE DIHED IMPRP ELECT VDW BOUNDARY MISC KINETIC TOTAL TEMP POTENTIAL TOTAL3 TEMPAVG PRESSURE GPRESSURE VOLUME PRESSAVG GPRESSAVG
ENERGY: 700000 0.8035 4.5009 8.5033 0.0000 -12260.2485 1843.4659 0.0000 0.0000 1229.3201 -9173.6547 210.8819 -10402.9748 -9171.2694 210.8819 -384.0660 -308.3036 28935.8635 -384.0660 -308.3036
ENERGY: 800000 0.4801 6.1351 7.5174 0.0000 -11757.4467 1723.8524 0.0000 0.0000 1414.6878 -8604.7739 242.6805 -10019.4617 -8601.2684 239.7837 143.0886 296.2185 28597.6204 3.8623 3.9914
TCL: Running 100000 steps at 270 kelvin.
TCL: Setting parameter langevinTemp to 270
TCL: Running for 100000 steps
ETITLE: TS BOND ANGLE DIHED IMPRP ELECT VDW BOUNDARY MISC KINETIC TOTAL TEMP POTENTIAL TOTAL3 TEMPAVG PRESSURE GPRESSURE VOLUME PRESSAVG GPRESSAVG
ENERGY: 800000 0.4801 6.1351 7.5174 0.0000 -11757.4467 1723.8524 0.0000 0.0000 1414.0009 -8605.4608 242.5627 -10019.4617 -8602.9895 242.5627 215.0416 296.8426 28597.6204 215.0416 296.8426
ENERGY: 900000 1.3695 4.3425 8.1591 0.0000 -11210.0300 1555.0294 0.0000 0.0000 1610.2886 -8030.8408 276.2346 -9641.1294 -8026.6827 269.7562 -397.7575 -306.5545 29693.0692 3.5495 3.4995
TCL: Running 1000000 steps at 300 kelvin.
TCL: Setting parameter langevinTemp to 300
TCL: Running for 1000000 steps
ETITLE: TS BOND ANGLE DIHED IMPRP ELECT VDW BOUNDARY MISC KINETIC TOTAL TEMP POTENTIAL TOTAL3 TEMPAVG PRESSURE GPRESSURE VOLUME PRESSAVG GPRESSAVG
ENERGY: 900000 1.3695 4.3425 8.1591 0.0000 -11210.0300 1555.0294 0.0000 0.0000 1609.5213 -8031.6081 276.1029 -9641.1294 -8028.6286 276.1029 -389.9485 -307.7498 29693.0692 -389.9485 -307.7498
ENERGY: 1100000 1.1549 5.5888 9.9292 0.0000 -10619.7601 1417.2314 0.0000 0.0000 1759.1294 -7426.7264 301.7672 -9185.8558 -7422.1922 300.2206 -70.9578 -48.5755 30283.8353 3.2114 3.2316
ENERGY: 1300000 0.7457 5.8357 9.1459 0.0000 -10651.1550 1468.7801 0.0000 0.0000 1733.6425 -7433.0053 297.3951 -9166.6477 -7429.1753 300.1155 490.8004 546.5854 29672.8733 2.8539 2.8707
ENERGY: 1500000 1.9046 6.8756 9.5433 0.0000 -10583.3423 1449.5775 0.0000 0.0000 1732.3560 -7383.0852 297.1744 -9115.4412 -7382.4224 299.9935 242.8698 372.6219 30394.9774 4.7600 4.9610
ENERGY: 1700000 2.8844 6.6876 7.9168 0.0000 -10597.6269 1370.6027 0.0000 0.0000 1730.1158 -7479.4194 296.7901 -9209.5352 -7475.1959 300.5109 -755.9967 -655.7547 30304.0179 3.9630 3.8773
ENERGY: 1900000 0.5229 4.3407 8.7534 0.0000 -10742.2043 1481.8746 0.0000 0.0000 1761.8382 -7484.8745 302.2319 -9246.7127 -7481.0034 300.5467 351.5976 419.8175 29878.4558 3.1382 3.1661
TCL: Exiting due to exit command.
