Info: SIMULATION PARAMETERS:
Info: TIMESTEP               2
Info: NUMBER OF STEPS        0
Info: STEPS PER CYCLE        10
Info: PERIODIC CELL BASIS 1  34.986 0 0
Info: PERIODIC CELL BASIS 2  0 35.779 0
Info: PERIODIC CELL BASIS 3  0 0 35.723
Info: PERIODIC CELL CENTER   0 0 0
Info: WRAPPING WATERS AROUND PERIODIC BOUNDARIES ON OUTPUT.
Info: WRAPPING ALL CLUSTERS AROUND PERIODIC BOUNDARIES ON OUTPUT.
Info: FIRST LDB TIMESTEP     50
Info: LAST LDB TIMESTEP     -1
Info: HOM BACKGROUND SCALING 1
Info: PME BACKGROUND SCALING 1
Info: MIN ATOMS PER PATCH    40
Info: EMPTY PATCH LOAD       40 ATOMS
Info: INITIAL TEMPERATURE    300
Info: CENTER OF MASS MOVING INITIALLY? NO
Info: DIELECTRIC             1
Info: EXCLUDE                SCALED ONE-FOUR
Info: 1-4 ELECTROSTATICS SCALED BY 0.833333
Info: MODIFIED 1-4 VDW PARAMETERS WILL BE USED
Info: DCD FILENAME           mobley_3006808_equil.dcd
Info: DCD FREQUENCY          100000
Info: DCD FIRST STEP         100000
Info: DCD FILE WILL CONTAIN UNIT CELL DATA
Info: XST FILENAME           mobley_3006808_equil.xst
Info: XST FREQUENCY          100000
Info: NO VELOCITY DCD OUTPUT
Info: NO FORCE DCD OUTPUT
Info: OUTPUT FILENAME        mobley_3006808_equil
Info: BINARY OUTPUT FILES WILL BE USED
Info: RESTART FILENAME       mobley_3006808_equil.restart
Info: RESTART FREQUENCY      100000
Info: BINARY RESTART FILES WILL BE USED
Info: CUTOFF                 9
Info: PAIRLIST DISTANCE      11
Info: PAIRLIST SHRINK RATE   0.01
Info: PAIRLIST GROW RATE     0.01
Info: PAIRLIST TRIGGER       0.3
Info: PAIRLISTS PER CYCLE    2
Info: PAIRLISTS ENABLED
Info: MARGIN                 8
Info: HYDROGEN GROUP CUTOFF  2.5
Info: PATCH DIMENSION        21.5
Info: ENERGY OUTPUT STEPS    100000
Info: ENERGY EVALUATION STEPS    100000
Info: OUTPUT ENERGY PRECISION 4
Info: CROSSTERM ENERGY INCLUDED IN DIHEDRAL
Info: TIMING OUTPUT STEPS    1000000
Info: PRESSURE OUTPUT STEPS  100000
Info: LANGEVIN DYNAMICS ACTIVE
Info: LANGEVIN TEMPERATURE   30
Info: LANGEVIN USING BBK INTEGRATOR
Info: LANGEVIN DAMPING COEFFICIENT IS 1 INVERSE PS
Info: LANGEVIN DYNAMICS APPLIED TO HYDROGENS
Info: LANGEVIN PISTON PRESSURE CONTROL ACTIVE
Info:        TARGET PRESSURE IS 1.01325 BAR
Info:     OSCILLATION PERIOD IS 50 FS
Info:             DECAY TIME IS 25 FS
Info:     PISTON TEMPERATURE IS 300 K
Info:       PRESSURE CONTROL IS GROUP-BASED
Info:    INITIAL STRAIN RATE IS 0 0 0
Info:       CELL FLUCTUATION IS ISOTROPIC
Info: PARTICLE MESH EWALD (PME) ACTIVE
Info: PME TOLERANCE               1e-06
Info: PME EWALD COEFFICIENT       0.348832
Info: PME INTERPOLATION ORDER     4
Info: PME GRID DIMENSIONS         36 36 36
Info: PME MAXIMUM GRID SPACING    1
Info: FULL ELECTROSTATIC EVALUATION FREQUENCY      2
Info: USING VERLET I (r-RESPA) MTS SCHEME.
Info: C1 SPLITTING OF LONG RANGE ELECTROSTATICS
Info: PLACING ATOMS IN PATCHES BY HYDROGEN GROUPS
Info: RIGID BONDS TO HYDROGEN : ALL
Info:         ERROR TOLERANCE : 1e-08
Info:          MAX ITERATIONS : 100
Info: RIGID WATER USING SETTLE ALGORITHM
Info: RANDOM NUMBER SEED     1743159484
Info: USE HYDROGEN BONDS?    NO
Info: Using AMBER format force field!
Info: AMBER PARM FILE        mobley_3006808.prmtop
Info: COORDINATE PDB         mobley_3006808.pdb
Info: Exclusions will be read from PARM file!
Info: SCNB (VDW SCALING)     2
Info: USING ARITHMETIC MEAN TO COMBINE L-J SIGMA PARAMETERS
Info: BINARY COORDINATES     mobley_3006808_min.coor
Info: SUMMARY OF PARAMETERS:
Info: 7 BONDS
Info: 7 ANGLES
Info:   7 HARMONIC
Info:   0 COSINE-BASED
Info: 6 DIHEDRAL
Info: 0 IMPROPER
Info: 0 CROSSTERM
Info: 0 VDW
Info: 21 VDW_PAIRS
Info: 0 NBTHOLE_PAIRS
Info: STRUCTURE SUMMARY:
Info: 2991 ATOMS
Info: 2990 BONDS
Info: 13 ANGLES
Info: 19 DIHEDRALS
Info: 0 IMPROPERS
Info: 0 CROSSTERMS
Info: 3015 EXCLUSIONS
Info: 2985 RIGID BONDS
Info: 5988 DEGREES OF FREEDOM
Info: 1000 HYDROGEN GROUPS
Info: 3 ATOMS IN LARGEST HYDROGEN GROUP
Info: 1000 MIGRATION GROUPS
Info: 3 ATOMS IN LARGEST MIGRATION GROUP
Info: TOTAL MASS = 18007.9 amu
Info: TOTAL CHARGE = 1.11759e-07 e
Info: MASS DENSITY = 0.668733 g/cm^3
Info: ATOM DENSITY = 0.0668877 atoms/A^3
Info: ADDED 0 IMPLICIT EXCLUSIONS
Info: NONBONDED TABLE R-SQUARED SPACING: 0.0625
Info: NONBONDED TABLE SIZE: 705 POINTS
Info: REMOVING COM VELOCITY -0.068492 0.132087 -0.0030672
TCL: Running for 100000 steps
ETITLE: TS BOND ANGLE DIHED IMPRP ELECT VDW BOUNDARY MISC KINETIC TOTAL TEMP POTENTIAL TOTAL3 TEMPAVG PRESSURE GPRESSURE VOLUME PRESSAVG GPRESSAVG
ENERGY: 0 0.1990 0.6300 1.2558 0.0000 -13861.6022 2462.7108 0.0000 0.0000 1780.0148 -9616.7918 299.1798 -11396.8066 -9616.4655 299.1798 593.1283 623.3559 44716.7687 593.1283 623.3559
ENERGY: 100000 0.3166 0.8392 1.2511 0.0000 -14482.7528 2581.9760 0.0000 0.0000 182.1823 -11716.1876 30.6207 -11898.3699 -11715.7274 30.8981 558.5439 617.0959 29131.9511 4.0640 4.0698
TCL: Running 100000 steps at 60 kelvin.
TCL: Setting parameter langevinTemp to 60
TCL: Running for 100000 steps
ETITLE: TS BOND ANGLE DIHED IMPRP ELECT VDW BOUNDARY MISC KINETIC TOTAL TEMP POTENTIAL TOTAL3 TEMPAVG PRESSURE GPRESSURE VOLUME PRESSAVG GPRESSAVG
ENERGY: 100000 0.3166 0.8392 1.2511 0.0000 -14482.7528 2581.9760 0.0000 0.0000 182.0952 -11716.2747 30.6060 -11898.3699 -11715.9024 30.6060 561.2842 617.1795 29131.9511 561.2842 617.1795
ENERGY: 200000 0.1932 1.7283 1.3521 0.0000 -14284.7876 2431.9752 0.0000 0.0000 352.1746 -11497.3642 59.1925 -11849.5388 -11496.8323 59.9190 -297.9907 -232.4208 29044.0834 2.2099 2.2482
TCL: Running 100000 steps at 90 kelvin.
TCL: Setting parameter langevinTemp to 90
TCL: Running for 100000 steps
ETITLE: TS BOND ANGLE DIHED IMPRP ELECT VDW BOUNDARY MISC KINETIC TOTAL TEMP POTENTIAL TOTAL3 TEMPAVG PRESSURE GPRESSURE VOLUME PRESSAVG GPRESSAVG
ENERGY: 200000 0.1932 1.7283 1.3521 0.0000 -14284.7876 2431.9752 0.0000 0.0000 351.9946 -11497.5443 59.1622 -11849.5388 -11496.7581 59.1622 -289.2941 -232.6036 29044.0834 -289.2941 -232.6036
ENERGY: 300000 0.2628 1.0768 1.4720 0.0000 -14081.0750 2371.6277 0.0000 0.0000 520.3205 -11186.3152 87.4540 -11706.6358 -11184.8705 90.0103 -247.1861 -176.7884 28946.7469 3.5405 3.5727
TCL: Running 100000 steps at 120 kelvin.
TCL: Setting parameter langevinTemp to 120
TCL: Running for 100000 steps
ETITLE: TS BOND ANGLE DIHED IMPRP ELECT VDW BOUNDARY MISC KINETIC TOTAL TEMP POTENTIAL TOTAL3 TEMPAVG PRESSURE GPRESSURE VOLUME PRESSAVG GPRESSAVG
ENERGY: 300000 0.2628 1.0768 1.4720 0.0000 -14081.0750 2371.6277 0.0000 0.0000 520.0524 -11186.5833 87.4089 -11706.6358 -11185.4452 87.4089 -238.4278 -176.1716 28946.7469 -238.4278 -176.1716
ENERGY: 400000 1.5611 2.5203 1.6616 0.0000 -13887.3870 2289.7315 0.0000 0.0000 719.8941 -10872.0183 120.9977 -11591.9124 -10870.5637 119.8694 -730.6385 -702.7438 29207.1870 4.4033 4.4417
TCL: Running 100000 steps at 150 kelvin.
TCL: Setting parameter langevinTemp to 150
TCL: Running for 100000 steps
ETITLE: TS BOND ANGLE DIHED IMPRP ELECT VDW BOUNDARY MISC KINETIC TOTAL TEMP POTENTIAL TOTAL3 TEMPAVG PRESSURE GPRESSURE VOLUME PRESSAVG GPRESSAVG
ENERGY: 400000 1.5611 2.5203 1.6616 0.0000 -13887.3870 2289.7315 0.0000 0.0000 719.5174 -10872.3950 120.9344 -11591.9124 -10870.6316 120.9344 -764.7042 -704.1949 29207.1870 -764.7042 -704.1949
ENERGY: 500000 0.9678 2.3346 1.5772 0.0000 -13827.6238 2385.5857 0.0000 0.0000 922.5308 -10514.6277 155.0563 -11437.1585 -10512.7533 149.8439 792.9811 807.6433 29260.7146 3.6391 3.6180
TCL: Running 100000 steps at 180 kelvin.
TCL: Setting parameter langevinTemp to 180
TCL: Running for 100000 steps
ETITLE: TS BOND ANGLE DIHED IMPRP ELECT VDW BOUNDARY MISC KINETIC TOTAL TEMP POTENTIAL TOTAL3 TEMPAVG PRESSURE GPRESSURE VOLUME PRESSAVG GPRESSAVG
ENERGY: 500000 0.9678 2.3346 1.5772 0.0000 -13827.6238 2385.5857 0.0000 0.0000 922.0781 -10515.0804 154.9802 -11437.1585 -10513.3663 154.9802 752.9166 806.5835 29260.7146 752.9166 806.5835
ENERGY: 600000 0.3789 1.7738 1.7545 0.0000 -13254.3353 2146.5238 0.0000 0.0000 1063.9989 -10039.9054 178.8339 -11103.9043 -10036.0410 179.4545 2.2625 64.7790 29255.9429 2.9514 2.8699
TCL: Running 100000 steps at 210 kelvin.
TCL: Setting parameter langevinTemp to 210
TCL: Running for 100000 steps
ETITLE: TS BOND ANGLE DIHED IMPRP ELECT VDW BOUNDARY MISC KINETIC TOTAL TEMP POTENTIAL TOTAL3 TEMPAVG PRESSURE GPRESSURE VOLUME PRESSAVG GPRESSAVG
ENERGY: 600000 0.3789 1.7738 1.7545 0.0000 -13254.3353 2146.5238 0.0000 0.0000 1063.4703 -10040.4340 178.7450 -11103.9043 -10038.1475 178.7450 3.4556 64.8789 29255.9429 3.4556 64.8789
ENERGY: 700000 0.9676 2.4406 1.7142 0.0000 -12438.5873 1791.0198 0.0000 0.0000 1292.8774 -9349.5677 217.3031 -10642.4451 -9344.5363 210.0926 -1077.5410 -996.3508 29101.3661 2.9832 3.1321
TCL: Running 100000 steps at 240 kelvin.
TCL: Setting parameter langevinTemp to 240
TCL: Running for 100000 steps
ETITLE: TS BOND ANGLE DIHED IMPRP ELECT VDW BOUNDARY MISC KINETIC TOTAL TEMP POTENTIAL TOTAL3 TEMPAVG PRESSURE GPRESSURE VOLUME PRESSAVG GPRESSAVG
ENERGY: 700000 0.9676 2.4406 1.7142 0.0000 -12438.5873 1791.0198 0.0000 0.0000 1292.2604 -9350.1847 217.1994 -10642.4451 -9347.4705 217.1994 -1059.9634 -993.7823 29101.3661 -1059.9634 -993.7823
ENERGY: 800000 1.5587 1.9063 1.3481 0.0000 -11957.2712 1749.2853 0.0000 0.0000 1387.2515 -8815.9212 233.1652 -10203.1728 -8812.7413 239.8739 -43.2545 2.3707 29345.4189 4.3942 4.4462
TCL: Running 100000 steps at 270 kelvin.
TCL: Setting parameter langevinTemp to 270
TCL: Running for 100000 steps
ETITLE: TS BOND ANGLE DIHED IMPRP ELECT VDW BOUNDARY MISC KINETIC TOTAL TEMP POTENTIAL TOTAL3 TEMPAVG PRESSURE GPRESSURE VOLUME PRESSAVG GPRESSAVG
ENERGY: 800000 1.5587 1.9063 1.3481 0.0000 -11957.2712 1749.2853 0.0000 0.0000 1386.5580 -8816.6148 233.0487 -10203.1728 -8814.5792 233.0487 -86.1831 4.2282 29345.4189 -86.1831 4.2282
ENERGY: 900000 2.5565 2.9435 1.6881 0.0000 -11347.0624 1586.4750 0.0000 0.0000 1537.2044 -8216.1948 258.3689 -9753.3992 -8212.3435 269.2524 -155.4342 -38.6532 30063.0113 3.5544 3.5750
TCL: Running 1000000 steps at 300 kelvin.
TCL: Setting parameter langevinTemp to 300
TCL: Running for 1000000 steps
ETITLE: TS BOND ANGLE DIHED IMPRP ELECT VDW BOUNDARY MISC KINETIC TOTAL TEMP POTENTIAL TOTAL3 TEMPAVG PRESSURE GPRESSURE VOLUME PRESSAVG GPRESSAVG
ENERGY: 900000 2.5565 2.9435 1.6881 0.0000 -11347.0624 1586.4750 0.0000 0.0000 1536.4254 -8216.9738 258.2380 -9753.3992 -8214.6775 258.2380 -120.0630 -37.3777 30063.0113 -120.0630 -37.3777
ENERGY: 1100000 0.5094 1.8332 2.1618 0.0000 -10893.6570 1492.4134 0.0000 0.0000 1825.7400 -7570.9991 306.8651 -9396.7391 -7567.3928 301.0815 157.2965 194.0539 30918.7916 2.9594 2.8552
ENERGY: 1300000 0.2890 1.6721 2.5573 0.0000 -10691.4865 1394.8070 0.0000 0.0000 1769.7854 -7522.3757 297.4604 -9292.1612 -7520.3263 300.2368 -550.8784 -418.7838 31245.6502 2.4485 2.3222
ENERGY: 1500000 2.1479 5.5441 2.4192 0.0000 -10920.5883 1466.5520 0.0000 0.0000 1878.6177 -7565.3075 315.7527 -9443.9252 -7560.0517 301.2834 -110.5987 -52.5440 30454.7865 3.5228 3.3845
ENERGY: 1700000 0.6508 4.0579 1.9208 0.0000 -10926.0516 1494.6370 0.0000 0.0000 1817.7984 -7606.9868 305.5303 -9424.7852 -7604.9655 300.1483 328.1572 402.0128 30472.1142 3.3039 3.2021
ENERGY: 1900000 3.0991 1.5487 2.0266 0.0000 -10797.3829 1406.7313 0.0000 0.0000 1810.6027 -7573.3746 304.3209 -9383.9772 -7570.4749 300.6620 -611.8335 -552.5620 31233.2932 1.9741 2.0657
TCL: Exiting due to exit command.
