Info: SIMULATION PARAMETERS:
Info: TIMESTEP               2
Info: NUMBER OF STEPS        0
Info: STEPS PER CYCLE        10
Info: PERIODIC CELL BASIS 1  36.592 0 0
Info: PERIODIC CELL BASIS 2  0 35.779 0
Info: PERIODIC CELL BASIS 3  0 0 33.876
Info: PERIODIC CELL CENTER   0 0 0
Info: WRAPPING WATERS AROUND PERIODIC BOUNDARIES ON OUTPUT.
Info: WRAPPING ALL CLUSTERS AROUND PERIODIC BOUNDARIES ON OUTPUT.
Info: FIRST LDB TIMESTEP     50
Info: LAST LDB TIMESTEP     -1
Info: HOM BACKGROUND SCALING 1
Info: PME BACKGROUND SCALING 1
Info: MIN ATOMS PER PATCH    40
Info: EMPTY PATCH LOAD       40 ATOMS
Info: INITIAL TEMPERATURE    300
Info: CENTER OF MASS MOVING INITIALLY? NO
Info: DIELECTRIC             1
Info: EXCLUDE                SCALED ONE-FOUR
Info: 1-4 ELECTROSTATICS SCALED BY 0.833333
Info: MODIFIED 1-4 VDW PARAMETERS WILL BE USED
Info: DCD FILENAME           mobley_2493732_equil.dcd
Info: DCD FREQUENCY          100000
Info: DCD FIRST STEP         100000
Info: DCD FILE WILL CONTAIN UNIT CELL DATA
Info: XST FILENAME           mobley_2493732_equil.xst
Info: XST FREQUENCY          100000
Info: NO VELOCITY DCD OUTPUT
Info: NO FORCE DCD OUTPUT
Info: OUTPUT FILENAME        mobley_2493732_equil
Info: BINARY OUTPUT FILES WILL BE USED
Info: RESTART FILENAME       mobley_2493732_equil.restart
Info: RESTART FREQUENCY      100000
Info: BINARY RESTART FILES WILL BE USED
Info: CUTOFF                 9
Info: PAIRLIST DISTANCE      11
Info: PAIRLIST SHRINK RATE   0.01
Info: PAIRLIST GROW RATE     0.01
Info: PAIRLIST TRIGGER       0.3
Info: PAIRLISTS PER CYCLE    2
Info: PAIRLISTS ENABLED
Info: MARGIN                 8
Info: HYDROGEN GROUP CUTOFF  2.5
Info: PATCH DIMENSION        21.5
Info: ENERGY OUTPUT STEPS    100000
Info: ENERGY EVALUATION STEPS    100000
Info: OUTPUT ENERGY PRECISION 4
Info: CROSSTERM ENERGY INCLUDED IN DIHEDRAL
Info: TIMING OUTPUT STEPS    1000000
Info: PRESSURE OUTPUT STEPS  100000
Info: FIXED ATOMS ACTIVE
Info: LANGEVIN DYNAMICS ACTIVE
Info: LANGEVIN TEMPERATURE   30
Info: LANGEVIN USING BBK INTEGRATOR
Info: LANGEVIN DAMPING COEFFICIENT IS 1 INVERSE PS
Info: LANGEVIN DYNAMICS APPLIED TO HYDROGENS
Info: LANGEVIN PISTON PRESSURE CONTROL ACTIVE
Info:        TARGET PRESSURE IS 1.01325 BAR
Info:     OSCILLATION PERIOD IS 50 FS
Info:             DECAY TIME IS 25 FS
Info:     PISTON TEMPERATURE IS 300 K
Info:       PRESSURE CONTROL IS GROUP-BASED
Info:    INITIAL STRAIN RATE IS 0 0 0
Info:       CELL FLUCTUATION IS ISOTROPIC
Info: PARTICLE MESH EWALD (PME) ACTIVE
Info: PME TOLERANCE               1e-06
Info: PME EWALD COEFFICIENT       0.348832
Info: PME INTERPOLATION ORDER     4
Info: PME GRID DIMENSIONS         40 36 36
Info: PME MAXIMUM GRID SPACING    1
Info: FULL ELECTROSTATIC EVALUATION FREQUENCY      2
Info: USING VERLET I (r-RESPA) MTS SCHEME.
Info: C1 SPLITTING OF LONG RANGE ELECTROSTATICS
Info: PLACING ATOMS IN PATCHES BY HYDROGEN GROUPS
Info: RIGID BONDS TO HYDROGEN : ALL
Info:         ERROR TOLERANCE : 1e-08
Info:          MAX ITERATIONS : 100
Info: RIGID WATER USING SETTLE ALGORITHM
Info: RANDOM NUMBER SEED     1743672860
Info: USE HYDROGEN BONDS?    NO
Info: Using AMBER format force field!
Info: AMBER PARM FILE        mobley_2493732.prmtop
Info: COORDINATE PDB         mobley_2493732.pdb
Info: Exclusions will be read from PARM file!
Info: SCNB (VDW SCALING)     2
Info: USING ARITHMETIC MEAN TO COMBINE L-J SIGMA PARAMETERS
Info: BINARY COORDINATES     mobley_2493732_min.coor
Info: SUMMARY OF PARAMETERS:
Info: 5 BONDS
Info: 4 ANGLES
Info:   4 HARMONIC
Info:   0 COSINE-BASED
Info: 2 DIHEDRAL
Info: 0 IMPROPER
Info: 0 CROSSTERM
Info: 0 VDW
Info: 15 VDW_PAIRS
Info: 0 NBTHOLE_PAIRS
Info: STRUCTURE SUMMARY:
Info: 2943 ATOMS
Info: 2942 BONDS
Info: 6 ANGLES
Info: 6 DIHEDRALS
Info: 0 IMPROPERS
Info: 0 CROSSTERMS
Info: 2952 EXCLUSIONS
Info: 6 FIXED ATOMS
Info: 2939 RIGID BONDS
Info: 2 RIGID BONDS BETWEEN FIXED ATOMS
Info: 5874 DEGREES OF FREEDOM
Info: 983 HYDROGEN GROUPS
Info: 3 ATOMS IN LARGEST HYDROGEN GROUP
Info: 983 MIGRATION GROUPS
Info: 3 ATOMS IN LARGEST MIGRATION GROUP
Info: 4 HYDROGEN GROUPS WITH ALL ATOMS FIXED
Info: TOTAL MASS = 17734.6 amu
Info: TOTAL CHARGE = 0.000100017 e
Info: MASS DENSITY = 0.664009 g/cm^3
Info: ATOM DENSITY = 0.0663565 atoms/A^3
Info: ADDED 0 IMPLICIT EXCLUSIONS
Info: NONBONDED TABLE R-SQUARED SPACING: 0.0625
Info: NONBONDED TABLE SIZE: 705 POINTS
Info: REMOVING COM VELOCITY 0.00458437 -0.119583 0.0668711
TCL: Running for 100000 steps
ETITLE: TS BOND ANGLE DIHED IMPRP ELECT VDW BOUNDARY MISC KINETIC TOTAL TEMP POTENTIAL TOTAL3 TEMPAVG PRESSURE GPRESSURE VOLUME PRESSAVG GPRESSAVG
ENERGY: 0 0.0000 0.0000 0.0000 0.0000 -13627.7945 2417.8630 0.0000 0.0000 1755.7345 -9454.1970 300.8259 -11209.9315 -9453.8631 300.8259 536.5463 562.3188 44351.3118 536.5463 562.3188
ENERGY: 100000 0.0000 0.0000 0.0000 0.0000 -14259.1213 2496.7355 0.0000 0.0000 176.5127 -11585.8731 30.2435 -11762.3858 -11585.4778 30.9006 284.5876 304.4263 28722.5957 3.8928 3.9149
TCL: Running 100000 steps at 60 kelvin.
TCL: Setting parameter langevinTemp to 60
TCL: Running for 100000 steps
ETITLE: TS BOND ANGLE DIHED IMPRP ELECT VDW BOUNDARY MISC KINETIC TOTAL TEMP POTENTIAL TOTAL3 TEMPAVG PRESSURE GPRESSURE VOLUME PRESSAVG GPRESSAVG
ENERGY: 100000 0.0000 0.0000 0.0000 0.0000 -14259.1213 2496.7355 0.0000 0.0000 176.4220 -11585.9638 30.2280 -11762.3858 -11585.5747 30.2280 260.3523 304.4125 28722.5957 260.3523 304.4125
ENERGY: 200000 0.0000 0.0000 0.0000 0.0000 -14086.9816 2411.4309 0.0000 0.0000 350.4144 -11325.1363 60.0397 -11675.5507 -11323.7905 60.0357 32.8601 88.1352 28349.8895 4.0254 3.9525
TCL: Running 100000 steps at 90 kelvin.
TCL: Setting parameter langevinTemp to 90
TCL: Running for 100000 steps
ETITLE: TS BOND ANGLE DIHED IMPRP ELECT VDW BOUNDARY MISC KINETIC TOTAL TEMP POTENTIAL TOTAL3 TEMPAVG PRESSURE GPRESSURE VOLUME PRESSAVG GPRESSAVG
ENERGY: 200000 0.0000 0.0000 0.0000 0.0000 -14086.9816 2411.4309 0.0000 0.0000 350.2405 -11325.3102 60.0099 -11675.5507 -11324.6916 60.0099 38.2860 88.5042 28349.8895 38.2860 88.5042
ENERGY: 300000 0.0000 0.0000 0.0000 0.0000 -13987.8092 2426.8341 0.0000 0.0000 536.8906 -11024.0845 91.9903 -11560.9751 -11023.1941 90.2430 900.3813 956.0462 27821.6931 2.5981 2.5712
TCL: Running 100000 steps at 120 kelvin.
TCL: Setting parameter langevinTemp to 120
TCL: Running for 100000 steps
ETITLE: TS BOND ANGLE DIHED IMPRP ELECT VDW BOUNDARY MISC KINETIC TOTAL TEMP POTENTIAL TOTAL3 TEMPAVG PRESSURE GPRESSURE VOLUME PRESSAVG GPRESSAVG
ENERGY: 300000 0.0000 0.0000 0.0000 0.0000 -13987.8092 2426.8341 0.0000 0.0000 536.6246 -11024.3505 91.9448 -11560.9751 -11023.3042 91.9448 917.6887 956.2630 27821.6931 917.6887 956.2630
ENERGY: 400000 0.0000 0.0000 0.0000 0.0000 -13665.7040 2223.0357 0.0000 0.0000 703.7680 -10738.9003 120.5830 -11442.6683 -10737.3991 120.2687 -569.2317 -513.8724 28224.7861 3.1779 3.2364
TCL: Running 100000 steps at 150 kelvin.
TCL: Setting parameter langevinTemp to 150
TCL: Running for 100000 steps
ETITLE: TS BOND ANGLE DIHED IMPRP ELECT VDW BOUNDARY MISC KINETIC TOTAL TEMP POTENTIAL TOTAL3 TEMPAVG PRESSURE GPRESSURE VOLUME PRESSAVG GPRESSAVG
ENERGY: 400000 0.0000 0.0000 0.0000 0.0000 -13665.7040 2223.0357 0.0000 0.0000 703.4164 -10739.2519 120.5227 -11442.6683 -10737.6814 120.5227 -549.1149 -513.2038 28224.7861 -549.1149 -513.2038
ENERGY: 500000 0.0000 0.0000 0.0000 0.0000 -13741.2672 2390.0240 0.0000 0.0000 860.3563 -10490.8870 147.4127 -11351.2432 -10487.5556 150.0240 1154.8364 1185.0970 28291.5639 4.7754 4.8558
TCL: Running 100000 steps at 180 kelvin.
TCL: Setting parameter langevinTemp to 180
TCL: Running for 100000 steps
ETITLE: TS BOND ANGLE DIHED IMPRP ELECT VDW BOUNDARY MISC KINETIC TOTAL TEMP POTENTIAL TOTAL3 TEMPAVG PRESSURE GPRESSURE VOLUME PRESSAVG GPRESSAVG
ENERGY: 500000 0.0000 0.0000 0.0000 0.0000 -13741.2672 2390.0240 0.0000 0.0000 859.9170 -10491.3263 147.3374 -11351.2432 -10489.7894 147.3374 1123.3676 1186.1905 28291.5639 1123.3676 1186.1905
ENERGY: 600000 0.0000 0.0000 0.0000 0.0000 -13127.7412 2107.0937 0.0000 0.0000 1040.9417 -9979.7057 178.3540 -11020.6475 -9978.5971 180.2260 -198.7322 -139.1404 28790.7774 3.0338 2.9567
TCL: Running 100000 steps at 210 kelvin.
TCL: Setting parameter langevinTemp to 210
TCL: Running for 100000 steps
ETITLE: TS BOND ANGLE DIHED IMPRP ELECT VDW BOUNDARY MISC KINETIC TOTAL TEMP POTENTIAL TOTAL3 TEMPAVG PRESSURE GPRESSURE VOLUME PRESSAVG GPRESSAVG
ENERGY: 600000 0.0000 0.0000 0.0000 0.0000 -13127.7412 2107.0937 0.0000 0.0000 1040.4407 -9980.2067 178.2682 -11020.6475 -9978.3140 178.2682 -196.6224 -141.0242 28790.7774 -196.6224 -141.0242
ENERGY: 700000 0.0000 0.0000 0.0000 0.0000 -12374.5590 1887.3582 0.0000 0.0000 1252.5974 -9234.6034 214.6189 -10487.2007 -9230.8205 209.6896 116.4358 173.1065 28582.9600 2.9145 2.9251
TCL: Running 100000 steps at 240 kelvin.
TCL: Setting parameter langevinTemp to 240
TCL: Running for 100000 steps
ETITLE: TS BOND ANGLE DIHED IMPRP ELECT VDW BOUNDARY MISC KINETIC TOTAL TEMP POTENTIAL TOTAL3 TEMPAVG PRESSURE GPRESSURE VOLUME PRESSAVG GPRESSAVG
ENERGY: 700000 0.0000 0.0000 0.0000 0.0000 -12374.5590 1887.3582 0.0000 0.0000 1252.0212 -9235.1795 214.5202 -10487.2007 -9233.5678 214.5202 97.5609 175.2696 28582.9600 97.5609 175.2696
ENERGY: 800000 0.0000 0.0000 0.0000 0.0000 -11745.4768 1733.9431 0.0000 0.0000 1356.7143 -8654.8194 232.4582 -10011.5337 -8654.1076 240.3646 41.6582 132.5400 29490.7207 2.0205 1.9435
TCL: Running 100000 steps at 270 kelvin.
TCL: Setting parameter langevinTemp to 270
TCL: Running for 100000 steps
ETITLE: TS BOND ANGLE DIHED IMPRP ELECT VDW BOUNDARY MISC KINETIC TOTAL TEMP POTENTIAL TOTAL3 TEMPAVG PRESSURE GPRESSURE VOLUME PRESSAVG GPRESSAVG
ENERGY: 800000 0.0000 0.0000 0.0000 0.0000 -11745.4768 1733.9431 0.0000 0.0000 1356.0087 -8655.5250 232.3373 -10011.5337 -8653.5204 232.3373 33.8527 128.6998 29490.7207 33.8527 128.6998
ENERGY: 900000 0.0000 0.0000 0.0000 0.0000 -11130.5449 1546.3311 0.0000 0.0000 1596.0337 -7988.1801 273.4630 -9584.2138 -7985.5627 270.1068 -204.2533 -149.6438 30075.8865 4.3911 4.3567
TCL: Running 1000000 steps at 300 kelvin.
TCL: Setting parameter langevinTemp to 300
TCL: Running for 1000000 steps
ETITLE: TS BOND ANGLE DIHED IMPRP ELECT VDW BOUNDARY MISC KINETIC TOTAL TEMP POTENTIAL TOTAL3 TEMPAVG PRESSURE GPRESSURE VOLUME PRESSAVG GPRESSAVG
ENERGY: 900000 0.0000 0.0000 0.0000 0.0000 -11130.5449 1546.3311 0.0000 0.0000 1595.2798 -7988.9340 273.3338 -9584.2138 -7987.1381 273.3338 -232.2752 -152.1542 30075.8865 -232.2752 -152.1542
ENERGY: 1100000 0.0000 0.0000 0.0000 0.0000 -10624.6006 1399.5653 0.0000 0.0000 1719.8042 -7505.2310 294.6697 -9225.0352 -7500.1640 299.6500 -318.4731 -261.5657 30714.5587 2.7193 2.8115
ENERGY: 1300000 0.0000 0.0000 0.0000 0.0000 -10654.3776 1459.1801 0.0000 0.0000 1750.0298 -7445.1677 299.8485 -9195.1975 -7441.8986 300.0605 457.3017 551.5849 30298.5325 2.3148 2.4092
ENERGY: 1500000 0.0000 0.0000 0.0000 0.0000 -10782.2566 1524.3522 0.0000 0.0000 1756.1455 -7501.7590 300.8964 -9257.9044 -7497.0521 299.9929 631.5789 685.9834 30477.8717 4.0755 4.0176
ENERGY: 1700000 0.0000 0.0000 0.0000 0.0000 -10565.6369 1349.3643 0.0000 0.0000 1773.4749 -7442.7977 303.8656 -9216.2726 -7440.6281 301.2529 -814.2339 -736.9528 30781.1438 2.9751 2.9025
ENERGY: 1900000 0.0000 0.0000 0.0000 0.0000 -10588.5047 1365.7834 0.0000 0.0000 1758.8684 -7463.8529 301.3629 -9222.7213 -7458.8830 300.1697 -512.3961 -438.6494 30573.7153 2.6772 2.7332
TCL: Exiting due to exit command.
