Info: SIMULATION PARAMETERS:
Info: TIMESTEP               2
Info: NUMBER OF STEPS        0
Info: STEPS PER CYCLE        10
Info: PERIODIC CELL BASIS 1  34.986 0 0
Info: PERIODIC CELL BASIS 2  0 35.779 0
Info: PERIODIC CELL BASIS 3  0 0 35.516
Info: PERIODIC CELL CENTER   0 0 0
Info: WRAPPING WATERS AROUND PERIODIC BOUNDARIES ON OUTPUT.
Info: WRAPPING ALL CLUSTERS AROUND PERIODIC BOUNDARIES ON OUTPUT.
Info: FIRST LDB TIMESTEP     50
Info: LAST LDB TIMESTEP     -1
Info: HOM BACKGROUND SCALING 1
Info: PME BACKGROUND SCALING 1
Info: MIN ATOMS PER PATCH    40
Info: EMPTY PATCH LOAD       40 ATOMS
Info: INITIAL TEMPERATURE    300
Info: CENTER OF MASS MOVING INITIALLY? NO
Info: DIELECTRIC             1
Info: EXCLUDE                SCALED ONE-FOUR
Info: 1-4 ELECTROSTATICS SCALED BY 0.833333
Info: MODIFIED 1-4 VDW PARAMETERS WILL BE USED
Info: DCD FILENAME           mobley_210639_equil.dcd
Info: DCD FREQUENCY          100000
Info: DCD FIRST STEP         100000
Info: DCD FILE WILL CONTAIN UNIT CELL DATA
Info: XST FILENAME           mobley_210639_equil.xst
Info: XST FREQUENCY          100000
Info: NO VELOCITY DCD OUTPUT
Info: NO FORCE DCD OUTPUT
Info: OUTPUT FILENAME        mobley_210639_equil
Info: BINARY OUTPUT FILES WILL BE USED
Info: RESTART FILENAME       mobley_210639_equil.restart
Info: RESTART FREQUENCY      100000
Info: BINARY RESTART FILES WILL BE USED
Info: CUTOFF                 9
Info: PAIRLIST DISTANCE      11
Info: PAIRLIST SHRINK RATE   0.01
Info: PAIRLIST GROW RATE     0.01
Info: PAIRLIST TRIGGER       0.3
Info: PAIRLISTS PER CYCLE    2
Info: PAIRLISTS ENABLED
Info: MARGIN                 8
Info: HYDROGEN GROUP CUTOFF  2.5
Info: PATCH DIMENSION        21.5
Info: ENERGY OUTPUT STEPS    100000
Info: ENERGY EVALUATION STEPS    100000
Info: OUTPUT ENERGY PRECISION 4
Info: CROSSTERM ENERGY INCLUDED IN DIHEDRAL
Info: TIMING OUTPUT STEPS    1000000
Info: PRESSURE OUTPUT STEPS  100000
Info: LANGEVIN DYNAMICS ACTIVE
Info: LANGEVIN TEMPERATURE   30
Info: LANGEVIN USING BBK INTEGRATOR
Info: LANGEVIN DAMPING COEFFICIENT IS 1 INVERSE PS
Info: LANGEVIN DYNAMICS APPLIED TO HYDROGENS
Info: LANGEVIN PISTON PRESSURE CONTROL ACTIVE
Info:        TARGET PRESSURE IS 1.01325 BAR
Info:     OSCILLATION PERIOD IS 50 FS
Info:             DECAY TIME IS 25 FS
Info:     PISTON TEMPERATURE IS 300 K
Info:       PRESSURE CONTROL IS GROUP-BASED
Info:    INITIAL STRAIN RATE IS 0 0 0
Info:       CELL FLUCTUATION IS ISOTROPIC
Info: PARTICLE MESH EWALD (PME) ACTIVE
Info: PME TOLERANCE               1e-06
Info: PME EWALD COEFFICIENT       0.348832
Info: PME INTERPOLATION ORDER     4
Info: PME GRID DIMENSIONS         36 36 36
Info: PME MAXIMUM GRID SPACING    1
Info: FULL ELECTROSTATIC EVALUATION FREQUENCY      2
Info: USING VERLET I (r-RESPA) MTS SCHEME.
Info: C1 SPLITTING OF LONG RANGE ELECTROSTATICS
Info: PLACING ATOMS IN PATCHES BY HYDROGEN GROUPS
Info: RIGID BONDS TO HYDROGEN : ALL
Info:         ERROR TOLERANCE : 1e-08
Info:          MAX ITERATIONS : 100
Info: RIGID WATER USING SETTLE ALGORITHM
Info: RANDOM NUMBER SEED     1743161141
Info: USE HYDROGEN BONDS?    NO
Info: Using AMBER format force field!
Info: AMBER PARM FILE        mobley_210639.prmtop
Info: COORDINATE PDB         mobley_210639.pdb
Info: Exclusions will be read from PARM file!
Info: SCNB (VDW SCALING)     2
Info: USING ARITHMETIC MEAN TO COMBINE L-J SIGMA PARAMETERS
Info: BINARY COORDINATES     mobley_210639_min.coor
Info: SUMMARY OF PARAMETERS:
Info: 6 BONDS
Info: 6 ANGLES
Info:   6 HARMONIC
Info:   0 COSINE-BASED
Info: 2 DIHEDRAL
Info: 0 IMPROPER
Info: 0 CROSSTERM
Info: 0 VDW
Info: 21 VDW_PAIRS
Info: 0 NBTHOLE_PAIRS
Info: STRUCTURE SUMMARY:
Info: 2900 ATOMS
Info: 2899 BONDS
Info: 18 ANGLES
Info: 18 DIHEDRALS
Info: 0 IMPROPERS
Info: 0 CROSSTERMS
Info: 2935 EXCLUSIONS
Info: 2896 RIGID BONDS
Info: 5804 DEGREES OF FREEDOM
Info: 967 HYDROGEN GROUPS
Info: 4 ATOMS IN LARGEST HYDROGEN GROUP
Info: 967 MIGRATION GROUPS
Info: 4 ATOMS IN LARGEST MIGRATION GROUP
Info: TOTAL MASS = 17519.4 amu
Info: TOTAL CHARGE = -7.45058e-09 e
Info: MASS DENSITY = 0.654383 g/cm^3
Info: ATOM DENSITY = 0.0652306 atoms/A^3
Info: ADDED 0 IMPLICIT EXCLUSIONS
Info: NONBONDED TABLE R-SQUARED SPACING: 0.0625
Info: NONBONDED TABLE SIZE: 705 POINTS
Info: REMOVING COM VELOCITY -0.0134119 -0.124727 -0.180656
TCL: Running for 100000 steps
ETITLE: TS BOND ANGLE DIHED IMPRP ELECT VDW BOUNDARY MISC KINETIC TOTAL TEMP POTENTIAL TOTAL3 TEMPAVG PRESSURE GPRESSURE VOLUME PRESSAVG GPRESSAVG
ENERGY: 0 0.0070 0.1141 0.0249 0.0000 -13458.7670 2403.8440 0.0000 0.0000 1701.3397 -9353.4374 295.0217 -11054.7771 -9353.1040 295.0217 617.5800 650.8004 44457.6536 617.5800 650.8004
ENERGY: 100000 0.0282 0.5750 0.1191 0.0000 -14021.4955 2468.3209 0.0000 0.0000 173.2833 -11379.1689 30.0483 -11552.4523 -11378.5171 30.9237 64.5470 140.2914 28781.2272 3.5903 3.6354
TCL: Running 100000 steps at 60 kelvin.
TCL: Setting parameter langevinTemp to 60
TCL: Running for 100000 steps
ETITLE: TS BOND ANGLE DIHED IMPRP ELECT VDW BOUNDARY MISC KINETIC TOTAL TEMP POTENTIAL TOTAL3 TEMPAVG PRESSURE GPRESSURE VOLUME PRESSAVG GPRESSAVG
ENERGY: 100000 0.0282 0.5750 0.1191 0.0000 -14021.4955 2468.3209 0.0000 0.0000 173.1928 -11379.2595 30.0326 -11552.4523 -11378.9316 30.0326 88.2793 140.6321 28781.2272 88.2793 140.6321
ENERGY: 200000 0.1921 1.0655 0.2407 0.0000 -13823.1698 2343.8906 0.0000 0.0000 346.7234 -11131.0574 60.1238 -11477.7808 -11130.1705 59.8506 -538.8312 -479.2279 28771.4070 3.4933 3.4567
TCL: Running 100000 steps at 90 kelvin.
TCL: Setting parameter langevinTemp to 90
TCL: Running for 100000 steps
ETITLE: TS BOND ANGLE DIHED IMPRP ELECT VDW BOUNDARY MISC KINETIC TOTAL TEMP POTENTIAL TOTAL3 TEMPAVG PRESSURE GPRESSURE VOLUME PRESSAVG GPRESSAVG
ENERGY: 200000 0.1921 1.0655 0.2407 0.0000 -13823.1698 2343.8906 0.0000 0.0000 346.5514 -11131.2294 60.0939 -11477.7808 -11130.6722 60.0939 -534.9213 -478.8569 28771.4070 -534.9213 -478.8569
ENERGY: 300000 0.7535 1.2722 0.2718 0.0000 -13854.2808 2458.9706 0.0000 0.0000 536.9001 -10856.1126 93.1015 -11393.0127 -10854.6327 89.9326 961.6931 966.6704 28286.6340 4.0792 3.9578
TCL: Running 100000 steps at 120 kelvin.
TCL: Setting parameter langevinTemp to 120
TCL: Running for 100000 steps
ETITLE: TS BOND ANGLE DIHED IMPRP ELECT VDW BOUNDARY MISC KINETIC TOTAL TEMP POTENTIAL TOTAL3 TEMPAVG PRESSURE GPRESSURE VOLUME PRESSAVG GPRESSAVG
ENERGY: 300000 0.7535 1.2722 0.2718 0.0000 -13854.2808 2458.9706 0.0000 0.0000 536.6439 -10856.3688 93.0570 -11393.0127 -10855.4998 93.0570 923.2392 966.7555 28286.6340 923.2392 966.7555
ENERGY: 400000 0.2991 1.5138 0.3085 0.0000 -13481.0583 2238.5637 0.0000 0.0000 681.7126 -10558.6607 118.2127 -11240.3732 -10557.1382 119.6189 -497.5465 -453.4405 28642.2478 4.0322 3.9071
TCL: Running 100000 steps at 150 kelvin.
TCL: Setting parameter langevinTemp to 150
TCL: Running for 100000 steps
ETITLE: TS BOND ANGLE DIHED IMPRP ELECT VDW BOUNDARY MISC KINETIC TOTAL TEMP POTENTIAL TOTAL3 TEMPAVG PRESSURE GPRESSURE VOLUME PRESSAVG GPRESSAVG
ENERGY: 400000 0.2991 1.5138 0.3085 0.0000 -13481.0583 2238.5637 0.0000 0.0000 681.3743 -10558.9989 118.1541 -11240.3732 -10557.4771 118.1541 -506.1907 -454.6543 28642.2478 -506.1907 -454.6543
ENERGY: 500000 1.0735 3.1027 0.1701 0.0000 -13380.1652 2256.4187 0.0000 0.0000 880.5089 -10238.8912 152.6851 -11119.4001 -10237.4886 150.2178 234.4714 271.8379 28511.1753 4.6940 4.7357
TCL: Running 100000 steps at 180 kelvin.
TCL: Setting parameter langevinTemp to 180
TCL: Running for 100000 steps
ETITLE: TS BOND ANGLE DIHED IMPRP ELECT VDW BOUNDARY MISC KINETIC TOTAL TEMP POTENTIAL TOTAL3 TEMPAVG PRESSURE GPRESSURE VOLUME PRESSAVG GPRESSAVG
ENERGY: 500000 1.0735 3.1027 0.1701 0.0000 -13380.1652 2256.4187 0.0000 0.0000 880.0803 -10239.3198 152.6108 -11119.4001 -10237.6520 152.6108 222.5946 270.3084 28511.1753 222.5946 270.3084
ENERGY: 600000 0.3097 2.3123 0.1224 0.0000 -12792.4683 2012.9891 0.0000 0.0000 1013.3152 -9763.4196 175.7145 -10776.7348 -9760.3364 180.1781 -560.4466 -517.3214 28535.2029 4.1020 4.2534
TCL: Running 100000 steps at 210 kelvin.
TCL: Setting parameter langevinTemp to 210
TCL: Running for 100000 steps
ETITLE: TS BOND ANGLE DIHED IMPRP ELECT VDW BOUNDARY MISC KINETIC TOTAL TEMP POTENTIAL TOTAL3 TEMPAVG PRESSURE GPRESSURE VOLUME PRESSAVG GPRESSAVG
ENERGY: 600000 0.3097 2.3123 0.1224 0.0000 -12792.4683 2012.9891 0.0000 0.0000 1012.8222 -9763.9126 175.6290 -10776.7348 -9761.9822 175.6290 -575.4842 -516.5213 28535.2029 -575.4842 -516.5213
ENERGY: 700000 0.9105 4.2028 0.5915 0.0000 -12170.8408 1914.8442 0.0000 0.0000 1259.0609 -8991.2310 218.3281 -10250.2919 -8989.9098 210.4720 727.5070 817.6680 28296.8193 1.8165 1.6816
TCL: Running 100000 steps at 240 kelvin.
TCL: Setting parameter langevinTemp to 240
TCL: Running for 100000 steps
ETITLE: TS BOND ANGLE DIHED IMPRP ELECT VDW BOUNDARY MISC KINETIC TOTAL TEMP POTENTIAL TOTAL3 TEMPAVG PRESSURE GPRESSURE VOLUME PRESSAVG GPRESSAVG
ENERGY: 700000 0.9105 4.2028 0.5915 0.0000 -12170.8408 1914.8442 0.0000 0.0000 1258.4558 -8991.8361 218.2232 -10250.2919 -8990.0482 218.2232 745.5997 816.6723 28296.8193 745.5997 816.6723
ENERGY: 800000 0.4230 6.7198 1.2354 0.0000 -11610.2119 1693.1684 0.0000 0.0000 1411.4433 -8497.2219 244.7521 -9908.6652 -8494.4598 239.4483 249.8521 324.2773 28364.3710 3.2854 3.2526
TCL: Running 100000 steps at 270 kelvin.
TCL: Setting parameter langevinTemp to 270
TCL: Running for 100000 steps
ETITLE: TS BOND ANGLE DIHED IMPRP ELECT VDW BOUNDARY MISC KINETIC TOTAL TEMP POTENTIAL TOTAL3 TEMPAVG PRESSURE GPRESSURE VOLUME PRESSAVG GPRESSAVG
ENERGY: 800000 0.4230 6.7198 1.2354 0.0000 -11610.2119 1693.1684 0.0000 0.0000 1410.7884 -8497.8768 244.6385 -9908.6652 -8496.4324 244.6385 232.0267 322.8921 28364.3710 232.0267 322.8921
ENERGY: 900000 2.1677 3.7249 0.4361 0.0000 -11103.1013 1584.7959 0.0000 0.0000 1608.3295 -7903.6472 278.8933 -9511.9767 -7898.5041 269.8425 334.0025 425.0604 28907.7999 2.8064 2.7618
TCL: Running 1000000 steps at 300 kelvin.
TCL: Setting parameter langevinTemp to 300
TCL: Running for 1000000 steps
ETITLE: TS BOND ANGLE DIHED IMPRP ELECT VDW BOUNDARY MISC KINETIC TOTAL TEMP POTENTIAL TOTAL3 TEMPAVG PRESSURE GPRESSURE VOLUME PRESSAVG GPRESSAVG
ENERGY: 900000 2.1677 3.7249 0.4361 0.0000 -11103.1013 1584.7959 0.0000 0.0000 1607.5412 -7904.4355 278.7566 -9511.9767 -7901.4735 278.7566 336.1129 425.5571 28907.7999 336.1129 425.5571
ENERGY: 1100000 0.6272 4.5034 1.9435 0.0000 -10520.9228 1419.3150 0.0000 0.0000 1735.6816 -7358.8520 300.9768 -9094.5337 -7355.5591 300.6623 255.4799 318.0074 29759.7736 3.2123 3.2673
ENERGY: 1300000 0.6942 7.5457 0.4117 0.0000 -10486.1345 1348.2730 0.0000 0.0000 1661.0215 -7468.1885 288.0303 -9129.2100 -7466.2969 299.9924 -694.9596 -646.8485 30083.1615 4.8078 4.8423
ENERGY: 1500000 1.3391 5.3084 0.4864 0.0000 -10508.3029 1417.6879 0.0000 0.0000 1687.3835 -7396.0976 292.6017 -9083.4811 -7395.0318 300.2605 290.5116 363.3792 29448.8046 2.0674 1.7883
ENERGY: 1700000 0.7862 7.2551 0.4071 0.0000 -10688.2543 1469.0895 0.0000 0.0000 1714.7407 -7495.9757 297.3455 -9210.7164 -7493.6547 299.5890 120.0315 154.1312 29791.5561 3.0395 3.0281
ENERGY: 1900000 0.2469 2.9115 0.0801 0.0000 -10414.3390 1386.1076 0.0000 0.0000 1710.3099 -7314.6829 296.5772 -9024.9928 -7309.6778 300.1265 -17.9268 80.8237 30044.9837 4.3231 4.5433
TCL: Exiting due to exit command.
