Info: SIMULATION PARAMETERS:
Info: TIMESTEP               2
Info: NUMBER OF STEPS        0
Info: STEPS PER CYCLE        10
Info: PERIODIC CELL BASIS 1  31.7308 0 0
Info: PERIODIC CELL BASIS 2  0 31.2073 0
Info: PERIODIC CELL BASIS 3  0 0 30.8046
Info: PERIODIC CELL CENTER   0 0 0
Info: WRAPPING WATERS AROUND PERIODIC BOUNDARIES ON OUTPUT.
Info: WRAPPING ALL CLUSTERS AROUND PERIODIC BOUNDARIES ON OUTPUT.
Info: FIRST LDB TIMESTEP     50
Info: LAST LDB TIMESTEP     -1
Info: HOM BACKGROUND SCALING 1
Info: PME BACKGROUND SCALING 1
Info: MIN ATOMS PER PATCH    40
Info: EMPTY PATCH LOAD       40 ATOMS
Info: VELOCITY FILE          mobley_8983100_equil.vel
Info: CENTER OF MASS MOVING INITIALLY? NO
Info: DIELECTRIC             1
Info: EXCLUDE                SCALED ONE-FOUR
Info: 1-4 ELECTROSTATICS SCALED BY 0.833333
Info: MODIFIED 1-4 VDW PARAMETERS WILL BE USED
Info: DCD FILENAME           mobley_8983100_prod.dcd
Info: DCD FREQUENCY          100000
Info: DCD FIRST STEP         100000
Info: DCD FILE WILL CONTAIN UNIT CELL DATA
Info: XST FILENAME           mobley_8983100_prod.xst
Info: XST FREQUENCY          100000
Info: NO VELOCITY DCD OUTPUT
Info: NO FORCE DCD OUTPUT
Info: OUTPUT FILENAME        mobley_8983100_prod
Info: BINARY OUTPUT FILES WILL BE USED
Info: RESTART FILENAME       mobley_8983100_prod.restart
Info: RESTART FREQUENCY      100000
Info: BINARY RESTART FILES WILL BE USED
Info: CUTOFF                 9
Info: PAIRLIST DISTANCE      11
Info: PAIRLIST SHRINK RATE   0.01
Info: PAIRLIST GROW RATE     0.01
Info: PAIRLIST TRIGGER       0.3
Info: PAIRLISTS PER CYCLE    2
Info: PAIRLISTS ENABLED
Info: MARGIN                 2
Info: HYDROGEN GROUP CUTOFF  2.5
Info: PATCH DIMENSION        15.5
Info: ENERGY OUTPUT STEPS    100000
Info: ENERGY EVALUATION STEPS    100000
Info: OUTPUT ENERGY PRECISION 4
Info: CROSSTERM ENERGY INCLUDED IN DIHEDRAL
Info: TIMING OUTPUT STEPS    1000000
Info: PRESSURE OUTPUT STEPS  100000
Info: ALCHEMICAL FEP ON
Info: FEP CURRENT LAMBDA VALUE     0
Info: FEP COMPARISON LAMBDA VALUE  0.05
Info: FEP INTRA-ALCHEMICAL NON-BONDED INTERACTIONS WILL BE RETAINED
Info: FEP INTRA-ALCHEMICAL BONDED INTERACTIONS WILL BE RETAINED
Info: FEP VDW SHIFTING COEFFICIENT 5
Info: FEP ELEC. ACTIVE FOR ANNIHILATED PARTICLES BETWEEN LAMBDA = 0 AND LAMBDA = 0.5
Info: FEP ELEC. ACTIVE FOR EXNIHILATED PARTICLES BETWEEN LAMBDA = 0.5 AND LAMBDA = 1
Info: FEP VDW ACTIVE FOR ANNIHILATED PARTICLES BETWEEN LAMBDA = 0 AND LAMBDA = 1
Info: FEP VDW ACTIVE FOR EXNIHILATED PARTICLES BETWEEN LAMBDA = 0 AND LAMBDA = 1
Info: FEP BOND ACTIVE FOR ANNIHILATED PARTICLES BETWEEN LAMBDA = 1 AND LAMBDA = 1
Info: FEP BOND ACTIVE FOR EXNIHILATED PARTICLES BETWEEN LAMBDA = 0 AND LAMBDA = 0
Info: LANGEVIN DYNAMICS ACTIVE
Info: LANGEVIN TEMPERATURE   300
Info: LANGEVIN USING BBK INTEGRATOR
Info: LANGEVIN DAMPING COEFFICIENT IS 1 INVERSE PS
Info: LANGEVIN DYNAMICS APPLIED TO HYDROGENS
Info: LANGEVIN PISTON PRESSURE CONTROL ACTIVE
Info:        TARGET PRESSURE IS 1.01325 BAR
Info:     OSCILLATION PERIOD IS 50 FS
Info:             DECAY TIME IS 25 FS
Info:     PISTON TEMPERATURE IS 300 K
Info:       PRESSURE CONTROL IS GROUP-BASED
Info:    INITIAL STRAIN RATE IS -0.000276896 -0.000276896 -0.000276896
Info:       CELL FLUCTUATION IS ISOTROPIC
Info: PARTICLE MESH EWALD (PME) ACTIVE
Info: PME TOLERANCE               1e-06
Info: PME EWALD COEFFICIENT       0.348832
Info: PME INTERPOLATION ORDER     4
Info: PME GRID DIMENSIONS         32 32 32
Info: PME MAXIMUM GRID SPACING    1
Info: PME CALCULATION WILL BE PERFORMED ON GPU
Info: FULL ELECTROSTATIC EVALUATION FREQUENCY      2
Info: USING VERLET I (r-RESPA) MTS SCHEME.
Info: C1 SPLITTING OF LONG RANGE ELECTROSTATICS
Info: PLACING ATOMS IN PATCHES BY HYDROGEN GROUPS
Info: RIGID BONDS TO HYDROGEN : ALL
Info:         ERROR TOLERANCE : 1e-08
Info:          MAX ITERATIONS : 100
Info: RIGID WATER USING SETTLE ALGORITHM
Info: RANDOM NUMBER SEED     1743464441
Info: USE HYDROGEN BONDS?    NO
Info: Using AMBER format force field!
Info: AMBER PARM FILE        mobley_8983100.prmtop
Info: COORDINATE PDB         mobley_8983100.pdb
Info: Exclusions will be read from PARM file!
Info: SCNB (VDW SCALING)     2
Info: USING ARITHMETIC MEAN TO COMBINE L-J SIGMA PARAMETERS
Info: BINARY COORDINATES     mobley_8983100_equil.coor
Info: SUMMARY OF PARAMETERS:
Info: 4 BONDS
Info: 2 ANGLES
Info:   2 HARMONIC
Info:   0 COSINE-BASED
Info: 0 DIHEDRAL
Info: 0 IMPROPER
Info: 0 CROSSTERM
Info: 0 VDW
Info: 15 VDW_PAIRS
Info: 0 NBTHOLE_PAIRS
Info: To read alchdata from file: mobley_8983100.pdb
Info: To read alchflag data from column: 5
Info: STRUCTURE SUMMARY:
Info: 2960 ATOMS
Info: 2959 BONDS
Info: 6 ANGLES
Info: 0 DIHEDRALS
Info: 0 IMPROPERS
Info: 0 CROSSTERMS
Info: 2965 EXCLUSIONS
Info: 2958 RIGID BONDS
Info: ALCH: 0 ATOMS TO DISAPPEAR IN FINAL STATE
Info: ALCH: 5 ATOMS TO APPEAR IN FINAL STATE
Info: 5922 DEGREES OF FREEDOM
Info: 987 HYDROGEN GROUPS
Info: 4 ATOMS IN LARGEST HYDROGEN GROUP
Info: 987 MIGRATION GROUPS
Info: 4 ATOMS IN LARGEST MIGRATION GROUP
Info: TOTAL MASS = 17840.7 amu
Info: TOTAL CHARGE = 3.72529e-09 e
Info: MASS DENSITY = 0.971221 g/cm^3
Info: ATOM DENSITY = 0.0970373 atoms/A^3
Info: ADDED 0 IMPLICIT EXCLUSIONS
Info: NONBONDED TABLE R-SQUARED SPACING: 0.0625
Info: NONBONDED TABLE SIZE: 705 POINTS
Info: REDUCING NUMBER OF PATCHES TO IMPROVE LOAD BALANCE
Info: REMOVING COM VELOCITY -0.181723 0.123768 -0.159271
Info: Use 3D box decompostion in PME FFT.
Info: Updated CUDA force table with 4096 elements.
Info: Updated CUDA LJ table with 5 x 5 elements.
Info: Found 8 unique exclusion lists needing 8 bytes
TCL: Running for 1500000 steps
ETITLE: TS BOND ANGLE DIHED IMPRP ELECT VDW BOUNDARY MISC KINETIC TOTAL TEMP POTENTIAL TOTALAVG TEMPAVG PRESSURE GPRESSURE VOLUME PRESSAVG GPRESSAVG
ENERGY: 0 0.4434 1.0564 0.0000 0.0000 -10814.5732 1493.2545 0.0000 0.0000 1762.8559 -7556.9630 299.5979 -9319.8189 -7556.9630 299.5979 187.2257 276.2793 30503.7350 187.2257 276.2793
ENERGY: 300000 0.4361 3.1226 0.0000 0.0000 -10640.4808 1417.5778 0.0000 0.0000 1734.7189 -7484.6254 294.8160 -9219.3443 -7559.5594 295.8656 -216.8971 -95.7600 30555.1820 -154.9947 -79.7660
ENERGY: 600000 0.6455 1.5115 0.0000 0.0000 -10722.7020 1454.5394 0.0000 0.0000 1728.8219 -7537.1837 293.8138 -9266.0056 -7565.0839 297.5498 306.7377 363.5624 30202.3327 -5.0914 66.8997
ENERGY: 900000 1.4226 0.9314 0.0000 0.0000 -10619.1021 1335.3387 0.0000 0.0000 1789.3121 -7492.0973 304.0942 -9281.4094 -7556.3793 298.6069 -1010.5578 -960.1757 30766.6903 -98.5406 -37.8383
ENERGY: 1200000 0.2349 4.9717 0.0000 0.0000 -10683.4784 1400.6250 0.0000 0.0000 1833.8317 -7443.8152 311.6603 -9277.6468 -7538.5598 300.4314 -274.6101 -191.2885 30476.2292 -48.9419 6.9513
ENERGY: 1500000 0.0922 1.8694 0.0000 0.0000 -10982.3194 1600.6813 0.0000 0.0000 1754.5416 -7625.1349 298.1849 -9379.6765 -7548.9781 299.9352 1373.1584 1407.9703 29483.7685 142.2166 196.7242
TCL: Running FEP window   2: Lambda1 0.05   Lambda2 0.1    [dLambda 0.05  ]
TCL: Setting parameter firsttimestep to 0
TCL: Setting parameter alchLambda to 0.05
Info: NONBONDED TABLE R-SQUARED SPACING: 0.0625
Info: NONBONDED TABLE SIZE: 705 POINTS
TCL: Setting parameter alchLambda2 to 0.1
Info: NONBONDED TABLE R-SQUARED SPACING: 0.0625
Info: NONBONDED TABLE SIZE: 705 POINTS
TCL: Running for 1500000 steps
ETITLE: TS BOND ANGLE DIHED IMPRP ELECT VDW BOUNDARY MISC KINETIC TOTAL TEMP POTENTIAL TOTALAVG TEMPAVG PRESSURE GPRESSURE VOLUME PRESSAVG GPRESSAVG
ENERGY: 0 0.0922 1.8694 0.0000 0.0000 -10982.3195 1603.4249 0.0000 0.0000 1753.6522 -7623.2808 298.0338 -9376.9331 -7623.2808 298.0338 1319.4846 1413.1414 29483.7685 1319.4846 1413.1414
ENERGY: 300000 0.0879 2.5008 0.0000 0.0000 -10942.6466 1537.5804 0.0000 0.0000 1795.8627 -7606.6148 305.2074 -9402.4775 -7557.5635 301.3817 456.4779 537.7959 30287.3319 485.7297 572.5161
ENERGY: 600000 0.0022 3.3177 0.0000 0.0000 -10800.7171 1513.7326 0.0000 0.0000 1767.6696 -7515.9951 300.4160 -9283.6647 -7559.6824 299.8312 477.5200 499.4614 30688.9937 356.4770 426.3855
ENERGY: 900000 0.0894 2.7502 0.0000 0.0000 -10753.7758 1391.9877 0.0000 0.0000 1790.6082 -7568.3404 304.3144 -9358.9486 -7553.2148 300.1530 -803.0494 -672.5613 30745.0929 153.3441 235.4694
ENERGY: 1200000 0.3739 1.1689 0.0000 0.0000 -10600.3381 1378.9391 0.0000 0.0000 1727.5346 -7492.3216 293.5950 -9219.8561 -7548.0445 299.2915 -431.7266 -327.8481 30654.0078 29.7531 117.4393
ENERGY: 1500000 1.2381 2.1012 0.0000 0.0000 -10706.6545 1464.9086 0.0000 0.0000 1752.9384 -7485.4681 297.9124 -9238.4066 -7546.7067 299.0346 12.1271 79.0891 30862.7272 73.5373 160.2079
TCL: Running FEP window   3: Lambda1 0.1    Lambda2 0.15000000000000002 [dLambda 0.05000000000000002]
TCL: Setting parameter firsttimestep to 0
TCL: Setting parameter alchLambda to 0.1
Info: NONBONDED TABLE R-SQUARED SPACING: 0.0625
Info: NONBONDED TABLE SIZE: 705 POINTS
TCL: Setting parameter alchLambda2 to 0.15000000000000002
Info: NONBONDED TABLE R-SQUARED SPACING: 0.0625
Info: NONBONDED TABLE SIZE: 705 POINTS
TCL: Running for 1500000 steps
ETITLE: TS BOND ANGLE DIHED IMPRP ELECT VDW BOUNDARY MISC KINETIC TOTAL TEMP POTENTIAL TOTALAVG TEMPAVG PRESSURE GPRESSURE VOLUME PRESSAVG GPRESSAVG
ENERGY: 0 1.2381 2.1012 0.0000 0.0000 -10706.6533 1466.0819 0.0000 0.0000 1752.0346 -7485.1975 297.7588 -9237.2320 -7485.1975 297.7588 1.3649 84.4539 30862.7272 1.3649 84.4539
ENERGY: 300000 0.0051 3.9995 0.0000 0.0000 -10711.9534 1464.7757 0.0000 0.0000 1698.9131 -7544.2599 288.7308 -9243.1730 -7530.4312 298.4431 13.6392 113.0863 30718.8577 210.3227 289.5174
ENERGY: 600000 0.0218 2.5281 0.0000 0.0000 -10816.8143 1487.7339 0.0000 0.0000 1784.7576 -7541.7730 303.3201 -9326.5305 -7535.8446 300.2837 218.2869 221.0272 30547.3544 118.4485 192.3144
ENERGY: 900000 0.0070 0.8464 0.0000 0.0000 -10652.4230 1336.9708 0.0000 0.0000 1781.3690 -7533.2298 302.7442 -9314.5988 -7538.4746 300.1538 -1115.3978 -1057.1610 31078.5435 -82.1764 2.6069
ENERGY: 1200000 0.0005 2.6033 0.0000 0.0000 -10729.0876 1440.8177 0.0000 0.0000 1822.5973 -7463.0687 309.7510 -9285.6660 -7531.4506 300.6633 56.4942 181.2978 30164.5812 -102.0402 -16.9594
ENERGY: 1500000 0.1831 1.1451 0.0000 0.0000 -10696.1856 1416.6109 0.0000 0.0000 1750.3633 -7527.8833 297.4748 -9278.2466 -7536.2362 300.8577 -33.5928 9.3814 30289.7897 -115.2196 -36.9361
TCL: Running FEP window   4: Lambda1 0.15000000000000002 Lambda2 0.2    [dLambda 0.04999999999999999]
TCL: Setting parameter firsttimestep to 0
TCL: Setting parameter alchLambda to 0.15000000000000002
Info: NONBONDED TABLE R-SQUARED SPACING: 0.0625
Info: NONBONDED TABLE SIZE: 705 POINTS
TCL: Setting parameter alchLambda2 to 0.2
Info: NONBONDED TABLE R-SQUARED SPACING: 0.0625
Info: NONBONDED TABLE SIZE: 705 POINTS
TCL: Running for 1500000 steps
ETITLE: TS BOND ANGLE DIHED IMPRP ELECT VDW BOUNDARY MISC KINETIC TOTAL TEMP POTENTIAL TOTALAVG TEMPAVG PRESSURE GPRESSURE VOLUME PRESSAVG GPRESSAVG
ENERGY: 0 0.1831 1.1451 0.0000 0.0000 -10696.1871 1416.7458 0.0000 0.0000 1749.5170 -7528.5962 297.3310 -9278.1131 -7528.5962 297.3310 -65.2859 11.5150 30289.7897 -65.2859 11.5150
ENERGY: 300000 0.0608 1.3513 0.0000 0.0000 -10775.2758 1425.0370 0.0000 0.0000 1777.0787 -7571.7480 302.0151 -9348.8267 -7566.8000 297.6288 -252.5270 -181.6105 30343.8421 -20.7718 46.0803
ENERGY: 600000 0.1236 2.6485 0.0000 0.0000 -10732.9197 1437.9687 0.0000 0.0000 1760.9634 -7531.2156 299.2763 -9292.1790 -7555.4717 298.6543 -170.9970 -103.4204 30490.7149 -21.5244 42.9264
ENERGY: 900000 0.0499 3.6042 0.0000 0.0000 -10812.5158 1501.0809 0.0000 0.0000 1720.5475 -7587.2334 292.4076 -9307.7809 -7560.9598 297.6986 471.1924 566.0388 30283.8593 -37.3144 29.9856
ENERGY: 1200000 0.6762 1.4898 0.0000 0.0000 -10901.4870 1566.7645 0.0000 0.0000 1783.7124 -7548.8441 303.1425 -9332.5565 -7564.0628 298.2935 768.9863 858.2488 30360.7300 -3.9020 66.6933
ENERGY: 1500000 0.2475 3.0479 0.0000 0.0000 -10631.5301 1375.0629 0.0000 0.0000 1750.3170 -7502.8549 297.4669 -9253.1719 -7558.5796 298.3249 -504.4618 -435.7714 30764.3832 -43.5364 28.3474
TCL: Running FEP window   5: Lambda1 0.2    Lambda2 0.25   [dLambda 0.04999999999999999]
TCL: Setting parameter firsttimestep to 0
TCL: Setting parameter alchLambda to 0.2
Info: NONBONDED TABLE R-SQUARED SPACING: 0.0625
Info: NONBONDED TABLE SIZE: 705 POINTS
TCL: Setting parameter alchLambda2 to 0.25
Info: NONBONDED TABLE R-SQUARED SPACING: 0.0625
Info: NONBONDED TABLE SIZE: 705 POINTS
TCL: Running for 1500000 steps
ETITLE: TS BOND ANGLE DIHED IMPRP ELECT VDW BOUNDARY MISC KINETIC TOTAL TEMP POTENTIAL TOTALAVG TEMPAVG PRESSURE GPRESSURE VOLUME PRESSAVG GPRESSAVG
ENERGY: 0 0.2475 3.0479 0.0000 0.0000 -10631.5302 1374.8344 0.0000 0.0000 1749.4622 -7503.9382 297.3217 -9253.4004 -7503.9382 297.3217 -539.2521 -435.2615 30764.3832 -539.2521 -435.2615
ENERGY: 300000 0.0139 0.6763 0.0000 0.0000 -10807.6028 1453.0234 0.0000 0.0000 1786.4694 -7567.4198 303.6110 -9353.8892 -7546.4804 299.1203 -131.4749 -21.1446 30379.1798 -66.3842 5.8657
ENERGY: 600000 0.5310 1.7228 0.0000 0.0000 -10830.2339 1470.2555 0.0000 0.0000 1754.9704 -7602.7541 298.2578 -9357.7245 -7573.5597 298.4340 -116.2455 -60.1311 30581.1792 4.2478 70.9796
ENERGY: 900000 0.0315 1.5137 0.0000 0.0000 -10798.2566 1469.9977 0.0000 0.0000 1748.8952 -7577.8185 297.2253 -9326.7137 -7570.6582 299.1158 140.4954 149.6491 30404.2656 -9.4825 48.9220
ENERGY: 1200000 0.0004 3.8248 0.0000 0.0000 -10763.9724 1437.9355 0.0000 0.0000 1755.9275 -7566.2841 298.4204 -9322.2116 -7565.4218 299.4528 -240.5551 -223.5675 30638.9191 9.1992 65.8074
ENERGY: 1500000 0.0226 1.4979 0.0000 0.0000 -10681.1746 1409.5142 0.0000 0.0000 1798.4400 -7471.6999 305.6455 -9270.1399 -7560.4414 299.4709 -107.4743 -69.2960 30402.9011 65.6449 119.5816
TCL: Running FEP window   6: Lambda1 0.25   Lambda2 0.3    [dLambda 0.04999999999999999]
TCL: Setting parameter firsttimestep to 0
TCL: Setting parameter alchLambda to 0.25
Info: NONBONDED TABLE R-SQUARED SPACING: 0.0625
Info: NONBONDED TABLE SIZE: 705 POINTS
TCL: Setting parameter alchLambda2 to 0.3
Info: NONBONDED TABLE R-SQUARED SPACING: 0.0625
Info: NONBONDED TABLE SIZE: 705 POINTS
TCL: Running for 1500000 steps
ETITLE: TS BOND ANGLE DIHED IMPRP ELECT VDW BOUNDARY MISC KINETIC TOTAL TEMP POTENTIAL TOTALAVG TEMPAVG PRESSURE GPRESSURE VOLUME PRESSAVG GPRESSAVG
ENERGY: 0 0.0226 1.4979 0.0000 0.0000 -10681.1749 1409.7494 0.0000 0.0000 1797.5829 -7472.3221 305.4998 -9269.9050 -7472.3221 305.4998 -149.9266 -64.4866 30402.9011 -149.9266 -64.4866
ENERGY: 300000 0.0840 2.3956 0.0000 0.0000 -10931.7275 1558.8405 0.0000 0.0000 1776.2212 -7594.1862 301.8694 -9370.4074 -7516.5539 301.8584 501.9478 529.5817 30728.9380 53.6520 86.4114
ENERGY: 600000 0.4951 1.3713 0.0000 0.0000 -10732.8534 1397.6636 0.0000 0.0000 1733.5407 -7599.7827 294.6158 -9333.3235 -7510.8048 301.3364 -441.3738 -375.7362 30334.8113 -157.4864 -106.5295
ENERGY: 900000 0.0178 0.6291 0.0000 0.0000 -10700.2337 1400.2380 0.0000 0.0000 1788.7636 -7510.5852 304.0009 -9299.3488 -7519.0483 301.5952 -377.5451 -288.6176 30333.2210 -249.1111 -190.0035
ENERGY: 1200000 0.0029 1.5822 0.0000 0.0000 -10809.1629 1475.8140 0.0000 0.0000 1720.1689 -7611.5949 292.3432 -9331.7637 -7531.6965 299.8026 122.1270 149.5657 30551.1521 -177.6090 -120.3307
ENERGY: 1500000 0.0181 0.9571 0.0000 0.0000 -10801.4145 1504.4665 0.0000 0.0000 1746.3174 -7549.6555 296.7872 -9295.9728 -7533.8716 299.8121 715.5078 759.9567 29991.5092 -63.4073 -2.6716
TCL: Running FEP window   7: Lambda1 0.3    Lambda2 0.35   [dLambda 0.04999999999999999]
TCL: Setting parameter firsttimestep to 0
TCL: Setting parameter alchLambda to 0.3
Info: NONBONDED TABLE R-SQUARED SPACING: 0.0625
Info: NONBONDED TABLE SIZE: 705 POINTS
TCL: Setting parameter alchLambda2 to 0.35
Info: NONBONDED TABLE R-SQUARED SPACING: 0.0625
Info: NONBONDED TABLE SIZE: 705 POINTS
TCL: Running for 1500000 steps
ETITLE: TS BOND ANGLE DIHED IMPRP ELECT VDW BOUNDARY MISC KINETIC TOTAL TEMP POTENTIAL TOTALAVG TEMPAVG PRESSURE GPRESSURE VOLUME PRESSAVG GPRESSAVG
ENERGY: 0 0.0181 0.9571 0.0000 0.0000 -10801.4155 1504.4031 0.0000 0.0000 1745.4671 -7550.5701 296.6427 -9296.0372 -7550.5701 296.6427 663.6872 761.0622 29991.5092 663.6872 761.0622
ENERGY: 300000 3.4770 2.6690 0.0000 0.0000 -10668.6063 1398.6623 0.0000 0.0000 1777.2800 -7486.5180 302.0493 -9263.7980 -7508.7066 300.6450 -384.8204 -316.0135 30872.0344 191.4914 249.6411
ENERGY: 600000 0.2810 1.7756 0.0000 0.0000 -10752.7577 1403.1693 0.0000 0.0000 1774.0359 -7573.4960 301.4980 -9347.5318 -7495.7882 302.9771 -497.0720 -366.2037 30350.1940 -10.2126 70.1309
ENERGY: 900000 0.0874 3.2805 0.0000 0.0000 -10922.4964 1557.2888 0.0000 0.0000 1755.1638 -7606.6759 298.2906 -9361.8397 -7512.5392 301.4187 553.5645 616.5323 30541.8300 37.4486 110.3531
ENERGY: 1200000 0.0293 3.2999 0.0000 0.0000 -10733.8799 1463.6025 0.0000 0.0000 1718.1006 -7548.8476 291.9917 -9266.9482 -7513.1558 300.6732 120.4084 125.8313 30535.1871 -58.7201 13.0348
ENERGY: 1500000 0.1496 2.0272 0.0000 0.0000 -10724.3215 1459.8885 0.0000 0.0000 1781.8885 -7480.3677 302.8325 -9262.2562 -7515.7707 300.1571 202.0630 235.3838 30443.2802 -91.3167 -26.0533
TCL: Running FEP window   8: Lambda1 0.35   Lambda2 0.39999999999999997 [dLambda 0.04999999999999999]
TCL: Setting parameter firsttimestep to 0
TCL: Setting parameter alchLambda to 0.35
Info: NONBONDED TABLE R-SQUARED SPACING: 0.0625
Info: NONBONDED TABLE SIZE: 705 POINTS
TCL: Setting parameter alchLambda2 to 0.39999999999999997
Info: NONBONDED TABLE R-SQUARED SPACING: 0.0625
Info: NONBONDED TABLE SIZE: 705 POINTS
TCL: Running for 1500000 steps
ETITLE: TS BOND ANGLE DIHED IMPRP ELECT VDW BOUNDARY MISC KINETIC TOTAL TEMP POTENTIAL TOTALAVG TEMPAVG PRESSURE GPRESSURE VOLUME PRESSAVG GPRESSAVG
ENERGY: 0 0.1496 2.0272 0.0000 0.0000 -10724.3210 1460.3595 0.0000 0.0000 1781.0278 -7480.7569 302.6862 -9261.7847 -7480.7569 302.6862 159.5547 242.9588 30443.2802 159.5547 242.9588
ENERGY: 300000 0.1973 3.0151 0.0000 0.0000 -10624.8747 1407.5292 0.0000 0.0000 1796.2013 -7417.9317 305.2650 -9214.1331 -7501.8748 301.9412 -194.1946 -91.8128 30740.0227 166.1582 244.8179
ENERGY: 600000 0.3714 3.3322 0.0000 0.0000 -10761.1765 1439.3652 0.0000 0.0000 1775.4671 -7542.6407 301.7412 -9318.1077 -7532.6798 300.6366 2.1884 44.0585 30443.1257 40.8897 121.4497
ENERGY: 900000 0.0000 2.8438 0.0000 0.0000 -10786.0728 1451.7465 0.0000 0.0000 1763.0129 -7568.4695 299.6246 -9331.4825 -7527.0717 301.7140 -225.4969 -151.9620 30564.8433 -117.0001 -38.2636
ENERGY: 1200000 0.7459 1.0237 0.0000 0.0000 -10626.3949 1348.0462 0.0000 0.0000 1843.1727 -7433.4063 313.2478 -9276.5790 -7508.5136 302.7887 -345.3113 -336.5847 30489.1058 -218.5092 -145.0642
ENERGY: 1500000 0.0038 3.6080 0.0000 0.0000 -10711.1450 1483.6095 0.0000 0.0000 1749.9543 -7473.9694 297.4053 -9223.9237 -7499.2612 302.4822 480.5220 594.1450 30416.3969 -145.2183 -70.7880
TCL: Running FEP window   9: Lambda1 0.39999999999999997 Lambda2 0.44999999999999996 [dLambda 0.04999999999999999]
TCL: Setting parameter firsttimestep to 0
TCL: Setting parameter alchLambda to 0.39999999999999997
Info: NONBONDED TABLE R-SQUARED SPACING: 0.0625
Info: NONBONDED TABLE SIZE: 705 POINTS
TCL: Setting parameter alchLambda2 to 0.44999999999999996
Info: NONBONDED TABLE R-SQUARED SPACING: 0.0625
Info: NONBONDED TABLE SIZE: 705 POINTS
TCL: Running for 1500000 steps
ETITLE: TS BOND ANGLE DIHED IMPRP ELECT VDW BOUNDARY MISC KINETIC TOTAL TEMP POTENTIAL TOTALAVG TEMPAVG PRESSURE GPRESSURE VOLUME PRESSAVG GPRESSAVG
ENERGY: 0 0.0038 3.6080 0.0000 0.0000 -10711.1454 1484.2872 0.0000 0.0000 1749.0939 -7474.1524 297.2591 -9223.2464 -7474.1524 297.2591 512.7901 598.2993 30416.3969 512.7901 598.2993
ENERGY: 300000 0.5802 2.9321 0.0000 0.0000 -10823.7462 1442.2493 0.0000 0.0000 1723.7055 -7654.2790 292.9443 -9377.9845 -7533.9842 302.1428 -169.0598 -62.4860 30314.3154 117.0510 199.1534
ENERGY: 600000 0.0185 2.6241 0.0000 0.0000 -10686.4817 1401.0133 0.0000 0.0000 1792.2330 -7490.5929 304.5906 -9282.8258 -7544.6866 302.0499 -393.3929 -393.7250 30900.6190 -80.0127 -14.8326
ENERGY: 900000 0.3777 1.2418 0.0000 0.0000 -10687.8096 1413.1667 0.0000 0.0000 1758.3217 -7514.7017 298.8273 -9273.0234 -7543.3539 300.7254 -86.3455 -91.2354 30505.1258 23.1515 72.6797
ENERGY: 1200000 1.0995 1.7502 0.0000 0.0000 -10742.0830 1453.1009 0.0000 0.0000 1822.6886 -7463.4438 309.7665 -9286.1324 -7531.5818 301.7133 93.1528 133.9293 30672.4962 61.4372 116.7033
ENERGY: 1500000 0.0176 2.4929 0.0000 0.0000 -10725.6877 1358.9557 0.0000 0.0000 1817.2972 -7546.9243 308.8502 -9364.2215 -7542.6257 300.9422 -850.3849 -817.6746 30561.8981 -27.8133 31.8877
TCL: Running FEP window  10: Lambda1 0.44999999999999996 Lambda2 0.49999999999999994 [dLambda 0.04999999999999999]
TCL: Setting parameter firsttimestep to 0
TCL: Setting parameter alchLambda to 0.44999999999999996
Info: NONBONDED TABLE R-SQUARED SPACING: 0.0625
Info: NONBONDED TABLE SIZE: 705 POINTS
TCL: Setting parameter alchLambda2 to 0.49999999999999994
Info: NONBONDED TABLE R-SQUARED SPACING: 0.0625
Info: NONBONDED TABLE SIZE: 705 POINTS
TCL: Running for 1500000 steps
ETITLE: TS BOND ANGLE DIHED IMPRP ELECT VDW BOUNDARY MISC KINETIC TOTAL TEMP POTENTIAL TOTALAVG TEMPAVG PRESSURE GPRESSURE VOLUME PRESSAVG GPRESSAVG
ENERGY: 0 0.0176 2.4929 0.0000 0.0000 -10725.6869 1359.3841 0.0000 0.0000 1816.4388 -7547.3535 308.7044 -9363.7923 -7547.3535 308.7044 -899.6061 -812.0228 30561.8981 -899.6061 -812.0228
ENERGY: 300000 0.0605 1.6365 0.0000 0.0000 -10783.6948 1452.0746 0.0000 0.0000 1756.4710 -7573.4521 298.5128 -9329.9231 -7568.2689 301.1586 -39.3208 -6.2426 30575.2706 101.1757 158.2050
ENERGY: 600000 0.0328 1.0242 0.0000 0.0000 -10784.4609 1443.3329 0.0000 0.0000 1782.6942 -7557.3769 302.9694 -9340.0711 -7569.2833 299.5690 -92.6573 -16.1806 30245.7475 -22.2246 27.1823
ENERGY: 900000 0.1593 0.9337 0.0000 0.0000 -10689.8551 1378.1512 0.0000 0.0000 1747.5298 -7563.0811 296.9933 -9310.6110 -7561.2527 298.7044 -699.0537 -637.4599 30734.6111 -223.7093 -165.3929
ENERGY: 1200000 0.9729 1.4825 0.0000 0.0000 -10735.2640 1446.2431 0.0000 0.0000 1782.6917 -7503.8739 302.9690 -9286.5656 -7543.5843 300.6209 281.6426 293.6605 30143.7982 -161.6092 -106.6414
ENERGY: 1500000 0.0156 2.0721 0.0000 0.0000 -10690.8677 1399.5199 0.0000 0.0000 1788.9410 -7500.3192 304.0311 -9289.2601 -7546.5515 300.7544 -187.2737 -163.5100 30222.5631 -127.9522 -73.6582
TCL: Running FEP window  11: Lambda1 0.49999999999999994 Lambda2 0.5499999999999999 [dLambda 0.04999999999999999]
TCL: Setting parameter firsttimestep to 0
TCL: Setting parameter alchLambda to 0.49999999999999994
Info: NONBONDED TABLE R-SQUARED SPACING: 0.0625
Info: NONBONDED TABLE SIZE: 705 POINTS
TCL: Setting parameter alchLambda2 to 0.5499999999999999
Info: NONBONDED TABLE R-SQUARED SPACING: 0.0625
Info: NONBONDED TABLE SIZE: 705 POINTS
TCL: Running for 1500000 steps
ETITLE: TS BOND ANGLE DIHED IMPRP ELECT VDW BOUNDARY MISC KINETIC TOTAL TEMP POTENTIAL TOTALAVG TEMPAVG PRESSURE GPRESSURE VOLUME PRESSAVG GPRESSAVG
ENERGY: 0 0.0156 2.0721 0.0000 0.0000 -10690.8672 1399.4933 0.0000 0.0000 1788.0350 -7501.2512 303.8771 -9289.2862 -7501.2512 303.8771 -246.3517 -163.5022 30222.5631 -246.3517 -163.5022
ENERGY: 300000 0.9335 1.7722 0.0000 0.0000 -10714.3801 1452.0442 0.0000 0.0000 1764.6199 -7495.0102 299.8977 -9259.6302 -7515.6004 300.0095 184.5556 272.8294 30553.6638 -17.6904 35.5425
ENERGY: 600000 0.9572 2.7240 0.0000 0.0000 -10729.3483 1404.7745 0.0000 0.0000 1738.9041 -7581.9886 295.5273 -9320.8926 -7539.5321 299.6049 -234.0097 -204.2621 30340.3353 -123.8803 -65.5908
ENERGY: 900000 0.1143 2.7371 0.0000 0.0000 -10753.8699 1430.8881 0.0000 0.0000 1751.2588 -7568.8717 297.6270 -9320.1305 -7556.5564 298.7474 -186.3496 -47.4208 30404.7536 -70.3434 -8.6084
ENERGY: 1200000 0.1014 2.7993 0.0000 0.0000 -10777.0142 1472.4601 0.0000 0.0000 1696.7068 -7604.9466 288.3559 -9301.6534 -7573.9669 297.0890 144.7192 196.2152 30509.8510 -117.6673 -50.2973
ENERGY: 1500000 0.0822 1.1661 0.0000 0.0000 -10737.8639 1487.1475 0.0000 0.0000 1775.3633 -7474.1047 301.7236 -9249.4680 -7566.1023 297.4573 311.5803 337.7542 30930.4275 -70.0961 -7.4499
TCL: Running FEP window  12: Lambda1 0.5499999999999999 Lambda2 0.6    [dLambda 0.050000000000000044]
TCL: Setting parameter firsttimestep to 0
TCL: Setting parameter alchLambda to 0.5499999999999999
Info: NONBONDED TABLE R-SQUARED SPACING: 0.0625
Info: NONBONDED TABLE SIZE: 705 POINTS
TCL: Setting parameter alchLambda2 to 0.6
Info: NONBONDED TABLE R-SQUARED SPACING: 0.0625
Info: NONBONDED TABLE SIZE: 705 POINTS
TCL: Running for 1500000 steps
ETITLE: TS BOND ANGLE DIHED IMPRP ELECT VDW BOUNDARY MISC KINETIC TOTAL TEMP POTENTIAL TOTALAVG TEMPAVG PRESSURE GPRESSURE VOLUME PRESSAVG GPRESSAVG
ENERGY: 0 0.0822 1.1661 0.0000 0.0000 -10737.6549 1487.1300 0.0000 0.0000 1774.5077 -7474.7688 301.5782 -9249.2765 -7474.7688 301.5782 250.1343 340.0849 30930.4275 250.1343 340.0849
ENERGY: 300000 0.0255 1.5825 0.0000 0.0000 -10873.0457 1515.5033 0.0000 0.0000 1731.8762 -7624.0582 294.3329 -9355.9344 -7536.7455 301.5251 312.9991 452.2374 30269.1111 -30.9428 64.9828
ENERGY: 600000 0.0265 1.0013 0.0000 0.0000 -10773.1838 1368.5988 0.0000 0.0000 1749.7809 -7653.7763 297.3758 -9403.5572 -7543.2811 300.5822 -1000.7175 -928.8591 30576.9898 -148.9632 -74.5324
ENERGY: 900000 0.2547 2.3320 0.0000 0.0000 -10759.5714 1442.0710 0.0000 0.0000 1756.4709 -7558.4429 298.5128 -9314.9138 -7523.2678 301.6702 191.0781 256.8014 29818.9717 -49.2162 25.3279
ENERGY: 1200000 0.8021 1.6834 0.0000 0.0000 -10864.4461 1480.2854 0.0000 0.0000 1827.7023 -7553.9730 310.6186 -9381.6752 -7535.8782 301.5140 269.9545 389.1823 29844.8076 -67.2221 11.9332
ENERGY: 1500000 0.0013 0.9074 0.0000 0.0000 -10735.4377 1460.6443 0.0000 0.0000 1793.3059 -7480.5789 304.7729 -9273.8848 -7528.1798 301.4580 97.5090 182.4950 30637.1638 -49.3192 26.9002
TCL: Running FEP window  13: Lambda1 0.6    Lambda2 0.65   [dLambda 0.050000000000000044]
TCL: Setting parameter firsttimestep to 0
TCL: Setting parameter alchLambda to 0.6
Info: NONBONDED TABLE R-SQUARED SPACING: 0.0625
Info: NONBONDED TABLE SIZE: 705 POINTS
TCL: Setting parameter alchLambda2 to 0.65
Info: NONBONDED TABLE R-SQUARED SPACING: 0.0625
Info: NONBONDED TABLE SIZE: 705 POINTS
TCL: Running for 1500000 steps
ETITLE: TS BOND ANGLE DIHED IMPRP ELECT VDW BOUNDARY MISC KINETIC TOTAL TEMP POTENTIAL TOTALAVG TEMPAVG PRESSURE GPRESSURE VOLUME PRESSAVG GPRESSAVG
ENERGY: 0 0.0013 0.9074 0.0000 0.0000 -10735.6649 1460.6037 0.0000 0.0000 1792.3752 -7481.7774 304.6147 -9274.1526 -7481.7774 304.6147 92.6521 187.4776 30637.1638 92.6521 187.4776
ENERGY: 300000 0.0651 2.9592 0.0000 0.0000 -10889.3916 1547.2396 0.0000 0.0000 1738.2326 -7600.8951 295.4132 -9339.1277 -7550.6037 303.2791 683.7325 726.7353 30198.5494 336.1656 385.9686
ENERGY: 600000 0.6732 1.6810 0.0000 0.0000 -10745.4469 1402.4162 0.0000 0.0000 1790.6836 -7549.9929 304.3272 -9340.6765 -7549.2045 302.5168 -650.1137 -653.0543 31020.4490 -38.8293 9.5161
ENERGY: 900000 0.1777 0.9233 0.0000 0.0000 -10587.4657 1407.9061 0.0000 0.0000 1786.6839 -7391.7746 303.6475 -9178.4585 -7523.0617 301.6530 -75.1796 20.8121 30847.8253 -28.2040 32.9352
ENERGY: 1200000 0.0083 2.4531 0.0000 0.0000 -10866.0529 1415.4617 0.0000 0.0000 1751.0802 -7697.0497 297.5966 -9448.1299 -7540.5995 300.3572 -645.2138 -590.0447 30400.4541 -160.7312 -98.3589
ENERGY: 1500000 0.5234 2.3087 0.0000 0.0000 -10659.1795 1401.0674 0.0000 0.0000 1756.3479 -7498.9321 298.4919 -9255.2800 -7534.2995 300.2167 -475.7969 -399.2578 31026.5850 -141.9233 -73.1441
TCL: Running FEP window  14: Lambda1 0.65   Lambda2 0.7000000000000001 [dLambda 0.050000000000000044]
TCL: Setting parameter firsttimestep to 0
TCL: Setting parameter alchLambda to 0.65
Info: NONBONDED TABLE R-SQUARED SPACING: 0.0625
Info: NONBONDED TABLE SIZE: 705 POINTS
TCL: Setting parameter alchLambda2 to 0.7000000000000001
Info: NONBONDED TABLE R-SQUARED SPACING: 0.0625
Info: NONBONDED TABLE SIZE: 705 POINTS
TCL: Running for 1500000 steps
ETITLE: TS BOND ANGLE DIHED IMPRP ELECT VDW BOUNDARY MISC KINETIC TOTAL TEMP POTENTIAL TOTALAVG TEMPAVG PRESSURE GPRESSURE VOLUME PRESSAVG GPRESSAVG
ENERGY: 0 0.5234 2.3087 0.0000 0.0000 -10659.1914 1401.0732 0.0000 0.0000 1755.4981 -7499.7880 298.3475 -9255.2861 -7499.7880 298.3475 -475.6963 -395.6526 31026.5850 -475.6963 -395.6526
ENERGY: 300000 0.0183 1.9688 0.0000 0.0000 -10681.4155 1354.6593 0.0000 0.0000 1770.0570 -7554.7121 300.8218 -9324.7691 -7562.8668 296.1214 -648.9389 -581.1500 30242.9729 -247.5346 -208.8840
ENERGY: 600000 0.6317 2.2406 0.0000 0.0000 -10748.2699 1423.1242 0.0000 0.0000 1785.2071 -7537.0664 303.3965 -9322.2734 -7558.9583 297.8281 -109.8977 -92.4079 30619.0086 -252.5481 -209.5373
ENERGY: 900000 0.0871 2.3613 0.0000 0.0000 -10625.9768 1380.6668 0.0000 0.0000 1749.7363 -7493.1253 297.3682 -9242.8617 -7562.7738 296.8231 -384.6976 -356.3130 30710.9509 -289.3104 -241.6570
ENERGY: 1200000 0.0130 1.3389 0.0000 0.0000 -10702.6756 1379.9338 0.0000 0.0000 1774.8382 -7546.5517 301.6343 -9321.3899 -7556.4508 297.2925 -581.7177 -514.1876 30476.2864 -322.1714 -270.1916
ENERGY: 1500000 0.8134 2.1953 0.0000 0.0000 -10782.0209 1458.2173 0.0000 0.0000 1781.5046 -7539.2903 302.7673 -9320.7949 -7556.9004 298.2214 -211.2185 -125.7315 30776.9183 -281.4017 -234.5307
TCL: Running FEP window  15: Lambda1 0.7000000000000001 Lambda2 0.7500000000000001 [dLambda 0.050000000000000044]
TCL: Setting parameter firsttimestep to 0
TCL: Setting parameter alchLambda to 0.7000000000000001
Info: NONBONDED TABLE R-SQUARED SPACING: 0.0625
Info: NONBONDED TABLE SIZE: 705 POINTS
TCL: Setting parameter alchLambda2 to 0.7500000000000001
Info: NONBONDED TABLE R-SQUARED SPACING: 0.0625
Info: NONBONDED TABLE SIZE: 705 POINTS
TCL: Running for 1500000 steps
ETITLE: TS BOND ANGLE DIHED IMPRP ELECT VDW BOUNDARY MISC KINETIC TOTAL TEMP POTENTIAL TOTALAVG TEMPAVG PRESSURE GPRESSURE VOLUME PRESSAVG GPRESSAVG
ENERGY: 0 0.8133 2.1953 0.0000 0.0000 -10782.1741 1458.1162 0.0000 0.0000 1780.6221 -7540.4271 302.6173 -9321.0492 -7540.4271 302.6173 -201.8834 -123.0155 30776.9183 -201.8834 -123.0155
ENERGY: 300000 0.1626 3.1211 0.0000 0.0000 -10636.3446 1364.0410 0.0000 0.0000 1792.3906 -7476.6293 304.6174 -9269.0199 -7514.0717 303.8482 -580.9728 -556.4271 30646.8601 -6.9181 75.8216
ENERGY: 600000 0.0097 2.4105 0.0000 0.0000 -10827.3212 1493.3956 0.0000 0.0000 1717.1028 -7614.4027 291.8222 -9331.5055 -7532.6997 300.0171 146.1298 235.3336 30520.6862 -72.8503 21.0967
ENERGY: 900000 0.0203 2.3466 0.0000 0.0000 -10690.2918 1405.3688 0.0000 0.0000 1783.1108 -7499.4453 303.0402 -9282.5561 -7535.6841 300.3964 -64.7899 -1.7298 30192.5233 -122.7420 -35.7688
ENERGY: 1200000 0.1507 0.9413 0.0000 0.0000 -10742.5226 1483.4165 0.0000 0.0000 1741.0758 -7516.9383 295.8964 -9258.0141 -7550.0559 298.8385 195.9337 309.5895 30713.0811 -105.5478 -22.4359
ENERGY: 1500000 0.0789 1.0497 0.0000 0.0000 -10697.6739 1408.5813 0.0000 0.0000 1774.7290 -7513.2350 301.6158 -9287.9640 -7547.1031 299.3247 -410.2536 -310.1697 30721.5497 -1.9689 81.2019
TCL: Running FEP window  16: Lambda1 0.7500000000000001 Lambda2 0.8000000000000002 [dLambda 0.050000000000000044]
TCL: Setting parameter firsttimestep to 0
TCL: Setting parameter alchLambda to 0.7500000000000001
Info: NONBONDED TABLE R-SQUARED SPACING: 0.0625
Info: NONBONDED TABLE SIZE: 705 POINTS
TCL: Setting parameter alchLambda2 to 0.8000000000000002
Info: NONBONDED TABLE R-SQUARED SPACING: 0.0625
Info: NONBONDED TABLE SIZE: 705 POINTS
TCL: Running for 1500000 steps
ETITLE: TS BOND ANGLE DIHED IMPRP ELECT VDW BOUNDARY MISC KINETIC TOTAL TEMP POTENTIAL TOTALAVG TEMPAVG PRESSURE GPRESSURE VOLUME PRESSAVG GPRESSAVG
ENERGY: 0 0.0789 1.0497 0.0000 0.0000 -10697.8264 1408.3975 0.0000 0.0000 1773.8555 -7514.4449 301.4673 -9288.3003 -7514.4449 301.4673 -396.9024 -307.1240 30721.5497 -396.9024 -307.1240
ENERGY: 300000 0.0009 2.7273 0.0000 0.0000 -10813.3534 1500.7101 0.0000 0.0000 1746.4474 -7563.4678 296.8093 -9309.9152 -7509.9681 303.2292 653.8204 710.0846 29911.3659 202.0855 256.9231
ENERGY: 600000 0.3098 0.9787 0.0000 0.0000 -10724.6976 1415.4560 0.0000 0.0000 1784.9290 -7523.0241 303.3493 -9307.9532 -7538.4865 301.3719 -495.7479 -452.3239 31061.6948 -27.0997 35.3857
ENERGY: 900000 0.6563 1.4172 0.0000 0.0000 -10674.1639 1368.6127 0.0000 0.0000 1838.9763 -7464.5014 312.5346 -9303.4777 -7519.1655 302.8609 -785.3195 -711.6362 31204.8617 -111.5922 -43.8908
ENERGY: 1200000 0.3512 1.1589 0.0000 0.0000 -10703.1548 1418.4322 0.0000 0.0000 1767.2058 -7516.0066 300.3372 -9283.2124 -7522.8983 301.6385 -131.8826 -132.2993 30689.4593 -106.4613 -43.6605
ENERGY: 1500000 0.0477 1.3511 0.0000 0.0000 -10774.0081 1416.5866 0.0000 0.0000 1717.4150 -7638.6078 291.8752 -9356.0228 -7528.2637 301.5494 -345.1136 -229.1082 30318.2128 -85.5052 -20.7670
TCL: Running FEP window  17: Lambda1 0.8000000000000002 Lambda2 0.8500000000000002 [dLambda 0.050000000000000044]
TCL: Setting parameter firsttimestep to 0
TCL: Setting parameter alchLambda to 0.8000000000000002
Info: NONBONDED TABLE R-SQUARED SPACING: 0.0625
Info: NONBONDED TABLE SIZE: 705 POINTS
TCL: Setting parameter alchLambda2 to 0.8500000000000002
Info: NONBONDED TABLE R-SQUARED SPACING: 0.0625
Info: NONBONDED TABLE SIZE: 705 POINTS
TCL: Running for 1500000 steps
ETITLE: TS BOND ANGLE DIHED IMPRP ELECT VDW BOUNDARY MISC KINETIC TOTAL TEMP POTENTIAL TOTALAVG TEMPAVG PRESSURE GPRESSURE VOLUME PRESSAVG GPRESSAVG
ENERGY: 0 0.0477 1.3511 0.0000 0.0000 -10774.0853 1416.2588 0.0000 0.0000 1716.5170 -7639.9107 291.7226 -9356.4278 -7639.9107 291.7226 -315.8173 -228.5389 30318.2128 -315.8173 -228.5389
ENERGY: 300000 0.0425 2.9728 0.0000 0.0000 -10798.8233 1460.8033 0.0000 0.0000 1783.0202 -7551.9844 303.0249 -9335.0046 -7561.7309 298.7550 176.4110 227.8425 30184.8555 384.3624 445.6411
ENERGY: 600000 0.1356 1.3619 0.0000 0.0000 -10690.2140 1384.3140 0.0000 0.0000 1817.5740 -7486.8284 308.8973 -9304.4024 -7526.3981 302.3737 -533.5741 -518.7189 30838.5626 101.0775 158.5379
ENERGY: 900000 0.1493 1.3152 0.0000 0.0000 -10637.5915 1426.7279 0.0000 0.0000 1765.4802 -7443.9190 300.0439 -9209.3992 -7503.6853 302.5841 105.7136 113.8093 30606.3972 -54.9070 0.1293
ENERGY: 1200000 0.0006 0.9651 0.0000 0.0000 -10776.1745 1480.6863 0.0000 0.0000 1767.1133 -7527.4092 300.3215 -9294.5225 -7515.8608 301.7016 195.1394 277.0424 30857.8488 -10.5742 54.5617
ENERGY: 1500000 0.2314 0.8989 0.0000 0.0000 -10863.2313 1522.3555 0.0000 0.0000 1799.1993 -7540.5462 305.7745 -9339.7455 -7514.7948 301.7892 652.9754 712.8568 30259.9576 -33.0454 28.5368
TCL: Running FEP window  18: Lambda1 0.8500000000000002 Lambda2 0.9000000000000002 [dLambda 0.050000000000000044]
TCL: Setting parameter firsttimestep to 0
TCL: Setting parameter alchLambda to 0.8500000000000002
Info: NONBONDED TABLE R-SQUARED SPACING: 0.0625
Info: NONBONDED TABLE SIZE: 705 POINTS
TCL: Setting parameter alchLambda2 to 0.9000000000000002
Info: NONBONDED TABLE R-SQUARED SPACING: 0.0625
Info: NONBONDED TABLE SIZE: 705 POINTS
TCL: Running for 1500000 steps
ETITLE: TS BOND ANGLE DIHED IMPRP ELECT VDW BOUNDARY MISC KINETIC TOTAL TEMP POTENTIAL TOTALAVG TEMPAVG PRESSURE GPRESSURE VOLUME PRESSAVG GPRESSAVG
ENERGY: 0 0.2314 0.8989 0.0000 0.0000 -10863.4143 1522.5091 0.0000 0.0000 1798.2576 -7541.5173 305.6145 -9339.7749 -7541.5173 305.6145 620.9352 717.3942 30259.9576 620.9352 717.3942
ENERGY: 300000 0.0371 1.2148 0.0000 0.0000 -10754.8873 1487.4441 0.0000 0.0000 1747.8267 -7518.3647 297.0437 -9266.1913 -7507.5060 302.6907 345.8778 436.4993 30729.8877 107.8710 182.4077
ENERGY: 600000 0.1864 2.3010 0.0000 0.0000 -10775.6540 1483.8429 0.0000 0.0000 1767.8872 -7521.4365 300.4530 -9289.3237 -7510.4460 302.0307 180.1730 322.6507 30570.8851 92.0509 188.0291
ENERGY: 900000 0.1130 3.2275 0.0000 0.0000 -10620.0156 1298.1903 0.0000 0.0000 1817.5166 -7500.9682 308.8875 -9318.4848 -7504.1014 301.7836 -1117.0229 -1050.0367 30545.5347 2.4080 84.6593
ENERGY: 1200000 0.0033 4.1841 0.0000 0.0000 -10891.2781 1499.1728 0.0000 0.0000 1714.2945 -7673.6234 291.3449 -9387.9179 -7519.7248 300.6990 305.4551 389.8451 30291.3424 44.1535 115.8210
ENERGY: 1500000 0.0070 1.5775 0.0000 0.0000 -10675.5293 1359.5792 0.0000 0.0000 1820.5186 -7493.8469 309.3977 -9314.3655 -7523.4348 300.8818 -547.0099 -458.5598 30246.0893 -35.4388 27.4784
TCL: Running FEP window  19: Lambda1 0.9000000000000002 Lambda2 0.9500000000000003 [dLambda 0.050000000000000044]
TCL: Setting parameter firsttimestep to 0
TCL: Setting parameter alchLambda to 0.9000000000000002
Info: NONBONDED TABLE R-SQUARED SPACING: 0.0625
Info: NONBONDED TABLE SIZE: 705 POINTS
TCL: Setting parameter alchLambda2 to 0.9500000000000003
Info: NONBONDED TABLE R-SQUARED SPACING: 0.0625
Info: NONBONDED TABLE SIZE: 705 POINTS
TCL: Running for 1500000 steps
ETITLE: TS BOND ANGLE DIHED IMPRP ELECT VDW BOUNDARY MISC KINETIC TOTAL TEMP POTENTIAL TOTALAVG TEMPAVG PRESSURE GPRESSURE VOLUME PRESSAVG GPRESSAVG
ENERGY: 0 0.0070 1.5775 0.0000 0.0000 -10675.6958 1359.6978 0.0000 0.0000 1819.6331 -7494.7802 309.2472 -9314.4134 -7494.7802 309.2472 -533.6209 -450.8142 30246.0893 -533.6209 -450.8142
ENERGY: 300000 0.0124 3.2010 0.0000 0.0000 -10790.7138 1458.7291 0.0000 0.0000 1820.4824 -7508.2889 309.3916 -9328.7713 -7527.9507 306.1099 69.9965 135.2712 30279.2357 -268.8478 -185.4767
ENERGY: 600000 0.0212 3.2407 0.0000 0.0000 -10623.6476 1412.0752 0.0000 0.0000 1770.8375 -7437.4731 300.9544 -9208.3106 -7515.5640 303.7766 12.3537 11.6688 30753.8985 -220.1364 -161.9104
ENERGY: 900000 0.0112 3.7237 0.0000 0.0000 -10755.5559 1477.5278 0.0000 0.0000 1811.2871 -7463.0062 307.8288 -9274.2932 -7511.0694 303.6412 284.6952 303.9952 30834.4380 -199.3117 -149.6958
ENERGY: 1200000 0.0962 1.0636 0.0000 0.0000 -10715.7899 1470.0369 0.0000 0.0000 1816.7298 -7427.8635 308.7538 -9244.5932 -7503.8800 303.4819 222.5604 256.1668 30977.7188 -172.7013 -124.2109
ENERGY: 1500000 0.1414 3.6315 0.0000 0.0000 -10786.1373 1428.1009 0.0000 0.0000 1736.7444 -7617.5191 295.1603 -9354.2636 -7514.6142 302.4846 -497.7193 -423.8906 30693.5797 -217.4732 -166.9079
TCL: Running FEP window  20: Lambda1 0.9500000000000003 Lambda2 1.0    [dLambda 0.04999999999999971]
TCL: Setting parameter firsttimestep to 0
TCL: Setting parameter alchLambda to 0.9500000000000003
Info: NONBONDED TABLE R-SQUARED SPACING: 0.0625
Info: NONBONDED TABLE SIZE: 705 POINTS
TCL: Setting parameter alchLambda2 to 1.0
Info: NONBONDED TABLE R-SQUARED SPACING: 0.0625
Info: NONBONDED TABLE SIZE: 705 POINTS
TCL: Running for 1500000 steps
ETITLE: TS BOND ANGLE DIHED IMPRP ELECT VDW BOUNDARY MISC KINETIC TOTAL TEMP POTENTIAL TOTALAVG TEMPAVG PRESSURE GPRESSURE VOLUME PRESSAVG GPRESSAVG
ENERGY: 0 0.1414 3.6315 0.0000 0.0000 -10786.3027 1429.0120 0.0000 0.0000 1735.8415 -7617.6763 295.0068 -9353.5178 -7617.6763 295.0068 -494.9480 -407.4740 30693.5797 -494.9480 -407.4740
ENERGY: 300000 0.3147 3.0216 0.0000 0.0000 -10785.4878 1420.9672 0.0000 0.0000 1780.6773 -7580.5070 302.6267 -9361.1843 -7561.5071 301.8112 -245.3254 -218.1687 30251.6012 -322.5893 -263.2015
ENERGY: 600000 0.4492 4.1848 0.0000 0.0000 -10717.1103 1417.1562 0.0000 0.0000 1717.8404 -7577.4796 291.9475 -9295.3200 -7569.0930 299.7869 -273.0241 -197.5111 30674.0723 -193.7877 -116.4089
ENERGY: 900000 0.0987 2.8231 0.0000 0.0000 -10794.9777 1434.7121 0.0000 0.0000 1775.9348 -7581.4089 301.8207 -9357.3438 -7557.7176 300.8918 -433.7595 -308.2051 30651.3234 -279.8710 -199.8980
ENERGY: 1200000 0.1546 3.2644 0.0000 0.0000 -10771.9060 1482.2881 0.0000 0.0000 1744.4812 -7541.7177 296.4751 -9286.1989 -7558.5000 299.6196 547.5962 587.6954 30127.2327 -193.3639 -121.0596
ENERGY: 1500000 0.0584 1.9977 0.0000 0.0000 -10797.2696 1511.7278 0.0000 0.0000 1742.7362 -7540.7496 296.1786 -9283.4858 -7558.2383 299.7471 806.1638 853.4614 30004.9729 -102.5138 -33.8047
TCL: Exiting due to exit command.
