Info: SIMULATION PARAMETERS:
Info: TIMESTEP               2
Info: NUMBER OF STEPS        0
Info: STEPS PER CYCLE        10
Info: PERIODIC CELL BASIS 1  34.986 0 0
Info: PERIODIC CELL BASIS 2  0 35.411 0
Info: PERIODIC CELL BASIS 3  0 0 35.644
Info: PERIODIC CELL CENTER   0 0 0
Info: WRAPPING WATERS AROUND PERIODIC BOUNDARIES ON OUTPUT.
Info: WRAPPING ALL CLUSTERS AROUND PERIODIC BOUNDARIES ON OUTPUT.
Info: FIRST LDB TIMESTEP     50
Info: LAST LDB TIMESTEP     -1
Info: HOM BACKGROUND SCALING 1
Info: PME BACKGROUND SCALING 1
Info: MIN ATOMS PER PATCH    40
Info: EMPTY PATCH LOAD       40 ATOMS
Info: INITIAL TEMPERATURE    300
Info: CENTER OF MASS MOVING INITIALLY? NO
Info: DIELECTRIC             1
Info: EXCLUDE                SCALED ONE-FOUR
Info: 1-4 ELECTROSTATICS SCALED BY 0.833333
Info: MODIFIED 1-4 VDW PARAMETERS WILL BE USED
Info: DCD FILENAME           mobley_9794857_equil.dcd
Info: DCD FREQUENCY          100000
Info: DCD FIRST STEP         100000
Info: DCD FILE WILL CONTAIN UNIT CELL DATA
Info: XST FILENAME           mobley_9794857_equil.xst
Info: XST FREQUENCY          100000
Info: NO VELOCITY DCD OUTPUT
Info: NO FORCE DCD OUTPUT
Info: OUTPUT FILENAME        mobley_9794857_equil
Info: BINARY OUTPUT FILES WILL BE USED
Info: RESTART FILENAME       mobley_9794857_equil.restart
Info: RESTART FREQUENCY      100000
Info: BINARY RESTART FILES WILL BE USED
Info: CUTOFF                 9
Info: PAIRLIST DISTANCE      11
Info: PAIRLIST SHRINK RATE   0.01
Info: PAIRLIST GROW RATE     0.01
Info: PAIRLIST TRIGGER       0.3
Info: PAIRLISTS PER CYCLE    2
Info: PAIRLISTS ENABLED
Info: MARGIN                 8
Info: HYDROGEN GROUP CUTOFF  2.5
Info: PATCH DIMENSION        21.5
Info: ENERGY OUTPUT STEPS    100000
Info: ENERGY EVALUATION STEPS    100000
Info: OUTPUT ENERGY PRECISION 4
Info: CROSSTERM ENERGY INCLUDED IN DIHEDRAL
Info: TIMING OUTPUT STEPS    1000000
Info: PRESSURE OUTPUT STEPS  100000
Info: LANGEVIN DYNAMICS ACTIVE
Info: LANGEVIN TEMPERATURE   30
Info: LANGEVIN USING BBK INTEGRATOR
Info: LANGEVIN DAMPING COEFFICIENT IS 1 INVERSE PS
Info: LANGEVIN DYNAMICS APPLIED TO HYDROGENS
Info: LANGEVIN PISTON PRESSURE CONTROL ACTIVE
Info:        TARGET PRESSURE IS 1.01325 BAR
Info:     OSCILLATION PERIOD IS 50 FS
Info:             DECAY TIME IS 25 FS
Info:     PISTON TEMPERATURE IS 300 K
Info:       PRESSURE CONTROL IS GROUP-BASED
Info:    INITIAL STRAIN RATE IS 0 0 0
Info:       CELL FLUCTUATION IS ISOTROPIC
Info: PARTICLE MESH EWALD (PME) ACTIVE
Info: PME TOLERANCE               1e-06
Info: PME EWALD COEFFICIENT       0.348832
Info: PME INTERPOLATION ORDER     4
Info: PME GRID DIMENSIONS         36 36 36
Info: PME MAXIMUM GRID SPACING    1
Info: FULL ELECTROSTATIC EVALUATION FREQUENCY      2
Info: USING VERLET I (r-RESPA) MTS SCHEME.
Info: C1 SPLITTING OF LONG RANGE ELECTROSTATICS
Info: PLACING ATOMS IN PATCHES BY HYDROGEN GROUPS
Info: RIGID BONDS TO HYDROGEN : ALL
Info:         ERROR TOLERANCE : 1e-08
Info:          MAX ITERATIONS : 100
Info: RIGID WATER USING SETTLE ALGORITHM
Info: RANDOM NUMBER SEED     1743215845
Info: USE HYDROGEN BONDS?    NO
Info: Using AMBER format force field!
Info: AMBER PARM FILE        mobley_9794857.prmtop
Info: COORDINATE PDB         mobley_9794857.pdb
Info: Exclusions will be read from PARM file!
Info: SCNB (VDW SCALING)     2
Info: USING ARITHMETIC MEAN TO COMBINE L-J SIGMA PARAMETERS
Info: BINARY COORDINATES     mobley_9794857_min.coor
Info: SUMMARY OF PARAMETERS:
Info: 6 BONDS
Info: 7 ANGLES
Info: 6 DIHEDRAL
Info: 0 IMPROPER
Info: 0 CROSSTERM
Info: 0 VDW
Info: 21 VDW_PAIRS
Info: 0 NBTHOLE_PAIRS
Info: STRUCTURE SUMMARY:
Info: 2952 ATOMS
Info: 2951 BONDS
Info: 31 ANGLES
Info: 45 DIHEDRALS
Info: 0 IMPROPERS
Info: 0 CROSSTERMS
Info: 3015 EXCLUSIONS
Info: 2946 RIGID BONDS
Info: 5910 DEGREES OF FREEDOM
Info: 984 HYDROGEN GROUPS
Info: 4 ATOMS IN LARGEST HYDROGEN GROUP
Info: 984 MIGRATION GROUPS
Info: 4 ATOMS IN LARGEST MIGRATION GROUP
Info: TOTAL MASS = 17707.8 amu
Info: TOTAL CHARGE = 0.000499986 e
Info: MASS DENSITY = 0.665894 g/cm^3
Info: ATOM DENSITY = 0.0668494 atoms/A^3
Info: ADDED 0 IMPLICIT EXCLUSIONS
Info: NONBONDED TABLE R-SQUARED SPACING: 0.0625
Info: NONBONDED TABLE SIZE: 705 POINTS
Info: REMOVING COM VELOCITY -0.0714561 0.0120155 -0.0344915
TCL: Running for 100000 steps
ETITLE: TS BOND ANGLE DIHED IMPRP ELECT VDW BOUNDARY MISC KINETIC TOTAL TEMP POTENTIAL TOTAL3 TEMPAVG PRESSURE GPRESSURE VOLUME PRESSAVG GPRESSAVG
ENERGY: 0 0.2722 1.5085 2.6588 0.0000 -13620.5388 2379.8377 0.0000 0.0000 1790.4634 -9445.7983 304.9077 -11236.2617 -9445.4568 304.9077 458.8327 500.2725 44158.9683 458.8327 500.2725
ENERGY: 100000 0.4840 2.3067 2.8716 0.0000 -14078.4855 2322.2612 0.0000 0.0000 177.6779 -11572.8841 30.2577 -11750.5620 -11572.3751 30.9292 -1262.0150 -1228.9519 29239.7975 2.3854 2.4743
TCL: Running 100000 steps at 60 kelvin.
TCL: Setting parameter langevinTemp to 60
TCL: Running for 100000 steps
ETITLE: TS BOND ANGLE DIHED IMPRP ELECT VDW BOUNDARY MISC KINETIC TOTAL TEMP POTENTIAL TOTAL3 TEMPAVG PRESSURE GPRESSURE VOLUME PRESSAVG GPRESSAVG
ENERGY: 100000 0.4840 2.3067 2.8716 0.0000 -14078.4855 2322.2612 0.0000 0.0000 177.5902 -11572.9717 30.2428 -11750.5620 -11572.4976 30.2428 -1278.0340 -1229.1557 29239.7975 -1278.0340 -1229.1557
ENERGY: 200000 0.2737 2.6352 2.9393 0.0000 -14070.8964 2399.4412 0.0000 0.0000 359.7828 -11305.8242 61.2694 -11665.6070 -11304.6525 59.9515 -154.2656 -93.5063 28793.9858 4.8245 4.8499
TCL: Running 100000 steps at 90 kelvin.
TCL: Setting parameter langevinTemp to 90
TCL: Running for 100000 steps
ETITLE: TS BOND ANGLE DIHED IMPRP ELECT VDW BOUNDARY MISC KINETIC TOTAL TEMP POTENTIAL TOTAL3 TEMPAVG PRESSURE GPRESSURE VOLUME PRESSAVG GPRESSAVG
ENERGY: 200000 0.2737 2.6352 2.9393 0.0000 -14070.8964 2399.4412 0.0000 0.0000 359.6071 -11305.9999 61.2394 -11665.6070 -11305.2446 61.2394 -135.6781 -93.2905 28793.9858 -135.6781 -93.2905
ENERGY: 300000 0.5271 2.8348 2.7046 0.0000 -13851.0252 2278.4525 0.0000 0.0000 524.3495 -11042.1567 89.2943 -11566.5062 -11040.4772 89.9408 -828.5042 -797.6418 28887.8886 6.5439 6.4944
TCL: Running 100000 steps at 120 kelvin.
TCL: Setting parameter langevinTemp to 120
TCL: Running for 100000 steps
ETITLE: TS BOND ANGLE DIHED IMPRP ELECT VDW BOUNDARY MISC KINETIC TOTAL TEMP POTENTIAL TOTAL3 TEMPAVG PRESSURE GPRESSURE VOLUME PRESSAVG GPRESSAVG
ENERGY: 300000 0.5271 2.8348 2.7046 0.0000 -13851.0252 2278.4525 0.0000 0.0000 524.0823 -11042.4239 89.2488 -11566.5062 -11041.3433 89.2488 -843.4713 -797.5383 28887.8886 -843.4713 -797.5383
ENERGY: 400000 0.5330 4.5802 2.7716 0.0000 -13820.6122 2376.1701 0.0000 0.0000 721.2703 -10715.2869 122.8290 -11436.5572 -10713.8122 119.6884 567.0384 568.2445 28682.4140 3.7741 3.7920
TCL: Running 100000 steps at 150 kelvin.
TCL: Setting parameter langevinTemp to 150
TCL: Running for 100000 steps
ETITLE: TS BOND ANGLE DIHED IMPRP ELECT VDW BOUNDARY MISC KINETIC TOTAL TEMP POTENTIAL TOTAL3 TEMPAVG PRESSURE GPRESSURE VOLUME PRESSAVG GPRESSAVG
ENERGY: 400000 0.5330 4.5802 2.7716 0.0000 -13820.6122 2376.1701 0.0000 0.0000 720.9289 -10715.6283 122.7709 -11436.5572 -10714.2930 122.7709 508.3083 568.3037 28682.4140 508.3083 568.3037
ENERGY: 500000 1.1021 7.8423 3.1398 0.0000 -13445.0022 2193.5198 0.0000 0.0000 876.9115 -10362.4867 149.3340 -11239.3983 -10360.5819 150.0084 -409.7315 -339.3096 28806.7546 4.2878 4.3069
TCL: Running 100000 steps at 180 kelvin.
TCL: Setting parameter langevinTemp to 180
TCL: Running for 100000 steps
ETITLE: TS BOND ANGLE DIHED IMPRP ELECT VDW BOUNDARY MISC KINETIC TOTAL TEMP POTENTIAL TOTAL3 TEMPAVG PRESSURE GPRESSURE VOLUME PRESSAVG GPRESSAVG
ENERGY: 500000 1.1021 7.8423 3.1398 0.0000 -13445.0022 2193.5198 0.0000 0.0000 876.4648 -10362.9334 149.2579 -11239.3983 -10361.4298 149.2579 -394.9875 -339.6901 28806.7546 -394.9875 -339.6901
ENERGY: 600000 0.9730 6.4223 3.4954 0.0000 -13176.3073 2131.1836 0.0000 0.0000 1084.1254 -9950.1076 184.6216 -11034.2330 -9947.5077 179.8973 140.8122 214.6126 28519.9660 4.0875 4.1830
TCL: Running 100000 steps at 210 kelvin.
TCL: Setting parameter langevinTemp to 210
TCL: Running for 100000 steps
ETITLE: TS BOND ANGLE DIHED IMPRP ELECT VDW BOUNDARY MISC KINETIC TOTAL TEMP POTENTIAL TOTAL3 TEMPAVG PRESSURE GPRESSURE VOLUME PRESSAVG GPRESSAVG
ENERGY: 600000 0.9730 6.4223 3.4954 0.0000 -13176.3073 2131.1836 0.0000 0.0000 1083.6085 -9950.6245 184.5335 -11034.2330 -9948.6600 184.5335 149.9761 215.5425 28519.9660 149.9761 215.5425
ENERGY: 700000 0.6141 5.2844 3.0731 0.0000 -12503.5347 1928.9951 0.0000 0.0000 1249.8163 -9315.7517 212.8380 -10565.5680 -9313.4328 209.5365 212.9642 305.3530 28596.7940 3.2993 3.1592
TCL: Running 100000 steps at 240 kelvin.
TCL: Setting parameter langevinTemp to 240
TCL: Running for 100000 steps
ETITLE: TS BOND ANGLE DIHED IMPRP ELECT VDW BOUNDARY MISC KINETIC TOTAL TEMP POTENTIAL TOTAL3 TEMPAVG PRESSURE GPRESSURE VOLUME PRESSAVG GPRESSAVG
ENERGY: 700000 0.6141 5.2844 3.0731 0.0000 -12503.5347 1928.9951 0.0000 0.0000 1249.1899 -9316.3781 212.7313 -10565.5680 -9313.9654 212.7313 227.8643 304.9614 28596.7940 227.8643 304.9614
ENERGY: 800000 2.9124 9.6424 3.9888 0.0000 -11878.2392 1780.7095 0.0000 0.0000 1407.7419 -8673.2442 239.7320 -10080.9861 -8670.2302 239.7812 425.7015 544.4224 28687.5101 4.4695 4.4122
TCL: Running 100000 steps at 270 kelvin.
TCL: Setting parameter langevinTemp to 270
TCL: Running for 100000 steps
ETITLE: TS BOND ANGLE DIHED IMPRP ELECT VDW BOUNDARY MISC KINETIC TOTAL TEMP POTENTIAL TOTAL3 TEMPAVG PRESSURE GPRESSURE VOLUME PRESSAVG GPRESSAVG
ENERGY: 800000 2.9124 9.6424 3.9888 0.0000 -11878.2392 1780.7095 0.0000 0.0000 1407.0304 -8673.9557 239.6108 -10080.9861 -8671.5543 239.6108 461.3611 544.6654 28687.5101 461.3611 544.6654
ENERGY: 900000 0.3437 8.9928 4.0866 0.0000 -11241.8392 1553.0214 0.0000 0.0000 1562.3645 -8113.0302 266.0635 -9675.3947 -8107.9386 269.6468 -262.8934 -215.7064 29859.9554 5.2522 5.2949
TCL: Running 1000000 steps at 300 kelvin.
TCL: Setting parameter langevinTemp to 300
TCL: Running for 1000000 steps
ETITLE: TS BOND ANGLE DIHED IMPRP ELECT VDW BOUNDARY MISC KINETIC TOTAL TEMP POTENTIAL TOTAL3 TEMPAVG PRESSURE GPRESSURE VOLUME PRESSAVG GPRESSAVG
ENERGY: 900000 0.3437 8.9928 4.0866 0.0000 -11241.8392 1553.0214 0.0000 0.0000 1561.5595 -8113.8352 265.9264 -9675.3947 -8111.0392 265.9264 -295.9666 -214.0326 29859.9554 -295.9666 -214.0326
ENERGY: 1100000 0.9686 11.4073 3.1370 0.0000 -10627.5592 1358.6156 0.0000 0.0000 1750.2778 -7503.1528 298.0643 -9253.4307 -7502.1435 300.6141 -484.4692 -405.9376 30027.1534 2.5711 2.4175
ENERGY: 1300000 2.5314 8.9092 3.7258 0.0000 -10810.3765 1425.9610 0.0000 0.0000 1803.7543 -7565.4948 307.1711 -9369.2491 -7562.8406 299.9845 -543.9713 -478.1363 30696.9139 2.2013 2.0518
ENERGY: 1500000 1.5036 13.6880 3.8492 0.0000 -10596.2381 1381.9714 0.0000 0.0000 1821.1962 -7374.0297 310.1413 -9195.2259 -7370.2060 299.6853 -442.5518 -344.8443 30685.4352 1.7356 1.6748
ENERGY: 1700000 1.3560 6.6935 4.8885 0.0000 -10644.6751 1406.5458 0.0000 0.0000 1735.3221 -7489.8693 295.5174 -9225.1913 -7487.2700 299.8811 -134.0405 -64.2765 30547.3693 3.5363 3.6767
ENERGY: 1900000 5.5102 6.3487 3.8430 0.0000 -10722.5239 1450.3814 0.0000 0.0000 1751.1202 -7505.3203 298.2077 -9256.4406 -7500.6594 299.9328 -107.2758 -60.6487 30456.8797 3.7013 3.8982
TCL: Exiting due to exit command.
