Info: SIMULATION PARAMETERS:
Info: TIMESTEP               2
Info: NUMBER OF STEPS        0
Info: STEPS PER CYCLE        10
Info: PERIODIC CELL BASIS 1  37.38 0 0
Info: PERIODIC CELL BASIS 2  0 37.796 0
Info: PERIODIC CELL BASIS 3  0 0 31.349
Info: PERIODIC CELL CENTER   0 0 0
Info: WRAPPING WATERS AROUND PERIODIC BOUNDARIES ON OUTPUT.
Info: WRAPPING ALL CLUSTERS AROUND PERIODIC BOUNDARIES ON OUTPUT.
Info: FIRST LDB TIMESTEP     50
Info: LAST LDB TIMESTEP     -1
Info: HOM BACKGROUND SCALING 1
Info: PME BACKGROUND SCALING 1
Info: MIN ATOMS PER PATCH    40
Info: EMPTY PATCH LOAD       40 ATOMS
Info: INITIAL TEMPERATURE    300
Info: CENTER OF MASS MOVING INITIALLY? NO
Info: DIELECTRIC             1
Info: EXCLUDE                SCALED ONE-FOUR
Info: 1-4 ELECTROSTATICS SCALED BY 0.833333
Info: MODIFIED 1-4 VDW PARAMETERS WILL BE USED
Info: DCD FILENAME           mobley_1469079_equil.dcd
Info: DCD FREQUENCY          100000
Info: DCD FIRST STEP         100000
Info: DCD FILE WILL CONTAIN UNIT CELL DATA
Info: XST FILENAME           mobley_1469079_equil.xst
Info: XST FREQUENCY          100000
Info: NO VELOCITY DCD OUTPUT
Info: NO FORCE DCD OUTPUT
Info: OUTPUT FILENAME        mobley_1469079_equil
Info: BINARY OUTPUT FILES WILL BE USED
Info: RESTART FILENAME       mobley_1469079_equil.restart
Info: RESTART FREQUENCY      100000
Info: BINARY RESTART FILES WILL BE USED
Info: CUTOFF                 9
Info: PAIRLIST DISTANCE      11
Info: PAIRLIST SHRINK RATE   0.01
Info: PAIRLIST GROW RATE     0.01
Info: PAIRLIST TRIGGER       0.3
Info: PAIRLISTS PER CYCLE    2
Info: PAIRLISTS ENABLED
Info: MARGIN                 8
Info: HYDROGEN GROUP CUTOFF  2.5
Info: PATCH DIMENSION        21.5
Info: ENERGY OUTPUT STEPS    100000
Info: ENERGY EVALUATION STEPS    100000
Info: OUTPUT ENERGY PRECISION 4
Info: CROSSTERM ENERGY INCLUDED IN DIHEDRAL
Info: TIMING OUTPUT STEPS    1000000
Info: PRESSURE OUTPUT STEPS  100000
Info: LANGEVIN DYNAMICS ACTIVE
Info: LANGEVIN TEMPERATURE   30
Info: LANGEVIN USING BBK INTEGRATOR
Info: LANGEVIN DAMPING COEFFICIENT IS 1 INVERSE PS
Info: LANGEVIN DYNAMICS APPLIED TO HYDROGENS
Info: LANGEVIN PISTON PRESSURE CONTROL ACTIVE
Info:        TARGET PRESSURE IS 1.01325 BAR
Info:     OSCILLATION PERIOD IS 50 FS
Info:             DECAY TIME IS 25 FS
Info:     PISTON TEMPERATURE IS 300 K
Info:       PRESSURE CONTROL IS GROUP-BASED
Info:    INITIAL STRAIN RATE IS 0 0 0
Info:       CELL FLUCTUATION IS ISOTROPIC
Info: PARTICLE MESH EWALD (PME) ACTIVE
Info: PME TOLERANCE               1e-06
Info: PME EWALD COEFFICIENT       0.348832
Info: PME INTERPOLATION ORDER     4
Info: PME GRID DIMENSIONS         40 40 32
Info: PME MAXIMUM GRID SPACING    1
Info: FULL ELECTROSTATIC EVALUATION FREQUENCY      2
Info: USING VERLET I (r-RESPA) MTS SCHEME.
Info: C1 SPLITTING OF LONG RANGE ELECTROSTATICS
Info: PLACING ATOMS IN PATCHES BY HYDROGEN GROUPS
Info: RIGID BONDS TO HYDROGEN : ALL
Info:         ERROR TOLERANCE : 1e-08
Info:          MAX ITERATIONS : 100
Info: RIGID WATER USING SETTLE ALGORITHM
Info: RANDOM NUMBER SEED     1743219161
Info: USE HYDROGEN BONDS?    NO
Info: Using AMBER format force field!
Info: AMBER PARM FILE        mobley_1469079.prmtop
Info: COORDINATE PDB         mobley_1469079.pdb
Info: Exclusions will be read from PARM file!
Info: SCNB (VDW SCALING)     2
Info: USING ARITHMETIC MEAN TO COMBINE L-J SIGMA PARAMETERS
Info: BINARY COORDINATES     mobley_1469079_min.coor
Info: SUMMARY OF PARAMETERS:
Info: 6 BONDS
Info: 5 ANGLES
Info:   5 HARMONIC
Info:   0 COSINE-BASED
Info: 3 DIHEDRAL
Info: 0 IMPROPER
Info: 0 CROSSTERM
Info: 0 VDW
Info: 21 VDW_PAIRS
Info: 0 NBTHOLE_PAIRS
Info: STRUCTURE SUMMARY:
Info: 2959 ATOMS
Info: 2961 BONDS
Info: 38 ANGLES
Info: 68 DIHEDRALS
Info: 0 IMPROPERS
Info: 0 CROSSTERMS
Info: 3046 EXCLUSIONS
Info: 2943 RIGID BONDS
Info: 5934 DEGREES OF FREEDOM
Info: 995 HYDROGEN GROUPS
Info: 3 ATOMS IN LARGEST HYDROGEN GROUP
Info: 995 MIGRATION GROUPS
Info: 3 ATOMS IN LARGEST MIGRATION GROUP
Info: TOTAL MASS = 17890.7 amu
Info: TOTAL CHARGE = 0.000100005 e
Info: MASS DENSITY = 0.670778 g/cm^3
Info: ATOM DENSITY = 0.0668092 atoms/A^3
Info: ADDED 0 IMPLICIT EXCLUSIONS
Info: NONBONDED TABLE R-SQUARED SPACING: 0.0625
Info: NONBONDED TABLE SIZE: 705 POINTS
Info: REMOVING COM VELOCITY 0.0542401 0.194169 0.0215824
TCL: Running for 100000 steps
ETITLE: TS BOND ANGLE DIHED IMPRP ELECT VDW BOUNDARY MISC KINETIC TOTAL TEMP POTENTIAL TOTAL3 TEMPAVG PRESSURE GPRESSURE VOLUME PRESSAVG GPRESSAVG
ENERGY: 0 0.4222 0.2451 0.0749 0.0000 -13586.8233 2371.9808 0.0000 0.0000 1769.7589 -9444.3414 300.1628 -11214.1003 -9443.9851 300.1628 187.9361 219.3353 44290.3211 187.9361 219.3353
ENERGY: 100000 0.7580 0.8823 1.1350 0.0000 -14207.7821 2448.7875 0.0000 0.0000 178.5619 -11577.6574 30.2853 -11756.2193 -11576.9921 30.9853 -377.7794 -318.8120 29182.8596 4.0174 3.9749
TCL: Running 100000 steps at 60 kelvin.
TCL: Setting parameter langevinTemp to 60
TCL: Running for 100000 steps
ETITLE: TS BOND ANGLE DIHED IMPRP ELECT VDW BOUNDARY MISC KINETIC TOTAL TEMP POTENTIAL TOTAL3 TEMPAVG PRESSURE GPRESSURE VOLUME PRESSAVG GPRESSAVG
ENERGY: 100000 0.7580 0.8823 1.1350 0.0000 -14207.7821 2448.7875 0.0000 0.0000 178.4735 -11577.7458 30.2703 -11756.2193 -11577.3454 30.2703 -371.1680 -318.7193 29182.8596 -371.1680 -318.7193
ENERGY: 200000 0.7490 1.3205 0.8765 0.0000 -14055.2790 2382.3518 0.0000 0.0000 370.0980 -11299.8832 62.7711 -11669.9813 -11298.6194 60.0870 -509.2599 -444.9240 29255.6598 3.6300 3.6949
TCL: Running 100000 steps at 90 kelvin.
TCL: Setting parameter langevinTemp to 90
TCL: Running for 100000 steps
ETITLE: TS BOND ANGLE DIHED IMPRP ELECT VDW BOUNDARY MISC KINETIC TOTAL TEMP POTENTIAL TOTAL3 TEMPAVG PRESSURE GPRESSURE VOLUME PRESSAVG GPRESSAVG
ENERGY: 200000 0.7490 1.3205 0.8765 0.0000 -14055.2790 2382.3518 0.0000 0.0000 369.9149 -11300.0664 62.7400 -11669.9813 -11299.0967 62.7400 -495.8409 -444.7560 29255.6598 -495.8409 -444.7560
ENERGY: 300000 1.7897 2.1183 0.9233 0.0000 -14190.3654 2620.5060 0.0000 0.0000 540.0459 -11024.9822 91.5954 -11565.0281 -11023.6103 89.9891 2275.6734 2374.3873 28424.0831 4.4931 4.6078
TCL: Running 100000 steps at 120 kelvin.
TCL: Setting parameter langevinTemp to 120
TCL: Running for 100000 steps
ETITLE: TS BOND ANGLE DIHED IMPRP ELECT VDW BOUNDARY MISC KINETIC TOTAL TEMP POTENTIAL TOTAL3 TEMPAVG PRESSURE GPRESSURE VOLUME PRESSAVG GPRESSAVG
ENERGY: 300000 1.7897 2.1183 0.9233 0.0000 -14190.3654 2620.5060 0.0000 0.0000 539.7841 -11025.2440 91.5510 -11565.0281 -11024.2318 91.5510 2313.2200 2374.8869 28424.0831 2313.2200 2374.8869
ENERGY: 400000 3.4265 2.8535 2.7464 0.0000 -13735.8765 2275.3324 0.0000 0.0000 698.5215 -10752.9962 118.4739 -11451.5177 -10750.3818 120.1939 -659.8912 -644.3762 29109.4018 2.5770 2.5858
TCL: Running 100000 steps at 150 kelvin.
TCL: Setting parameter langevinTemp to 150
TCL: Running for 100000 steps
ETITLE: TS BOND ANGLE DIHED IMPRP ELECT VDW BOUNDARY MISC KINETIC TOTAL TEMP POTENTIAL TOTAL3 TEMPAVG PRESSURE GPRESSURE VOLUME PRESSAVG GPRESSAVG
ENERGY: 400000 3.4265 2.8535 2.7464 0.0000 -13735.8765 2275.3324 0.0000 0.0000 698.1708 -10753.3468 118.4144 -11451.5177 -10751.9883 118.4144 -701.1929 -644.0589 29109.4018 -701.1929 -644.0589
ENERGY: 500000 4.0359 1.5677 5.3390 0.0000 -13602.4891 2348.4858 0.0000 0.0000 883.5091 -10359.5515 149.8490 -11243.0606 -10358.0123 150.1262 952.0883 984.5284 28754.0079 3.1871 3.1230
TCL: Running 100000 steps at 180 kelvin.
TCL: Setting parameter langevinTemp to 180
TCL: Running for 100000 steps
ETITLE: TS BOND ANGLE DIHED IMPRP ELECT VDW BOUNDARY MISC KINETIC TOTAL TEMP POTENTIAL TOTAL3 TEMPAVG PRESSURE GPRESSURE VOLUME PRESSAVG GPRESSAVG
ENERGY: 500000 4.0359 1.5677 5.3390 0.0000 -13602.4891 2348.4858 0.0000 0.0000 883.0484 -10360.0122 149.7709 -11243.0606 -10358.6282 149.7709 930.6407 984.0034 28754.0079 930.6407 984.0034
ENERGY: 600000 1.6828 1.6519 3.4763 0.0000 -12847.0642 1937.5888 0.0000 0.0000 1053.7245 -9848.9399 178.7187 -10902.6644 -9844.0309 179.8529 -980.6328 -934.9820 28856.1597 3.6646 3.8153
TCL: Running 100000 steps at 210 kelvin.
TCL: Setting parameter langevinTemp to 210
TCL: Running for 100000 steps
ETITLE: TS BOND ANGLE DIHED IMPRP ELECT VDW BOUNDARY MISC KINETIC TOTAL TEMP POTENTIAL TOTAL3 TEMPAVG PRESSURE GPRESSURE VOLUME PRESSAVG GPRESSAVG
ENERGY: 600000 1.6828 1.6519 3.4763 0.0000 -12847.0642 1937.5888 0.0000 0.0000 1053.1682 -9849.4962 178.6243 -10902.6644 -9847.3413 178.6243 -1002.0442 -933.8076 28856.1597 -1002.0442 -933.8076
ENERGY: 700000 5.2758 8.1443 3.0863 0.0000 -12407.5003 1882.0888 0.0000 0.0000 1231.1026 -9277.8025 208.8032 -10508.9050 -9275.9956 209.3543 -294.7009 -254.4095 28938.4199 4.2847 4.2686
TCL: Running 100000 steps at 240 kelvin.
TCL: Setting parameter langevinTemp to 240
TCL: Running for 100000 steps
ETITLE: TS BOND ANGLE DIHED IMPRP ELECT VDW BOUNDARY MISC KINETIC TOTAL TEMP POTENTIAL TOTAL3 TEMPAVG PRESSURE GPRESSURE VOLUME PRESSAVG GPRESSAVG
ENERGY: 700000 5.2758 8.1443 3.0863 0.0000 -12407.5003 1882.0888 0.0000 0.0000 1230.4650 -9278.4400 208.6950 -10508.9050 -9275.6771 208.6950 -317.7147 -255.7699 28938.4199 -317.7147 -255.7699
ENERGY: 800000 6.0786 3.6688 4.2121 0.0000 -11832.1097 1747.7881 0.0000 0.0000 1402.2482 -8668.1138 237.8306 -10070.3620 -8663.3521 239.7305 184.4803 262.6073 29322.5586 3.2535 3.2510
TCL: Running 100000 steps at 270 kelvin.
TCL: Setting parameter langevinTemp to 270
TCL: Running for 100000 steps
ETITLE: TS BOND ANGLE DIHED IMPRP ELECT VDW BOUNDARY MISC KINETIC TOTAL TEMP POTENTIAL TOTAL3 TEMPAVG PRESSURE GPRESSURE VOLUME PRESSAVG GPRESSAVG
ENERGY: 800000 6.0786 3.6688 4.2121 0.0000 -11832.1097 1747.7881 0.0000 0.0000 1401.5408 -8668.8212 237.7106 -10070.3620 -8666.0598 237.7106 183.4740 262.8678 29322.5586 183.4740 262.8678
ENERGY: 900000 4.2965 4.7541 5.9526 0.0000 -11155.4320 1518.9003 0.0000 0.0000 1651.0197 -7970.5087 280.0239 -9621.5284 -7966.3599 269.5599 -187.2682 -83.2370 29934.8587 2.5177 2.5543
TCL: Running 1000000 steps at 300 kelvin.
TCL: Setting parameter langevinTemp to 300
TCL: Running for 1000000 steps
ETITLE: TS BOND ANGLE DIHED IMPRP ELECT VDW BOUNDARY MISC KINETIC TOTAL TEMP POTENTIAL TOTAL3 TEMPAVG PRESSURE GPRESSURE VOLUME PRESSAVG GPRESSAVG
ENERGY: 900000 4.2965 4.7541 5.9526 0.0000 -11155.4320 1518.9003 0.0000 0.0000 1650.2212 -7971.3072 279.8885 -9621.5284 -7968.7750 279.8885 -178.8263 -83.7052 29934.8587 -178.8263 -83.7052
ENERGY: 1100000 4.4836 3.8112 8.4777 0.0000 -10783.0910 1491.1921 0.0000 0.0000 1697.8826 -7577.2439 287.9722 -9275.1265 -7575.1704 300.2690 625.0470 649.6164 30118.0267 1.7041 1.7589
ENERGY: 1300000 3.1288 4.6157 7.2296 0.0000 -10552.9033 1381.2209 0.0000 0.0000 1745.5592 -7411.1492 296.0584 -9156.7083 -7407.5571 300.1846 -103.8652 -58.2437 30602.3158 2.5637 2.6588
ENERGY: 1500000 4.4287 6.0250 4.3413 0.0000 -10691.8232 1436.8050 0.0000 0.0000 1770.4613 -7469.7619 300.2820 -9240.2232 -7467.5502 300.1573 124.0751 237.2045 30507.0678 2.7364 2.6349
ENERGY: 1700000 6.3728 2.7966 5.3632 0.0000 -10724.8383 1423.6612 0.0000 0.0000 1773.6412 -7513.0033 300.8213 -9286.6445 -7511.2100 300.2335 -237.1706 -166.3036 30460.9768 2.3038 2.2707
ENERGY: 1900000 6.2230 8.1445 3.3888 0.0000 -10740.5476 1463.4548 0.0000 0.0000 1774.5538 -7484.7826 300.9761 -9259.3364 -7479.6952 299.8564 -118.6629 -77.5494 30827.2446 3.8311 4.0281
TCL: Exiting due to exit command.
