Info: SIMULATION PARAMETERS:
Info: TIMESTEP               2
Info: NUMBER OF STEPS        0
Info: STEPS PER CYCLE        10
Info: PERIODIC CELL BASIS 1  37.133 0 0
Info: PERIODIC CELL BASIS 2  0 31.785 0
Info: PERIODIC CELL BASIS 3  0 0 36.583
Info: PERIODIC CELL CENTER   0 0 0
Info: WRAPPING WATERS AROUND PERIODIC BOUNDARIES ON OUTPUT.
Info: WRAPPING ALL CLUSTERS AROUND PERIODIC BOUNDARIES ON OUTPUT.
Info: FIRST LDB TIMESTEP     50
Info: LAST LDB TIMESTEP     -1
Info: HOM BACKGROUND SCALING 1
Info: PME BACKGROUND SCALING 1
Info: MIN ATOMS PER PATCH    40
Info: EMPTY PATCH LOAD       40 ATOMS
Info: INITIAL TEMPERATURE    300
Info: CENTER OF MASS MOVING INITIALLY? NO
Info: DIELECTRIC             1
Info: EXCLUDE                SCALED ONE-FOUR
Info: 1-4 ELECTROSTATICS SCALED BY 0.833333
Info: MODIFIED 1-4 VDW PARAMETERS WILL BE USED
Info: DCD FILENAME           mobley_2523689_equil.dcd
Info: DCD FREQUENCY          100000
Info: DCD FIRST STEP         100000
Info: DCD FILE WILL CONTAIN UNIT CELL DATA
Info: XST FILENAME           mobley_2523689_equil.xst
Info: XST FREQUENCY          100000
Info: NO VELOCITY DCD OUTPUT
Info: NO FORCE DCD OUTPUT
Info: OUTPUT FILENAME        mobley_2523689_equil
Info: BINARY OUTPUT FILES WILL BE USED
Info: RESTART FILENAME       mobley_2523689_equil.restart
Info: RESTART FREQUENCY      100000
Info: BINARY RESTART FILES WILL BE USED
Info: CUTOFF                 9
Info: PAIRLIST DISTANCE      11
Info: PAIRLIST SHRINK RATE   0.01
Info: PAIRLIST GROW RATE     0.01
Info: PAIRLIST TRIGGER       0.3
Info: PAIRLISTS PER CYCLE    2
Info: PAIRLISTS ENABLED
Info: MARGIN                 8
Info: HYDROGEN GROUP CUTOFF  2.5
Info: PATCH DIMENSION        21.5
Info: ENERGY OUTPUT STEPS    100000
Info: ENERGY EVALUATION STEPS    100000
Info: OUTPUT ENERGY PRECISION 4
Info: CROSSTERM ENERGY INCLUDED IN DIHEDRAL
Info: TIMING OUTPUT STEPS    1000000
Info: PRESSURE OUTPUT STEPS  100000
Info: LANGEVIN DYNAMICS ACTIVE
Info: LANGEVIN TEMPERATURE   30
Info: LANGEVIN USING BBK INTEGRATOR
Info: LANGEVIN DAMPING COEFFICIENT IS 1 INVERSE PS
Info: LANGEVIN DYNAMICS APPLIED TO HYDROGENS
Info: LANGEVIN PISTON PRESSURE CONTROL ACTIVE
Info:        TARGET PRESSURE IS 1.01325 BAR
Info:     OSCILLATION PERIOD IS 50 FS
Info:             DECAY TIME IS 25 FS
Info:     PISTON TEMPERATURE IS 300 K
Info:       PRESSURE CONTROL IS GROUP-BASED
Info:    INITIAL STRAIN RATE IS 0 0 0
Info:       CELL FLUCTUATION IS ISOTROPIC
Info: PARTICLE MESH EWALD (PME) ACTIVE
Info: PME TOLERANCE               1e-06
Info: PME EWALD COEFFICIENT       0.348832
Info: PME INTERPOLATION ORDER     4
Info: PME GRID DIMENSIONS         40 32 40
Info: PME MAXIMUM GRID SPACING    1
Info: FULL ELECTROSTATIC EVALUATION FREQUENCY      2
Info: USING VERLET I (r-RESPA) MTS SCHEME.
Info: C1 SPLITTING OF LONG RANGE ELECTROSTATICS
Info: PLACING ATOMS IN PATCHES BY HYDROGEN GROUPS
Info: RIGID BONDS TO HYDROGEN : ALL
Info:         ERROR TOLERANCE : 1e-08
Info:          MAX ITERATIONS : 100
Info: RIGID WATER USING SETTLE ALGORITHM
Info: RANDOM NUMBER SEED     1743236241
Info: USE HYDROGEN BONDS?    NO
Info: Using AMBER format force field!
Info: AMBER PARM FILE        mobley_2523689.prmtop
Info: COORDINATE PDB         mobley_2523689.pdb
Info: Exclusions will be read from PARM file!
Info: SCNB (VDW SCALING)     2
Info: USING ARITHMETIC MEAN TO COMBINE L-J SIGMA PARAMETERS
Info: BINARY COORDINATES     mobley_2523689_min.coor
Info: SUMMARY OF PARAMETERS:
Info: 16 BONDS
Info: 21 ANGLES
Info:   21 HARMONIC
Info:   0 COSINE-BASED
Info: 10 DIHEDRAL
Info: 0 IMPROPER
Info: 0 CROSSTERM
Info: 0 VDW
Info: 45 VDW_PAIRS
Info: 0 NBTHOLE_PAIRS
Info: STRUCTURE SUMMARY:
Info: 2915 ATOMS
Info: 2916 BONDS
Info: 37 ANGLES
Info: 64 DIHEDRALS
Info: 0 IMPROPERS
Info: 0 CROSSTERMS
Info: 2999 EXCLUSIONS
Info: 2900 RIGID BONDS
Info: 5845 DEGREES OF FREEDOM
Info: 979 HYDROGEN GROUPS
Info: 3 ATOMS IN LARGEST HYDROGEN GROUP
Info: 979 MIGRATION GROUPS
Info: 3 ATOMS IN LARGEST MIGRATION GROUP
Info: TOTAL MASS = 17589.1 amu
Info: TOTAL CHARGE = -9.99644e-05 e
Info: MASS DENSITY = 0.676457 g/cm^3
Info: ATOM DENSITY = 0.0675114 atoms/A^3
Info: ADDED 0 IMPLICIT EXCLUSIONS
Info: NONBONDED TABLE R-SQUARED SPACING: 0.0625
Info: NONBONDED TABLE SIZE: 705 POINTS
Info: REMOVING COM VELOCITY -0.00737769 0.0705803 -0.0250373
TCL: Running for 100000 steps
ETITLE: TS BOND ANGLE DIHED IMPRP ELECT VDW BOUNDARY MISC KINETIC TOTAL TEMP POTENTIAL TOTAL3 TEMPAVG PRESSURE GPRESSURE VOLUME PRESSAVG GPRESSAVG
ENERGY: 0 0.8796 3.2841 2.9863 0.0000 -13436.3076 2361.1510 0.0000 0.0000 1760.3941 -9307.6125 303.1208 -11068.0066 -9307.2491 303.1208 333.1047 358.3890 43177.9054 333.1047 358.3890
ENERGY: 100000 1.0225 4.2221 3.8353 0.0000 -14099.5305 2567.4077 0.0000 0.0000 175.4729 -11347.5700 30.2145 -11523.0429 -11347.5213 30.9432 1075.5435 1109.8412 28573.1991 3.1716 3.1283
TCL: Running 100000 steps at 60 kelvin.
TCL: Setting parameter langevinTemp to 60
TCL: Running for 100000 steps
ETITLE: TS BOND ANGLE DIHED IMPRP ELECT VDW BOUNDARY MISC KINETIC TOTAL TEMP POTENTIAL TOTAL3 TEMPAVG PRESSURE GPRESSURE VOLUME PRESSAVG GPRESSAVG
ENERGY: 100000 1.0225 4.2221 3.8353 0.0000 -14099.5305 2567.4077 0.0000 0.0000 175.3873 -11347.6556 30.1998 -11523.0429 -11347.2373 30.1998 1058.8470 1109.7143 28573.1991 1058.8470 1109.7143
ENERGY: 200000 2.0745 4.5709 6.5159 0.0000 -13902.0701 2439.0220 0.0000 0.0000 359.7663 -11090.1205 61.9479 -11449.8867 -11089.7282 60.1361 207.2380 252.5019 28617.9399 5.3509 5.3419
TCL: Running 100000 steps at 90 kelvin.
TCL: Setting parameter langevinTemp to 90
TCL: Running for 100000 steps
ETITLE: TS BOND ANGLE DIHED IMPRP ELECT VDW BOUNDARY MISC KINETIC TOTAL TEMP POTENTIAL TOTAL3 TEMPAVG PRESSURE GPRESSURE VOLUME PRESSAVG GPRESSAVG
ENERGY: 200000 2.0745 4.5709 6.5159 0.0000 -13902.0701 2439.0220 0.0000 0.0000 359.5979 -11090.2889 61.9189 -11449.8867 -11089.5772 61.9189 217.9783 252.1546 28617.9399 217.9783 252.1546
ENERGY: 300000 1.8589 4.6027 7.1292 0.0000 -13726.1341 2385.9592 0.0000 0.0000 512.2404 -10814.3438 88.2022 -11326.5841 -10812.3846 90.0791 473.1080 520.1649 28334.3738 4.6474 4.6958
TCL: Running 100000 steps at 120 kelvin.
TCL: Setting parameter langevinTemp to 120
TCL: Running for 100000 steps
ETITLE: TS BOND ANGLE DIHED IMPRP ELECT VDW BOUNDARY MISC KINETIC TOTAL TEMP POTENTIAL TOTAL3 TEMPAVG PRESSURE GPRESSURE VOLUME PRESSAVG GPRESSAVG
ENERGY: 300000 1.8589 4.6027 7.1292 0.0000 -13726.1341 2385.9592 0.0000 0.0000 511.9910 -10814.5931 88.1593 -11326.5841 -10813.6805 88.1593 475.6404 521.1735 28334.3738 475.6404 521.1735
ENERGY: 400000 5.2516 5.2177 7.1728 0.0000 -13383.8734 2168.1285 0.0000 0.0000 702.6952 -10495.4076 120.9965 -11198.1027 -10493.8550 120.0749 -1114.5410 -1047.8380 28798.5239 3.8674 3.9132
TCL: Running 100000 steps at 150 kelvin.
TCL: Setting parameter langevinTemp to 150
TCL: Running for 100000 steps
ETITLE: TS BOND ANGLE DIHED IMPRP ELECT VDW BOUNDARY MISC KINETIC TOTAL TEMP POTENTIAL TOTAL3 TEMPAVG PRESSURE GPRESSURE VOLUME PRESSAVG GPRESSAVG
ENERGY: 400000 5.2516 5.2177 7.1728 0.0000 -13383.8734 2168.1285 0.0000 0.0000 702.3466 -10495.7562 120.9365 -11198.1027 -10494.5820 120.9365 -1102.2146 -1048.1640 28798.5239 -1102.2146 -1048.1640
ENERGY: 500000 2.1890 4.7934 6.8481 0.0000 -13413.0084 2323.2435 0.0000 0.0000 865.3969 -10210.5376 149.0120 -11075.9344 -10208.3383 149.4453 1000.0417 1051.1479 28219.2567 2.6807 2.8269
TCL: Running 100000 steps at 180 kelvin.
TCL: Setting parameter langevinTemp to 180
TCL: Running for 100000 steps
ETITLE: TS BOND ANGLE DIHED IMPRP ELECT VDW BOUNDARY MISC KINETIC TOTAL TEMP POTENTIAL TOTAL3 TEMPAVG PRESSURE GPRESSURE VOLUME PRESSAVG GPRESSAVG
ENERGY: 500000 2.1890 4.7934 6.8481 0.0000 -13413.0084 2323.2435 0.0000 0.0000 864.9645 -10210.9699 148.9375 -11075.9344 -10209.2118 148.9375 1002.5310 1051.7410 28219.2567 1002.5310 1051.7410
ENERGY: 600000 6.5758 6.9846 5.5653 0.0000 -12924.8959 2105.4728 0.0000 0.0000 1016.5004 -9783.7969 175.0304 -10800.2974 -9782.4875 179.8592 -193.7591 -128.7386 28596.5504 3.2563 3.3103
TCL: Running 100000 steps at 210 kelvin.
TCL: Setting parameter langevinTemp to 210
TCL: Running for 100000 steps
ETITLE: TS BOND ANGLE DIHED IMPRP ELECT VDW BOUNDARY MISC KINETIC TOTAL TEMP POTENTIAL TOTAL3 TEMPAVG PRESSURE GPRESSURE VOLUME PRESSAVG GPRESSAVG
ENERGY: 600000 6.5758 6.9846 5.5653 0.0000 -12924.8959 2105.4728 0.0000 0.0000 1015.9973 -9784.3000 174.9438 -10800.2974 -9782.1804 174.9438 -187.8201 -130.9924 28596.5504 -187.8201 -130.9924
ENERGY: 700000 2.3943 5.9306 7.9813 0.0000 -12130.5036 1786.6953 0.0000 0.0000 1202.9579 -9124.5442 207.1363 -10327.5021 -9121.4229 209.5872 -728.8005 -651.6289 28463.4057 3.2038 3.2057
TCL: Running 100000 steps at 240 kelvin.
TCL: Setting parameter langevinTemp to 240
TCL: Running for 100000 steps
ETITLE: TS BOND ANGLE DIHED IMPRP ELECT VDW BOUNDARY MISC KINETIC TOTAL TEMP POTENTIAL TOTAL3 TEMPAVG PRESSURE GPRESSURE VOLUME PRESSAVG GPRESSAVG
ENERGY: 700000 2.3943 5.9306 7.9813 0.0000 -12130.5036 1786.6953 0.0000 0.0000 1202.3850 -9125.1171 207.0377 -10327.5021 -9122.8176 207.0377 -723.7688 -649.4125 28463.4057 -723.7688 -649.4125
ENERGY: 800000 6.3591 9.5986 9.1485 0.0000 -11472.7859 1664.3368 0.0000 0.0000 1366.5265 -8416.8164 235.3011 -9783.3429 -8414.5584 240.2952 278.9585 399.5629 28369.7608 2.4242 2.6043
TCL: Running 100000 steps at 270 kelvin.
TCL: Setting parameter langevinTemp to 270
TCL: Running for 100000 steps
ETITLE: TS BOND ANGLE DIHED IMPRP ELECT VDW BOUNDARY MISC KINETIC TOTAL TEMP POTENTIAL TOTAL3 TEMPAVG PRESSURE GPRESSURE VOLUME PRESSAVG GPRESSAVG
ENERGY: 800000 6.3591 9.5986 9.1485 0.0000 -11472.7859 1664.3368 0.0000 0.0000 1365.8527 -8417.4902 235.1851 -9783.3429 -8415.5301 235.1851 309.4083 399.6335 28369.7608 309.4083 399.6335
ENERGY: 900000 4.3368 8.1652 8.5963 0.0000 -11055.1217 1516.0660 0.0000 0.0000 1560.5771 -7957.3803 268.7145 -9517.9574 -7952.8152 270.0653 -493.1143 -429.1964 29405.4782 3.0042 2.8876
TCL: Running 1000000 steps at 300 kelvin.
TCL: Setting parameter langevinTemp to 300
TCL: Running for 1000000 steps
ETITLE: TS BOND ANGLE DIHED IMPRP ELECT VDW BOUNDARY MISC KINETIC TOTAL TEMP POTENTIAL TOTAL3 TEMPAVG PRESSURE GPRESSURE VOLUME PRESSAVG GPRESSAVG
ENERGY: 900000 4.3368 8.1652 8.5963 0.0000 -11055.1217 1516.0660 0.0000 0.0000 1559.7935 -7958.1639 268.5796 -9517.9574 -7954.7615 268.5796 -514.5058 -429.1525 29405.4782 -514.5058 -429.1525
ENERGY: 1100000 5.2415 12.9999 7.1997 0.0000 -10673.5141 1507.5526 0.0000 0.0000 1761.7966 -7378.7238 303.3623 -9140.5205 -7376.6756 300.4171 573.3856 612.7662 29584.3014 4.2941 4.3618
ENERGY: 1300000 4.6730 7.8999 8.2742 0.0000 -10569.7643 1450.0981 0.0000 0.0000 1719.4998 -7379.3193 296.0793 -9098.8191 -7377.0271 300.5155 174.3541 305.0519 30254.7151 2.5973 2.6236
ENERGY: 1500000 4.3520 7.7853 8.9488 0.0000 -10537.5827 1413.5809 0.0000 0.0000 1746.1747 -7356.7410 300.6724 -9102.9157 -7351.2764 300.6094 -350.4231 -169.5819 30062.3869 4.0219 3.9549
ENERGY: 1700000 8.9448 8.9403 8.0688 0.0000 -10495.3767 1390.2292 0.0000 0.0000 1777.5048 -7301.6888 306.0671 -9079.1936 -7296.3135 299.8191 -171.1492 -65.0036 30127.0724 4.0404 4.0721
ENERGY: 1900000 5.6595 9.7101 10.7259 0.0000 -10463.0477 1386.9443 0.0000 0.0000 1685.8893 -7364.1186 290.2919 -9050.0079 -7362.5601 300.8710 -381.1060 -300.1822 30514.6785 3.1312 3.0482
TCL: Exiting due to exit command.
