Info: SIMULATION PARAMETERS:
Info: TIMESTEP               2
Info: NUMBER OF STEPS        0
Info: STEPS PER CYCLE        10
Info: PERIODIC CELL BASIS 1  34.207 0 0
Info: PERIODIC CELL BASIS 2  0 32.293 0
Info: PERIODIC CELL BASIS 3  0 0 39.527
Info: PERIODIC CELL CENTER   0 0 0
Info: WRAPPING WATERS AROUND PERIODIC BOUNDARIES ON OUTPUT.
Info: WRAPPING ALL CLUSTERS AROUND PERIODIC BOUNDARIES ON OUTPUT.
Info: FIRST LDB TIMESTEP     50
Info: LAST LDB TIMESTEP     -1
Info: HOM BACKGROUND SCALING 1
Info: PME BACKGROUND SCALING 1
Info: MIN ATOMS PER PATCH    40
Info: EMPTY PATCH LOAD       40 ATOMS
Info: INITIAL TEMPERATURE    300
Info: CENTER OF MASS MOVING INITIALLY? NO
Info: DIELECTRIC             1
Info: EXCLUDE                SCALED ONE-FOUR
Info: 1-4 ELECTROSTATICS SCALED BY 0.833333
Info: MODIFIED 1-4 VDW PARAMETERS WILL BE USED
Info: DCD FILENAME           mobley_7393673_equil.dcd
Info: DCD FREQUENCY          100000
Info: DCD FIRST STEP         100000
Info: DCD FILE WILL CONTAIN UNIT CELL DATA
Info: XST FILENAME           mobley_7393673_equil.xst
Info: XST FREQUENCY          100000
Info: NO VELOCITY DCD OUTPUT
Info: NO FORCE DCD OUTPUT
Info: OUTPUT FILENAME        mobley_7393673_equil
Info: BINARY OUTPUT FILES WILL BE USED
Info: RESTART FILENAME       mobley_7393673_equil.restart
Info: RESTART FREQUENCY      100000
Info: BINARY RESTART FILES WILL BE USED
Info: CUTOFF                 9
Info: PAIRLIST DISTANCE      11
Info: PAIRLIST SHRINK RATE   0.01
Info: PAIRLIST GROW RATE     0.01
Info: PAIRLIST TRIGGER       0.3
Info: PAIRLISTS PER CYCLE    2
Info: PAIRLISTS ENABLED
Info: MARGIN                 8
Info: HYDROGEN GROUP CUTOFF  2.5
Info: PATCH DIMENSION        21.5
Info: ENERGY OUTPUT STEPS    100000
Info: ENERGY EVALUATION STEPS    100000
Info: OUTPUT ENERGY PRECISION 4
Info: CROSSTERM ENERGY INCLUDED IN DIHEDRAL
Info: TIMING OUTPUT STEPS    1000000
Info: PRESSURE OUTPUT STEPS  100000
Info: LANGEVIN DYNAMICS ACTIVE
Info: LANGEVIN TEMPERATURE   30
Info: LANGEVIN USING BBK INTEGRATOR
Info: LANGEVIN DAMPING COEFFICIENT IS 1 INVERSE PS
Info: LANGEVIN DYNAMICS APPLIED TO HYDROGENS
Info: LANGEVIN PISTON PRESSURE CONTROL ACTIVE
Info:        TARGET PRESSURE IS 1.01325 BAR
Info:     OSCILLATION PERIOD IS 50 FS
Info:             DECAY TIME IS 25 FS
Info:     PISTON TEMPERATURE IS 300 K
Info:       PRESSURE CONTROL IS GROUP-BASED
Info:    INITIAL STRAIN RATE IS 0 0 0
Info:       CELL FLUCTUATION IS ISOTROPIC
Info: PARTICLE MESH EWALD (PME) ACTIVE
Info: PME TOLERANCE               1e-06
Info: PME EWALD COEFFICIENT       0.348832
Info: PME INTERPOLATION ORDER     4
Info: PME GRID DIMENSIONS         36 36 40
Info: PME MAXIMUM GRID SPACING    1
Info: FULL ELECTROSTATIC EVALUATION FREQUENCY      2
Info: USING VERLET I (r-RESPA) MTS SCHEME.
Info: C1 SPLITTING OF LONG RANGE ELECTROSTATICS
Info: PLACING ATOMS IN PATCHES BY HYDROGEN GROUPS
Info: RIGID BONDS TO HYDROGEN : ALL
Info:         ERROR TOLERANCE : 1e-08
Info:          MAX ITERATIONS : 100
Info: RIGID WATER USING SETTLE ALGORITHM
Info: RANDOM NUMBER SEED     1743245074
Info: USE HYDROGEN BONDS?    NO
Info: Using AMBER format force field!
Info: AMBER PARM FILE        mobley_7393673.prmtop
Info: COORDINATE PDB         mobley_7393673.pdb
Info: Exclusions will be read from PARM file!
Info: SCNB (VDW SCALING)     2
Info: USING ARITHMETIC MEAN TO COMBINE L-J SIGMA PARAMETERS
Info: BINARY COORDINATES     mobley_7393673_min.coor
Info: SUMMARY OF PARAMETERS:
Info: 10 BONDS
Info: 11 ANGLES
Info:   11 HARMONIC
Info:   0 COSINE-BASED
Info: 7 DIHEDRAL
Info: 0 IMPROPER
Info: 0 CROSSTERM
Info: 0 VDW
Info: 36 VDW_PAIRS
Info: 0 NBTHOLE_PAIRS
Info: STRUCTURE SUMMARY:
Info: 2953 ATOMS
Info: 2953 BONDS
Info: 35 ANGLES
Info: 46 DIHEDRALS
Info: 0 IMPROPERS
Info: 0 CROSSTERMS
Info: 3023 EXCLUSIONS
Info: 2941 RIGID BONDS
Info: 5918 DEGREES OF FREEDOM
Info: 989 HYDROGEN GROUPS
Info: 4 ATOMS IN LARGEST HYDROGEN GROUP
Info: 989 MIGRATION GROUPS
Info: 4 ATOMS IN LARGEST MIGRATION GROUP
Info: TOTAL MASS = 17767.8 amu
Info: TOTAL CHARGE = -9.99831e-05 e
Info: MASS DENSITY = 0.675734 g/cm^3
Info: ATOM DENSITY = 0.0676311 atoms/A^3
Info: ADDED 0 IMPLICIT EXCLUSIONS
Info: NONBONDED TABLE R-SQUARED SPACING: 0.0625
Info: NONBONDED TABLE SIZE: 705 POINTS
Info: REMOVING COM VELOCITY -0.0365506 -0.156344 0.0238743
TCL: Running for 100000 steps
ETITLE: TS BOND ANGLE DIHED IMPRP ELECT VDW BOUNDARY MISC KINETIC TOTAL TEMP POTENTIAL TOTAL3 TEMPAVG PRESSURE GPRESSURE VOLUME PRESSAVG GPRESSAVG
ENERGY: 0 0.3871 1.2551 0.1163 0.0000 -13580.1117 2373.5620 0.0000 0.0000 1769.5982 -9435.1930 300.9470 -11204.7912 -9434.8421 300.9470 465.0239 507.3928 43663.3682 465.0239 507.3928
ENERGY: 100000 0.8068 1.9825 1.0532 0.0000 -14190.8681 2431.7812 0.0000 0.0000 175.6017 -11579.6427 29.8637 -11755.2444 -11578.9978 30.9787 -248.8463 -186.0177 28252.8220 3.3081 3.2741
TCL: Running 100000 steps at 60 kelvin.
TCL: Setting parameter langevinTemp to 60
TCL: Running for 100000 steps
ETITLE: TS BOND ANGLE DIHED IMPRP ELECT VDW BOUNDARY MISC KINETIC TOTAL TEMP POTENTIAL TOTAL3 TEMPAVG PRESSURE GPRESSURE VOLUME PRESSAVG GPRESSAVG
ENERGY: 100000 0.8068 1.9825 1.0532 0.0000 -14190.8681 2431.7812 0.0000 0.0000 175.5113 -11579.7331 29.8484 -11755.2444 -11579.2980 29.8484 -239.4759 -186.0898 28252.8220 -239.4759 -186.0898
ENERGY: 200000 1.8714 1.7455 1.9488 0.0000 -13937.0670 2254.9181 0.0000 0.0000 356.1735 -11320.4096 60.5727 -11676.5832 -11319.2794 59.9229 -1625.3012 -1587.1471 28691.8097 5.2557 5.1778
TCL: Running 100000 steps at 90 kelvin.
TCL: Setting parameter langevinTemp to 90
TCL: Running for 100000 steps
ETITLE: TS BOND ANGLE DIHED IMPRP ELECT VDW BOUNDARY MISC KINETIC TOTAL TEMP POTENTIAL TOTAL3 TEMPAVG PRESSURE GPRESSURE VOLUME PRESSAVG GPRESSAVG
ENERGY: 200000 1.8714 1.7455 1.9488 0.0000 -13937.0670 2254.9181 0.0000 0.0000 355.9963 -11320.5869 60.5426 -11676.5832 -11319.6371 60.5426 -1646.7728 -1587.2841 28691.8097 -1646.7728 -1587.2841
ENERGY: 300000 1.7278 3.2049 4.8495 0.0000 -14022.1149 2445.5632 0.0000 0.0000 519.7175 -11047.0519 88.3859 -11566.7694 -11045.9902 89.7976 326.8242 402.8776 28731.3735 4.3120 4.3056
TCL: Running 100000 steps at 120 kelvin.
TCL: Setting parameter langevinTemp to 120
TCL: Running for 100000 steps
ETITLE: TS BOND ANGLE DIHED IMPRP ELECT VDW BOUNDARY MISC KINETIC TOTAL TEMP POTENTIAL TOTAL3 TEMPAVG PRESSURE GPRESSURE VOLUME PRESSAVG GPRESSAVG
ENERGY: 300000 1.7278 3.2049 4.8495 0.0000 -14022.1149 2445.5632 0.0000 0.0000 519.4701 -11047.2993 88.3438 -11566.7694 -11046.1110 88.3438 350.5945 402.4083 28731.3735 350.5945 402.4083
ENERGY: 400000 2.7433 5.2781 1.6845 0.0000 -13659.1378 2232.0377 0.0000 0.0000 711.1266 -10706.2675 120.9379 -11417.3941 -10704.7673 119.9241 -807.7712 -782.9264 29022.2206 4.3430 4.3551
TCL: Running 100000 steps at 150 kelvin.
TCL: Setting parameter langevinTemp to 150
TCL: Running for 100000 steps
ETITLE: TS BOND ANGLE DIHED IMPRP ELECT VDW BOUNDARY MISC KINETIC TOTAL TEMP POTENTIAL TOTAL3 TEMPAVG PRESSURE GPRESSURE VOLUME PRESSAVG GPRESSAVG
ENERGY: 400000 2.7433 5.2781 1.6845 0.0000 -13659.1378 2232.0377 0.0000 0.0000 710.7690 -10706.6251 120.8771 -11417.3941 -10704.9952 120.8771 -836.3621 -783.3445 29022.2206 -836.3621 -783.3445
ENERGY: 500000 2.5154 4.1501 2.0855 0.0000 -13589.5984 2276.4621 0.0000 0.0000 878.1696 -10426.2157 149.3461 -11304.3853 -10423.4212 149.8791 43.5522 106.7153 28950.3325 4.5352 4.6233
TCL: Running 100000 steps at 180 kelvin.
TCL: Setting parameter langevinTemp to 180
TCL: Running for 100000 steps
ETITLE: TS BOND ANGLE DIHED IMPRP ELECT VDW BOUNDARY MISC KINETIC TOTAL TEMP POTENTIAL TOTAL3 TEMPAVG PRESSURE GPRESSURE VOLUME PRESSAVG GPRESSAVG
ENERGY: 500000 2.5154 4.1501 2.0855 0.0000 -13589.5984 2276.4621 0.0000 0.0000 877.7336 -10426.6517 149.2719 -11304.3853 -10424.7024 149.2719 68.3721 106.5129 28950.3325 68.3721 106.5129
ENERGY: 600000 1.5398 6.2349 3.0430 0.0000 -13088.6550 2122.1453 0.0000 0.0000 1077.6359 -9878.0562 183.2684 -10955.6921 -9876.1714 179.6278 211.9541 332.8772 28966.2658 3.4435 3.5271
TCL: Running 100000 steps at 210 kelvin.
TCL: Setting parameter langevinTemp to 210
TCL: Running for 100000 steps
ETITLE: TS BOND ANGLE DIHED IMPRP ELECT VDW BOUNDARY MISC KINETIC TOTAL TEMP POTENTIAL TOTAL3 TEMPAVG PRESSURE GPRESSURE VOLUME PRESSAVG GPRESSAVG
ENERGY: 600000 1.5398 6.2349 3.0430 0.0000 -13088.6550 2122.1453 0.0000 0.0000 1077.1068 -9878.5853 183.1784 -10955.6921 -9876.5513 183.1784 264.4426 332.5646 28966.2658 264.4426 332.5646
ENERGY: 700000 3.0195 6.7582 5.4971 0.0000 -12315.9707 1799.5924 0.0000 0.0000 1221.3341 -9279.7695 207.7064 -10501.1035 -9276.4963 209.9901 -977.4125 -938.3477 29048.7693 3.4852 3.2988
TCL: Running 100000 steps at 240 kelvin.
TCL: Setting parameter langevinTemp to 240
TCL: Running for 100000 steps
ETITLE: TS BOND ANGLE DIHED IMPRP ELECT VDW BOUNDARY MISC KINETIC TOTAL TEMP POTENTIAL TOTAL3 TEMPAVG PRESSURE GPRESSURE VOLUME PRESSAVG GPRESSAVG
ENERGY: 700000 3.0195 6.7582 5.4971 0.0000 -12315.9707 1799.5924 0.0000 0.0000 1220.7217 -9280.3818 207.6023 -10501.1035 -9277.8618 207.6023 -1001.9700 -937.7917 29048.7693 -1001.9700 -937.7917
ENERGY: 800000 3.0001 4.9856 5.6039 0.0000 -11669.2306 1658.5878 0.0000 0.0000 1370.7634 -8626.2899 233.1191 -9997.0533 -8624.0299 239.2628 -182.1372 -172.5668 29301.1941 3.1348 3.3417
TCL: Running 100000 steps at 270 kelvin.
TCL: Setting parameter langevinTemp to 270
TCL: Running for 100000 steps
ETITLE: TS BOND ANGLE DIHED IMPRP ELECT VDW BOUNDARY MISC KINETIC TOTAL TEMP POTENTIAL TOTAL3 TEMPAVG PRESSURE GPRESSURE VOLUME PRESSAVG GPRESSAVG
ENERGY: 800000 3.0001 4.9856 5.6039 0.0000 -11669.2306 1658.5878 0.0000 0.0000 1370.0575 -8626.9958 232.9991 -9997.0533 -8625.1989 232.9991 -246.6521 -173.2776 29301.1941 -246.6521 -173.2776
ENERGY: 900000 2.7208 10.2970 3.5805 0.0000 -11132.7257 1543.7419 0.0000 0.0000 1527.0685 -8045.3171 259.7012 -9572.3856 -8042.0599 270.1757 -76.3020 -56.3071 29914.4590 2.2950 2.1797
TCL: Running 1000000 steps at 300 kelvin.
TCL: Setting parameter langevinTemp to 300
TCL: Running for 1000000 steps
ETITLE: TS BOND ANGLE DIHED IMPRP ELECT VDW BOUNDARY MISC KINETIC TOTAL TEMP POTENTIAL TOTAL3 TEMPAVG PRESSURE GPRESSURE VOLUME PRESSAVG GPRESSAVG
ENERGY: 900000 2.7208 10.2970 3.5805 0.0000 -11132.7257 1543.7419 0.0000 0.0000 1526.2533 -8046.1322 259.5626 -9572.3856 -8043.1016 259.5626 -139.8299 -58.0693 29914.4590 -139.8299 -58.0693
ENERGY: 1100000 2.7921 5.8276 1.8516 0.0000 -10773.2669 1424.8194 0.0000 0.0000 1785.2168 -7552.7594 303.6032 -9337.9762 -7549.1727 299.8836 -110.1875 -69.1634 30176.5979 2.6047 2.6914
ENERGY: 1300000 3.5494 10.4399 3.9870 0.0000 -10504.6524 1326.9190 0.0000 0.0000 1798.0803 -7361.6770 305.7909 -9159.7572 -7355.9441 300.2777 -883.7509 -787.6585 31005.4461 2.4080 2.5650
ENERGY: 1500000 3.1247 5.8589 10.2341 0.0000 -10753.9182 1478.6178 0.0000 0.0000 1817.2528 -7438.8298 309.0514 -9256.0827 -7435.8970 300.3556 608.6829 660.0897 29870.6767 3.8608 3.8237
ENERGY: 1700000 6.3501 7.2812 8.8042 0.0000 -10693.1059 1429.8192 0.0000 0.0000 1790.7776 -7450.0735 304.5489 -9240.8511 -7445.4856 300.3270 -95.6665 -29.0873 30351.6146 2.5899 2.5062
ENERGY: 1900000 7.7615 9.5622 2.3269 0.0000 -10721.2554 1401.9594 0.0000 0.0000 1809.8292 -7489.8162 307.7889 -9299.6454 -7485.3828 300.2928 -611.5899 -510.5703 30330.3747 2.1599 2.1340
TCL: Exiting due to exit command.
