Info: SIMULATION PARAMETERS:
Info: TIMESTEP               2
Info: NUMBER OF STEPS        0
Info: STEPS PER CYCLE        10
Info: PERIODIC CELL BASIS 1  37.435 0 0
Info: PERIODIC CELL BASIS 2  0 37.796 0
Info: PERIODIC CELL BASIS 3  0 0 31.349
Info: PERIODIC CELL CENTER   0 0 0
Info: WRAPPING WATERS AROUND PERIODIC BOUNDARIES ON OUTPUT.
Info: WRAPPING ALL CLUSTERS AROUND PERIODIC BOUNDARIES ON OUTPUT.
Info: FIRST LDB TIMESTEP     50
Info: LAST LDB TIMESTEP     -1
Info: HOM BACKGROUND SCALING 1
Info: PME BACKGROUND SCALING 1
Info: MIN ATOMS PER PATCH    40
Info: EMPTY PATCH LOAD       40 ATOMS
Info: INITIAL TEMPERATURE    300
Info: CENTER OF MASS MOVING INITIALLY? NO
Info: DIELECTRIC             1
Info: EXCLUDE                SCALED ONE-FOUR
Info: 1-4 ELECTROSTATICS SCALED BY 0.833333
Info: MODIFIED 1-4 VDW PARAMETERS WILL BE USED
Info: DCD FILENAME           mobley_2960202_equil.dcd
Info: DCD FREQUENCY          100000
Info: DCD FIRST STEP         100000
Info: DCD FILE WILL CONTAIN UNIT CELL DATA
Info: XST FILENAME           mobley_2960202_equil.xst
Info: XST FREQUENCY          100000
Info: NO VELOCITY DCD OUTPUT
Info: NO FORCE DCD OUTPUT
Info: OUTPUT FILENAME        mobley_2960202_equil
Info: BINARY OUTPUT FILES WILL BE USED
Info: RESTART FILENAME       mobley_2960202_equil.restart
Info: RESTART FREQUENCY      100000
Info: BINARY RESTART FILES WILL BE USED
Info: CUTOFF                 9
Info: PAIRLIST DISTANCE      11
Info: PAIRLIST SHRINK RATE   0.01
Info: PAIRLIST GROW RATE     0.01
Info: PAIRLIST TRIGGER       0.3
Info: PAIRLISTS PER CYCLE    2
Info: PAIRLISTS ENABLED
Info: MARGIN                 8
Info: HYDROGEN GROUP CUTOFF  2.5
Info: PATCH DIMENSION        21.5
Info: ENERGY OUTPUT STEPS    100000
Info: ENERGY EVALUATION STEPS    100000
Info: OUTPUT ENERGY PRECISION 4
Info: CROSSTERM ENERGY INCLUDED IN DIHEDRAL
Info: TIMING OUTPUT STEPS    1000000
Info: PRESSURE OUTPUT STEPS  100000
Info: LANGEVIN DYNAMICS ACTIVE
Info: LANGEVIN TEMPERATURE   30
Info: LANGEVIN USING BBK INTEGRATOR
Info: LANGEVIN DAMPING COEFFICIENT IS 1 INVERSE PS
Info: LANGEVIN DYNAMICS APPLIED TO HYDROGENS
Info: LANGEVIN PISTON PRESSURE CONTROL ACTIVE
Info:        TARGET PRESSURE IS 1.01325 BAR
Info:     OSCILLATION PERIOD IS 50 FS
Info:             DECAY TIME IS 25 FS
Info:     PISTON TEMPERATURE IS 300 K
Info:       PRESSURE CONTROL IS GROUP-BASED
Info:    INITIAL STRAIN RATE IS 0 0 0
Info:       CELL FLUCTUATION IS ISOTROPIC
Info: PARTICLE MESH EWALD (PME) ACTIVE
Info: PME TOLERANCE               1e-06
Info: PME EWALD COEFFICIENT       0.348832
Info: PME INTERPOLATION ORDER     4
Info: PME GRID DIMENSIONS         40 40 32
Info: PME MAXIMUM GRID SPACING    1
Info: FULL ELECTROSTATIC EVALUATION FREQUENCY      2
Info: USING VERLET I (r-RESPA) MTS SCHEME.
Info: C1 SPLITTING OF LONG RANGE ELECTROSTATICS
Info: PLACING ATOMS IN PATCHES BY HYDROGEN GROUPS
Info: RIGID BONDS TO HYDROGEN : ALL
Info:         ERROR TOLERANCE : 1e-08
Info:          MAX ITERATIONS : 100
Info: RIGID WATER USING SETTLE ALGORITHM
Info: RANDOM NUMBER SEED     1743219452
Info: USE HYDROGEN BONDS?    NO
Info: Using AMBER format force field!
Info: AMBER PARM FILE        mobley_2960202.prmtop
Info: COORDINATE PDB         mobley_2960202.pdb
Info: Exclusions will be read from PARM file!
Info: SCNB (VDW SCALING)     2
Info: USING ARITHMETIC MEAN TO COMBINE L-J SIGMA PARAMETERS
Info: BINARY COORDINATES     mobley_2960202_min.coor
Info: SUMMARY OF PARAMETERS:
Info: 6 BONDS
Info: 5 ANGLES
Info:   5 HARMONIC
Info:   0 COSINE-BASED
Info: 3 DIHEDRAL
Info: 0 IMPROPER
Info: 0 CROSSTERM
Info: 0 VDW
Info: 21 VDW_PAIRS
Info: 0 NBTHOLE_PAIRS
Info: STRUCTURE SUMMARY:
Info: 2953 ATOMS
Info: 2955 BONDS
Info: 38 ANGLES
Info: 68 DIHEDRALS
Info: 0 IMPROPERS
Info: 0 CROSSTERMS
Info: 3040 EXCLUSIONS
Info: 2933 RIGID BONDS
Info: 5926 DEGREES OF FREEDOM
Info: 997 HYDROGEN GROUPS
Info: 3 ATOMS IN LARGEST HYDROGEN GROUP
Info: 997 MIGRATION GROUPS
Info: 3 ATOMS IN LARGEST MIGRATION GROUP
Info: TOTAL MASS = 17992.5 amu
Info: TOTAL CHARGE = 0.00050002 e
Info: MASS DENSITY = 0.673601 g/cm^3
Info: ATOM DENSITY = 0.0665758 atoms/A^3
Info: ADDED 0 IMPLICIT EXCLUSIONS
Info: NONBONDED TABLE R-SQUARED SPACING: 0.0625
Info: NONBONDED TABLE SIZE: 705 POINTS
Info: REMOVING COM VELOCITY 0.00672714 -0.0697132 -0.00984585
TCL: Running for 100000 steps
ETITLE: TS BOND ANGLE DIHED IMPRP ELECT VDW BOUNDARY MISC KINETIC TOTAL TEMP POTENTIAL TOTAL3 TEMPAVG PRESSURE GPRESSURE VOLUME PRESSAVG GPRESSAVG
ENERGY: 0 0.6149 0.3257 0.1887 0.0000 -13576.5267 2382.7876 0.0000 0.0000 1800.2007 -9392.4091 305.7382 -11192.6098 -9392.0348 305.7382 255.5354 288.1268 44355.4888 255.5354 288.1268
ENERGY: 100000 1.6704 0.7406 1.7654 0.0000 -14096.5279 2420.9667 0.0000 0.0000 179.4434 -11491.9414 30.4759 -11671.3848 -11491.5202 30.8915 -319.2391 -273.2454 29744.4441 4.7939 4.7298
TCL: Running 100000 steps at 60 kelvin.
TCL: Setting parameter langevinTemp to 60
TCL: Running for 100000 steps
ETITLE: TS BOND ANGLE DIHED IMPRP ELECT VDW BOUNDARY MISC KINETIC TOTAL TEMP POTENTIAL TOTAL3 TEMPAVG PRESSURE GPRESSURE VOLUME PRESSAVG GPRESSAVG
ENERGY: 100000 1.6704 0.7406 1.7654 0.0000 -14096.5279 2420.9667 0.0000 0.0000 179.3557 -11492.0291 30.4610 -11671.3848 -11491.5692 30.4610 -326.7265 -273.2407 29744.4441 -326.7265 -273.2407
ENERGY: 200000 2.3623 1.4295 1.5102 0.0000 -13936.5814 2319.9031 0.0000 0.0000 342.5969 -11268.7795 58.1851 -11611.3763 -11268.0065 59.9553 -791.9749 -756.2742 29398.8058 4.0305 3.9760
TCL: Running 100000 steps at 90 kelvin.
TCL: Setting parameter langevinTemp to 90
TCL: Running for 100000 steps
ETITLE: TS BOND ANGLE DIHED IMPRP ELECT VDW BOUNDARY MISC KINETIC TOTAL TEMP POTENTIAL TOTAL3 TEMPAVG PRESSURE GPRESSURE VOLUME PRESSAVG GPRESSAVG
ENERGY: 200000 2.3623 1.4295 1.5102 0.0000 -13936.5814 2319.9031 0.0000 0.0000 342.4204 -11268.9559 58.1552 -11611.3763 -11268.1570 58.1552 -803.1505 -756.3074 29398.8058 -803.1505 -756.3074
ENERGY: 300000 4.2323 2.6044 1.5106 0.0000 -13743.6078 2212.8510 0.0000 0.0000 523.2779 -10999.1316 88.8712 -11522.4095 -10997.6605 90.1774 -1383.9092 -1326.0650 29370.2436 5.1847 5.1779
TCL: Running 100000 steps at 120 kelvin.
TCL: Setting parameter langevinTemp to 120
TCL: Running for 100000 steps
ETITLE: TS BOND ANGLE DIHED IMPRP ELECT VDW BOUNDARY MISC KINETIC TOTAL TEMP POTENTIAL TOTAL3 TEMPAVG PRESSURE GPRESSURE VOLUME PRESSAVG GPRESSAVG
ENERGY: 300000 4.2323 2.6044 1.5106 0.0000 -13743.6078 2212.8510 0.0000 0.0000 523.0152 -10999.3942 88.8266 -11522.4095 -10998.0463 88.8266 -1377.2748 -1326.2740 29370.2436 -1377.2748 -1326.2740
ENERGY: 400000 2.9429 1.6748 3.5625 0.0000 -13706.7060 2277.9781 0.0000 0.0000 706.9171 -10713.6305 120.0597 -11420.5477 -10711.6028 119.9057 -479.9428 -389.7472 29402.3134 4.8318 4.7580
TCL: Running 100000 steps at 150 kelvin.
TCL: Setting parameter langevinTemp to 150
TCL: Running for 100000 steps
ETITLE: TS BOND ANGLE DIHED IMPRP ELECT VDW BOUNDARY MISC KINETIC TOTAL TEMP POTENTIAL TOTAL3 TEMPAVG PRESSURE GPRESSURE VOLUME PRESSAVG GPRESSAVG
ENERGY: 400000 2.9429 1.6748 3.5625 0.0000 -13706.7060 2277.9781 0.0000 0.0000 706.5741 -10713.9736 120.0014 -11420.5477 -10712.2395 120.0014 -453.5162 -389.5539 29402.3134 -453.5162 -389.5539
ENERGY: 500000 4.1535 4.1103 2.1499 0.0000 -13503.6909 2253.4876 0.0000 0.0000 883.8005 -10355.9891 150.1008 -11239.7896 -10352.7928 149.7140 88.6601 97.9922 29097.0638 3.9582 4.0872
TCL: Running 100000 steps at 180 kelvin.
TCL: Setting parameter langevinTemp to 180
TCL: Running for 100000 steps
ETITLE: TS BOND ANGLE DIHED IMPRP ELECT VDW BOUNDARY MISC KINETIC TOTAL TEMP POTENTIAL TOTAL3 TEMPAVG PRESSURE GPRESSURE VOLUME PRESSAVG GPRESSAVG
ENERGY: 500000 4.1535 4.1103 2.1499 0.0000 -13503.6909 2253.4876 0.0000 0.0000 883.3734 -10356.4162 150.0283 -11239.7896 -10354.9672 150.0283 47.7550 98.5321 29097.0638 47.7550 98.5321
ENERGY: 600000 3.4166 2.3632 1.9776 0.0000 -13036.0853 2103.8629 0.0000 0.0000 1042.7785 -9881.6865 177.1009 -10924.4649 -9878.4474 180.2248 147.7958 198.2905 29065.0825 3.8622 3.8356
TCL: Running 100000 steps at 210 kelvin.
TCL: Setting parameter langevinTemp to 210
TCL: Running for 100000 steps
ETITLE: TS BOND ANGLE DIHED IMPRP ELECT VDW BOUNDARY MISC KINETIC TOTAL TEMP POTENTIAL TOTAL3 TEMPAVG PRESSURE GPRESSURE VOLUME PRESSAVG GPRESSAVG
ENERGY: 600000 3.4166 2.3632 1.9776 0.0000 -13036.0853 2103.8629 0.0000 0.0000 1042.2405 -9882.2245 177.0095 -10924.4649 -9880.1463 177.0095 134.0006 198.9785 29065.0825 134.0006 198.9785
ENERGY: 700000 9.3794 3.9750 4.7964 0.0000 -12483.4226 1988.0667 0.0000 0.0000 1238.7641 -9238.4410 210.3862 -10477.2051 -9235.9239 209.5687 588.6333 671.0981 29046.0718 5.2593 5.1776
TCL: Running 100000 steps at 240 kelvin.
TCL: Setting parameter langevinTemp to 240
TCL: Running for 100000 steps
ETITLE: TS BOND ANGLE DIHED IMPRP ELECT VDW BOUNDARY MISC KINETIC TOTAL TEMP POTENTIAL TOTAL3 TEMPAVG PRESSURE GPRESSURE VOLUME PRESSAVG GPRESSAVG
ENERGY: 700000 9.3794 3.9750 4.7964 0.0000 -12483.4226 1988.0667 0.0000 0.0000 1238.1488 -9239.0563 210.2818 -10477.2051 -9237.0103 210.2818 592.1464 669.8921 29046.0718 592.1464 669.8921
ENERGY: 800000 6.9338 3.5759 5.2952 0.0000 -11880.8024 1786.3461 0.0000 0.0000 1440.8399 -8637.8115 244.7059 -10078.6513 -8634.5351 239.8053 476.8719 530.5067 29368.0449 3.9969 3.8953
TCL: Running 100000 steps at 270 kelvin.
TCL: Setting parameter langevinTemp to 270
TCL: Running for 100000 steps
ETITLE: TS BOND ANGLE DIHED IMPRP ELECT VDW BOUNDARY MISC KINETIC TOTAL TEMP POTENTIAL TOTAL3 TEMPAVG PRESSURE GPRESSURE VOLUME PRESSAVG GPRESSAVG
ENERGY: 800000 6.9338 3.5759 5.2952 0.0000 -11880.8024 1786.3461 0.0000 0.0000 1440.1074 -8638.5439 244.5815 -10078.6513 -8636.9359 244.5815 461.4555 532.7489 29368.0449 461.4555 532.7489
ENERGY: 900000 6.3880 4.1357 3.5440 0.0000 -11240.7562 1577.5784 0.0000 0.0000 1575.5502 -8073.5598 267.5845 -9649.1100 -8070.0538 269.5720 75.4252 150.9262 29689.8624 3.6164 3.5968
TCL: Running 1000000 steps at 300 kelvin.
TCL: Setting parameter langevinTemp to 300
TCL: Running for 1000000 steps
ETITLE: TS BOND ANGLE DIHED IMPRP ELECT VDW BOUNDARY MISC KINETIC TOTAL TEMP POTENTIAL TOTAL3 TEMPAVG PRESSURE GPRESSURE VOLUME PRESSAVG GPRESSAVG
ENERGY: 900000 6.3880 4.1357 3.5440 0.0000 -11240.7562 1577.5784 0.0000 0.0000 1574.8021 -8074.3079 267.4575 -9649.1100 -8071.4113 267.4575 68.0864 149.9093 29689.8624 68.0864 149.9093
ENERGY: 1100000 5.4277 3.8746 7.3383 0.0000 -10693.7721 1447.8517 0.0000 0.0000 1817.4233 -7411.8566 308.6632 -9229.2800 -7407.8643 299.9884 247.6060 352.0511 30430.9168 3.0252 3.1954
ENERGY: 1300000 8.7613 3.4798 6.3034 0.0000 -10510.2508 1335.4716 0.0000 0.0000 1797.6404 -7358.5943 305.3033 -9156.2347 -7356.3424 299.8221 -633.7993 -571.1552 30766.8376 4.6008 4.5755
ENERGY: 1500000 5.5034 6.5501 5.6949 0.0000 -10701.7092 1416.0342 0.0000 0.0000 1759.8294 -7508.0972 298.8817 -9267.9266 -7502.6167 300.5415 -423.4560 -332.0865 30641.5552 2.7105 2.5635
ENERGY: 1700000 6.3925 6.4632 2.4992 0.0000 -10694.9780 1416.8913 0.0000 0.0000 1755.9465 -7506.7853 298.2222 -9262.7318 -7502.8801 299.9158 -262.2147 -143.8193 30743.6667 3.4178 3.4683
ENERGY: 1900000 4.8274 7.6417 8.1630 0.0000 -10654.2367 1418.2463 0.0000 0.0000 1729.4179 -7485.9403 293.7167 -9215.3582 -7482.6298 300.8217 91.7577 168.5085 30630.7699 3.2867 3.3300
TCL: Exiting due to exit command.
