Info: SIMULATION PARAMETERS:
Info: TIMESTEP               2
Info: NUMBER OF STEPS        0
Info: STEPS PER CYCLE        10
Info: PERIODIC CELL BASIS 1  35.89 0 0
Info: PERIODIC CELL BASIS 2  0 35.779 0
Info: PERIODIC CELL BASIS 3  0 0 35.566
Info: PERIODIC CELL CENTER   0 0 0
Info: WRAPPING WATERS AROUND PERIODIC BOUNDARIES ON OUTPUT.
Info: WRAPPING ALL CLUSTERS AROUND PERIODIC BOUNDARIES ON OUTPUT.
Info: FIRST LDB TIMESTEP     50
Info: LAST LDB TIMESTEP     -1
Info: HOM BACKGROUND SCALING 1
Info: PME BACKGROUND SCALING 1
Info: MIN ATOMS PER PATCH    40
Info: EMPTY PATCH LOAD       40 ATOMS
Info: INITIAL TEMPERATURE    300
Info: CENTER OF MASS MOVING INITIALLY? NO
Info: DIELECTRIC             1
Info: EXCLUDE                SCALED ONE-FOUR
Info: 1-4 ELECTROSTATICS SCALED BY 0.833333
Info: MODIFIED 1-4 VDW PARAMETERS WILL BE USED
Info: DCD FILENAME           mobley_1244778_equil.dcd
Info: DCD FREQUENCY          100000
Info: DCD FIRST STEP         100000
Info: DCD FILE WILL CONTAIN UNIT CELL DATA
Info: XST FILENAME           mobley_1244778_equil.xst
Info: XST FREQUENCY          100000
Info: NO VELOCITY DCD OUTPUT
Info: NO FORCE DCD OUTPUT
Info: OUTPUT FILENAME        mobley_1244778_equil
Info: BINARY OUTPUT FILES WILL BE USED
Info: RESTART FILENAME       mobley_1244778_equil.restart
Info: RESTART FREQUENCY      100000
Info: BINARY RESTART FILES WILL BE USED
Info: CUTOFF                 9
Info: PAIRLIST DISTANCE      11
Info: PAIRLIST SHRINK RATE   0.01
Info: PAIRLIST GROW RATE     0.01
Info: PAIRLIST TRIGGER       0.3
Info: PAIRLISTS PER CYCLE    2
Info: PAIRLISTS ENABLED
Info: MARGIN                 8
Info: HYDROGEN GROUP CUTOFF  2.5
Info: PATCH DIMENSION        21.5
Info: ENERGY OUTPUT STEPS    100000
Info: ENERGY EVALUATION STEPS    100000
Info: OUTPUT ENERGY PRECISION 4
Info: CROSSTERM ENERGY INCLUDED IN DIHEDRAL
Info: TIMING OUTPUT STEPS    1000000
Info: PRESSURE OUTPUT STEPS  100000
Info: LANGEVIN DYNAMICS ACTIVE
Info: LANGEVIN TEMPERATURE   30
Info: LANGEVIN USING BBK INTEGRATOR
Info: LANGEVIN DAMPING COEFFICIENT IS 1 INVERSE PS
Info: LANGEVIN DYNAMICS APPLIED TO HYDROGENS
Info: LANGEVIN PISTON PRESSURE CONTROL ACTIVE
Info:        TARGET PRESSURE IS 1.01325 BAR
Info:     OSCILLATION PERIOD IS 50 FS
Info:             DECAY TIME IS 25 FS
Info:     PISTON TEMPERATURE IS 300 K
Info:       PRESSURE CONTROL IS GROUP-BASED
Info:    INITIAL STRAIN RATE IS 0 0 0
Info:       CELL FLUCTUATION IS ISOTROPIC
Info: PARTICLE MESH EWALD (PME) ACTIVE
Info: PME TOLERANCE               1e-06
Info: PME EWALD COEFFICIENT       0.348832
Info: PME INTERPOLATION ORDER     4
Info: PME GRID DIMENSIONS         36 36 36
Info: PME MAXIMUM GRID SPACING    1
Info: FULL ELECTROSTATIC EVALUATION FREQUENCY      2
Info: USING VERLET I (r-RESPA) MTS SCHEME.
Info: C1 SPLITTING OF LONG RANGE ELECTROSTATICS
Info: PLACING ATOMS IN PATCHES BY HYDROGEN GROUPS
Info: RIGID BONDS TO HYDROGEN : ALL
Info:         ERROR TOLERANCE : 1e-08
Info:          MAX ITERATIONS : 100
Info: RIGID WATER USING SETTLE ALGORITHM
Info: RANDOM NUMBER SEED     1743219117
Info: USE HYDROGEN BONDS?    NO
Info: Using AMBER format force field!
Info: AMBER PARM FILE        mobley_1244778.prmtop
Info: COORDINATE PDB         mobley_1244778.pdb
Info: Exclusions will be read from PARM file!
Info: SCNB (VDW SCALING)     2
Info: USING ARITHMETIC MEAN TO COMBINE L-J SIGMA PARAMETERS
Info: BINARY COORDINATES     mobley_1244778_min.coor
Info: SUMMARY OF PARAMETERS:
Info: 7 BONDS
Info: 7 ANGLES
Info:   7 HARMONIC
Info:   0 COSINE-BASED
Info: 9 DIHEDRAL
Info: 0 IMPROPER
Info: 0 CROSSTERM
Info: 0 VDW
Info: 21 VDW_PAIRS
Info: 0 NBTHOLE_PAIRS
Info: STRUCTURE SUMMARY:
Info: 2962 ATOMS
Info: 2962 BONDS
Info: 43 ANGLES
Info: 86 DIHEDRALS
Info: 0 IMPROPERS
Info: 0 CROSSTERMS
Info: 3071 EXCLUSIONS
Info: 2954 RIGID BONDS
Info: 5932 DEGREES OF FREEDOM
Info: 988 HYDROGEN GROUPS
Info: 3 ATOMS IN LARGEST HYDROGEN GROUP
Info: 988 MIGRATION GROUPS
Info: 3 ATOMS IN LARGEST MIGRATION GROUP
Info: TOTAL MASS = 17769.9 amu
Info: TOTAL CHARGE = -0.000199964 e
Info: MASS DENSITY = 0.64611 g/cm^3
Info: ATOM DENSITY = 0.0648557 atoms/A^3
Info: ADDED 0 IMPLICIT EXCLUSIONS
Info: NONBONDED TABLE R-SQUARED SPACING: 0.0625
Info: NONBONDED TABLE SIZE: 705 POINTS
Info: REMOVING COM VELOCITY -0.0987313 -0.155619 0.0248697
TCL: Running for 100000 steps
ETITLE: TS BOND ANGLE DIHED IMPRP ELECT VDW BOUNDARY MISC KINETIC TOTAL TEMP POTENTIAL TOTAL3 TEMPAVG PRESSURE GPRESSURE VOLUME PRESSAVG GPRESSAVG
ENERGY: 0 0.1878 2.5167 9.5533 0.0000 -13703.0133 2451.6437 0.0000 0.0000 1781.0522 -9458.0596 302.1801 -11239.1118 -9457.6960 302.1801 500.4206 541.8889 45670.5962 500.4206 541.8889
ENERGY: 100000 0.2219 3.8256 9.5878 0.0000 -14188.8577 2473.2511 0.0000 0.0000 180.8017 -11521.1696 30.6755 -11701.9713 -11520.8991 30.9201 -194.6352 -138.2460 30111.8374 1.9346 1.8449
TCL: Running 100000 steps at 60 kelvin.
TCL: Setting parameter langevinTemp to 60
TCL: Running for 100000 steps
ETITLE: TS BOND ANGLE DIHED IMPRP ELECT VDW BOUNDARY MISC KINETIC TOTAL TEMP POTENTIAL TOTAL3 TEMPAVG PRESSURE GPRESSURE VOLUME PRESSAVG GPRESSAVG
ENERGY: 100000 0.2219 3.8256 9.5878 0.0000 -14188.8577 2473.2511 0.0000 0.0000 180.7165 -11521.2548 30.6610 -11701.9713 -11520.8483 30.6610 -206.8472 -138.3714 30111.8374 -206.8472 -138.3714
ENERGY: 200000 0.9696 4.1510 9.6433 0.0000 -14033.9426 2360.0256 0.0000 0.0000 357.2580 -11301.8952 60.6138 -11659.1531 -11300.7473 59.9578 -1027.5726 -952.7395 29951.6956 3.9222 3.9452
TCL: Running 100000 steps at 90 kelvin.
TCL: Setting parameter langevinTemp to 90
TCL: Running for 100000 steps
ETITLE: TS BOND ANGLE DIHED IMPRP ELECT VDW BOUNDARY MISC KINETIC TOTAL TEMP POTENTIAL TOTAL3 TEMPAVG PRESSURE GPRESSURE VOLUME PRESSAVG GPRESSAVG
ENERGY: 200000 0.9696 4.1510 9.6433 0.0000 -14033.9426 2360.0256 0.0000 0.0000 357.0807 -11302.0725 60.5837 -11659.1531 -11301.3065 60.5837 -1005.7664 -952.6127 29951.6956 -1005.7664 -952.6127
ENERGY: 300000 1.4195 6.5889 9.7763 0.0000 -13948.0356 2333.2095 0.0000 0.0000 524.4261 -11072.6154 88.9761 -11597.0415 -11070.6177 90.0159 -757.2335 -707.9988 29323.8609 3.5889 3.6934
TCL: Running 100000 steps at 120 kelvin.
TCL: Setting parameter langevinTemp to 120
TCL: Running for 100000 steps
ETITLE: TS BOND ANGLE DIHED IMPRP ELECT VDW BOUNDARY MISC KINETIC TOTAL TEMP POTENTIAL TOTAL3 TEMPAVG PRESSURE GPRESSURE VOLUME PRESSAVG GPRESSAVG
ENERGY: 300000 1.4195 6.5889 9.7763 0.0000 -13948.0356 2333.2095 0.0000 0.0000 524.1638 -11072.8776 88.9316 -11597.0415 -11071.5649 88.9316 -757.0474 -707.7144 29323.8609 -757.0474 -707.7144
ENERGY: 400000 1.1382 4.5494 9.9603 0.0000 -13846.3898 2399.1327 0.0000 0.0000 704.5269 -10727.0823 119.5327 -11431.6092 -10726.5964 120.2328 585.4461 636.4438 29006.3910 4.2943 4.2859
TCL: Running 100000 steps at 150 kelvin.
TCL: Setting parameter langevinTemp to 150
TCL: Running for 100000 steps
ETITLE: TS BOND ANGLE DIHED IMPRP ELECT VDW BOUNDARY MISC KINETIC TOTAL TEMP POTENTIAL TOTAL3 TEMPAVG PRESSURE GPRESSURE VOLUME PRESSAVG GPRESSAVG
ENERGY: 400000 1.1382 4.5494 9.9603 0.0000 -13846.3898 2399.1327 0.0000 0.0000 704.1741 -10727.4351 119.4729 -11431.6092 -10726.0584 119.4729 588.2415 635.7078 29006.3910 588.2415 635.7078
ENERGY: 500000 1.4808 6.5704 10.4454 0.0000 -13572.3681 2287.7263 0.0000 0.0000 878.7148 -10387.4304 149.0861 -11266.1451 -10385.4563 150.1706 166.1781 200.3356 29130.1845 4.4105 4.5424
TCL: Running 100000 steps at 180 kelvin.
TCL: Setting parameter langevinTemp to 180
TCL: Running for 100000 steps
ETITLE: TS BOND ANGLE DIHED IMPRP ELECT VDW BOUNDARY MISC KINETIC TOTAL TEMP POTENTIAL TOTAL3 TEMPAVG PRESSURE GPRESSURE VOLUME PRESSAVG GPRESSAVG
ENERGY: 500000 1.4808 6.5704 10.4454 0.0000 -13572.3681 2287.7263 0.0000 0.0000 878.2644 -10387.8807 149.0097 -11266.1451 -10386.1743 149.0097 137.1206 199.6161 29130.1845 137.1206 199.6161
ENERGY: 600000 1.3206 8.9708 10.2750 0.0000 -13095.1799 2058.1466 0.0000 0.0000 1026.3383 -9990.1286 174.1325 -11016.4668 -9987.3153 179.9327 -677.1021 -625.4380 29001.7001 3.9684 3.9749
TCL: Running 100000 steps at 210 kelvin.
TCL: Setting parameter langevinTemp to 210
TCL: Running for 100000 steps
ETITLE: TS BOND ANGLE DIHED IMPRP ELECT VDW BOUNDARY MISC KINETIC TOTAL TEMP POTENTIAL TOTAL3 TEMPAVG PRESSURE GPRESSURE VOLUME PRESSAVG GPRESSAVG
ENERGY: 600000 1.3206 8.9708 10.2750 0.0000 -13095.1799 2058.1466 0.0000 0.0000 1025.8071 -9990.6598 174.0423 -11016.4668 -9988.1421 174.0423 -686.7653 -626.2876 29001.7001 -686.7653 -626.2876
ENERGY: 700000 0.4836 7.9973 9.4027 0.0000 -12486.2516 1889.0345 0.0000 0.0000 1262.6590 -9316.6746 214.2275 -10579.3336 -9313.8991 210.3077 -395.9077 -305.1263 29141.2023 3.2948 3.1598
TCL: Running 100000 steps at 240 kelvin.
TCL: Setting parameter langevinTemp to 240
TCL: Running for 100000 steps
ETITLE: TS BOND ANGLE DIHED IMPRP ELECT VDW BOUNDARY MISC KINETIC TOTAL TEMP POTENTIAL TOTAL3 TEMPAVG PRESSURE GPRESSURE VOLUME PRESSAVG GPRESSAVG
ENERGY: 700000 0.4836 7.9973 9.4027 0.0000 -12486.2516 1889.0345 0.0000 0.0000 1262.0402 -9317.2933 214.1226 -10579.3336 -9315.0022 214.1226 -383.3813 -305.7328 29141.2023 -383.3813 -305.7328
ENERGY: 800000 2.1031 7.7965 9.9185 0.0000 -11928.7241 1784.9879 0.0000 0.0000 1445.8174 -8678.1007 245.3029 -10123.9180 -8675.6826 239.5988 383.9411 438.4357 29213.9964 3.3016 3.2663
TCL: Running 100000 steps at 270 kelvin.
TCL: Setting parameter langevinTemp to 270
TCL: Running for 100000 steps
ETITLE: TS BOND ANGLE DIHED IMPRP ELECT VDW BOUNDARY MISC KINETIC TOTAL TEMP POTENTIAL TOTAL3 TEMPAVG PRESSURE GPRESSURE VOLUME PRESSAVG GPRESSAVG
ENERGY: 800000 2.1031 7.7965 9.9185 0.0000 -11928.7241 1784.9879 0.0000 0.0000 1445.0692 -8678.8489 245.1760 -10123.9180 -8676.1276 245.1760 377.4073 438.2807 29213.9964 377.4073 438.2807
ENERGY: 900000 2.7231 12.5719 9.7127 0.0000 -11225.7503 1581.3811 0.0000 0.0000 1578.4345 -8040.9269 267.8032 -9619.3614 -8037.8788 270.6746 70.7923 155.5979 29858.7716 3.7753 3.9246
TCL: Running 1000000 steps at 300 kelvin.
TCL: Setting parameter langevinTemp to 300
TCL: Running for 1000000 steps
ETITLE: TS BOND ANGLE DIHED IMPRP ELECT VDW BOUNDARY MISC KINETIC TOTAL TEMP POTENTIAL TOTAL3 TEMPAVG PRESSURE GPRESSURE VOLUME PRESSAVG GPRESSAVG
ENERGY: 900000 2.7231 12.5719 9.7127 0.0000 -11225.7503 1581.3811 0.0000 0.0000 1577.6723 -8041.6891 267.6739 -9619.3614 -8039.7225 267.6739 79.9510 156.7347 29858.7716 79.9510 156.7347
ENERGY: 1100000 3.9377 12.8333 11.1987 0.0000 -10713.5390 1467.3267 0.0000 0.0000 1708.6432 -7509.5995 289.8949 -9218.2427 -7505.0992 300.6283 181.6106 235.7234 30595.0995 2.0808 2.1881
ENERGY: 1300000 1.3317 13.9981 9.2731 0.0000 -10623.4290 1361.5731 0.0000 0.0000 1788.5377 -7448.7153 303.4501 -9237.2530 -7442.4341 300.0434 -241.5378 -159.9891 30343.7176 3.6908 3.5504
ENERGY: 1500000 2.4173 13.1149 9.4547 0.0000 -10879.3014 1483.0593 0.0000 0.0000 1722.9029 -7648.3523 292.3143 -9371.2553 -7644.5149 300.0603 -347.7524 -262.6763 30598.3338 3.4418 3.2036
ENERGY: 1700000 1.9547 20.3881 10.2213 0.0000 -10784.0694 1460.3245 0.0000 0.0000 1741.9640 -7549.2168 295.5483 -9291.1808 -7546.1540 300.2978 43.3329 150.7261 30325.6247 3.4127 3.3682
ENERGY: 1900000 2.0504 11.8737 8.6598 0.0000 -10711.4386 1492.5199 0.0000 0.0000 1803.6345 -7392.7003 306.0115 -9196.3348 -7388.5683 300.5063 460.5895 450.4934 30915.3112 3.7522 3.5652
TCL: Exiting due to exit command.
