Info: SIMULATION PARAMETERS:
Info: TIMESTEP               2
Info: NUMBER OF STEPS        0
Info: STEPS PER CYCLE        10
Info: PERIODIC CELL BASIS 1  29.8165 0 0
Info: PERIODIC CELL BASIS 2  0 31.7725 0
Info: PERIODIC CELL BASIS 3  0 0 31.1379
Info: PERIODIC CELL CENTER   0 0 0
Info: WRAPPING WATERS AROUND PERIODIC BOUNDARIES ON OUTPUT.
Info: WRAPPING ALL CLUSTERS AROUND PERIODIC BOUNDARIES ON OUTPUT.
Info: FIRST LDB TIMESTEP     50
Info: LAST LDB TIMESTEP     -1
Info: HOM BACKGROUND SCALING 1
Info: PME BACKGROUND SCALING 1
Info: MIN ATOMS PER PATCH    40
Info: EMPTY PATCH LOAD       40 ATOMS
Info: VELOCITY FILE          mobley_766666_equil.vel
Info: CENTER OF MASS MOVING INITIALLY? NO
Info: DIELECTRIC             1
Info: EXCLUDE                SCALED ONE-FOUR
Info: 1-4 ELECTROSTATICS SCALED BY 0.833333
Info: MODIFIED 1-4 VDW PARAMETERS WILL BE USED
Info: DCD FILENAME           mobley_766666_prod.dcd
Info: DCD FREQUENCY          100000
Info: DCD FIRST STEP         100000
Info: DCD FILE WILL CONTAIN UNIT CELL DATA
Info: XST FILENAME           mobley_766666_prod.xst
Info: XST FREQUENCY          100000
Info: NO VELOCITY DCD OUTPUT
Info: NO FORCE DCD OUTPUT
Info: OUTPUT FILENAME        mobley_766666_prod
Info: BINARY OUTPUT FILES WILL BE USED
Info: RESTART FILENAME       mobley_766666_prod.restart
Info: RESTART FREQUENCY      100000
Info: BINARY RESTART FILES WILL BE USED
Info: CUTOFF                 9
Info: PAIRLIST DISTANCE      11
Info: PAIRLIST SHRINK RATE   0.01
Info: PAIRLIST GROW RATE     0.01
Info: PAIRLIST TRIGGER       0.3
Info: PAIRLISTS PER CYCLE    2
Info: PAIRLISTS ENABLED
Info: MARGIN                 2
Info: HYDROGEN GROUP CUTOFF  2.5
Info: PATCH DIMENSION        15.5
Info: ENERGY OUTPUT STEPS    100000
Info: ENERGY EVALUATION STEPS    100000
Info: OUTPUT ENERGY PRECISION 4
Info: CROSSTERM ENERGY INCLUDED IN DIHEDRAL
Info: TIMING OUTPUT STEPS    1000000
Info: PRESSURE OUTPUT STEPS  100000
Info: ALCHEMICAL FEP ON
Info: FEP CURRENT LAMBDA VALUE     0
Info: FEP COMPARISON LAMBDA VALUE  0.05
Info: FEP INTRA-ALCHEMICAL NON-BONDED INTERACTIONS WILL BE RETAINED
Info: FEP INTRA-ALCHEMICAL BONDED INTERACTIONS WILL BE RETAINED
Info: FEP VDW SHIFTING COEFFICIENT 5
Info: FEP ELEC. ACTIVE FOR ANNIHILATED PARTICLES BETWEEN LAMBDA = 0 AND LAMBDA = 0.5
Info: FEP ELEC. ACTIVE FOR EXNIHILATED PARTICLES BETWEEN LAMBDA = 0.5 AND LAMBDA = 1
Info: FEP VDW ACTIVE FOR ANNIHILATED PARTICLES BETWEEN LAMBDA = 0 AND LAMBDA = 1
Info: FEP VDW ACTIVE FOR EXNIHILATED PARTICLES BETWEEN LAMBDA = 0 AND LAMBDA = 1
Info: FEP BOND ACTIVE FOR ANNIHILATED PARTICLES BETWEEN LAMBDA = 1 AND LAMBDA = 1
Info: FEP BOND ACTIVE FOR EXNIHILATED PARTICLES BETWEEN LAMBDA = 0 AND LAMBDA = 0
Info: LANGEVIN DYNAMICS ACTIVE
Info: LANGEVIN TEMPERATURE   300
Info: LANGEVIN USING BBK INTEGRATOR
Info: LANGEVIN DAMPING COEFFICIENT IS 1 INVERSE PS
Info: LANGEVIN DYNAMICS APPLIED TO HYDROGENS
Info: LANGEVIN PISTON PRESSURE CONTROL ACTIVE
Info:        TARGET PRESSURE IS 1.01325 BAR
Info:     OSCILLATION PERIOD IS 50 FS
Info:             DECAY TIME IS 25 FS
Info:     PISTON TEMPERATURE IS 300 K
Info:       PRESSURE CONTROL IS GROUP-BASED
Info:    INITIAL STRAIN RATE IS 5.89231e-05 5.89231e-05 5.89231e-05
Info:       CELL FLUCTUATION IS ISOTROPIC
Info: PARTICLE MESH EWALD (PME) ACTIVE
Info: PME TOLERANCE               1e-06
Info: PME EWALD COEFFICIENT       0.348832
Info: PME INTERPOLATION ORDER     4
Info: PME GRID DIMENSIONS         32 32 32
Info: PME MAXIMUM GRID SPACING    1
Info: PME CALCULATION WILL BE PERFORMED ON GPU
Info: FULL ELECTROSTATIC EVALUATION FREQUENCY      2
Info: USING VERLET I (r-RESPA) MTS SCHEME.
Info: C1 SPLITTING OF LONG RANGE ELECTROSTATICS
Info: PLACING ATOMS IN PATCHES BY HYDROGEN GROUPS
Info: RIGID BONDS TO HYDROGEN : ALL
Info:         ERROR TOLERANCE : 1e-08
Info:          MAX ITERATIONS : 100
Info: RIGID WATER USING SETTLE ALGORITHM
Info: RANDOM NUMBER SEED     1743475164
Info: USE HYDROGEN BONDS?    NO
Info: Using AMBER format force field!
Info: AMBER PARM FILE        mobley_766666.prmtop
Info: COORDINATE PDB         mobley_766666.pdb
Info: Exclusions will be read from PARM file!
Info: SCNB (VDW SCALING)     2
Info: USING ARITHMETIC MEAN TO COMBINE L-J SIGMA PARAMETERS
Info: BINARY COORDINATES     mobley_766666_equil.coor
Info: SUMMARY OF PARAMETERS:
Info: 5 BONDS
Info: 4 ANGLES
Info:   4 HARMONIC
Info:   0 COSINE-BASED
Info: 2 DIHEDRAL
Info: 0 IMPROPER
Info: 0 CROSSTERM
Info: 0 VDW
Info: 15 VDW_PAIRS
Info: 0 NBTHOLE_PAIRS
Info: To read alchdata from file: mobley_766666.pdb
Info: To read alchflag data from column: 5
Info: STRUCTURE SUMMARY:
Info: 2955 ATOMS
Info: 2954 BONDS
Info: 6 ANGLES
Info: 6 DIHEDRALS
Info: 0 IMPROPERS
Info: 0 CROSSTERMS
Info: 2964 EXCLUSIONS
Info: 2950 RIGID BONDS
Info: ALCH: 0 ATOMS TO DISAPPEAR IN FINAL STATE
Info: ALCH: 6 ATOMS TO APPEAR IN FINAL STATE
Info: 5915 DEGREES OF FREEDOM
Info: 988 HYDROGEN GROUPS
Info: 3 ATOMS IN LARGEST HYDROGEN GROUP
Info: 988 MIGRATION GROUPS
Info: 3 ATOMS IN LARGEST MIGRATION GROUP
Info: TOTAL MASS = 17841.1 amu
Info: TOTAL CHARGE = 0.000100002 e
Info: MASS DENSITY = 1.00435 g/cm^3
Info: ATOM DENSITY = 0.100175 atoms/A^3
Info: ADDED 0 IMPLICIT EXCLUSIONS
Info: NONBONDED TABLE R-SQUARED SPACING: 0.0625
Info: NONBONDED TABLE SIZE: 705 POINTS
Info: REMOVING COM VELOCITY -0.00270296 0.0822136 0.0379983
Info: Use 3D box decompostion in PME FFT.
Info: Updated CUDA force table with 4096 elements.
Info: Updated CUDA LJ table with 5 x 5 elements.
Info: Found 9 unique exclusion lists needing 12 bytes
TCL: Running for 1500000 steps
ETITLE: TS BOND ANGLE DIHED IMPRP ELECT VDW BOUNDARY MISC KINETIC TOTAL TEMP POTENTIAL TOTALAVG TEMPAVG PRESSURE GPRESSURE VOLUME PRESSAVG GPRESSAVG
ENERGY: 0 1.1212 0.6398 0.7937 0.0000 -10956.7978 1540.1503 0.0000 0.0000 1788.0617 -7626.0311 304.2413 -9414.0928 -7626.0311 304.2413 884.3834 980.0382 29498.2748 884.3834 980.0382
ENERGY: 300000 0.1849 1.1802 2.5753 0.0000 -10839.3941 1477.9798 0.0000 0.0000 1809.7873 -7547.6866 307.9379 -9357.4739 -7602.4261 299.6188 275.5333 295.2856 30241.0338 370.5065 423.5123
ENERGY: 600000 1.4937 0.9612 1.0083 0.0000 -10821.0225 1492.7385 0.0000 0.0000 1780.4085 -7544.4122 302.9391 -9324.8207 -7585.2474 297.7530 598.4196 604.1696 29867.8825 309.8715 360.7909
ENERGY: 900000 1.9914 1.6470 1.6537 0.0000 -10823.8392 1500.2882 0.0000 0.0000 1740.8806 -7577.3782 296.2133 -9318.2588 -7570.6574 298.4063 43.9448 129.7608 30500.7441 227.5215 275.4276
ENERGY: 1200000 3.7116 1.3510 0.0832 0.0000 -10870.1722 1531.7565 0.0000 0.0000 1776.6605 -7556.6094 302.3013 -9333.2699 -7553.8600 299.1558 884.9822 910.7658 29738.4436 237.6080 284.1639
ENERGY: 1500000 0.6811 2.1201 0.5711 0.0000 -10657.1205 1364.0884 0.0000 0.0000 1710.4172 -7579.2427 291.0300 -9289.6599 -7548.3072 298.7511 -518.1348 -505.9167 30121.9935 134.1364 178.3063
TCL: Running FEP window   2: Lambda1 0.05   Lambda2 0.1    [dLambda 0.05  ]
TCL: Setting parameter firsttimestep to 0
TCL: Setting parameter alchLambda to 0.05
Info: NONBONDED TABLE R-SQUARED SPACING: 0.0625
Info: NONBONDED TABLE SIZE: 705 POINTS
TCL: Setting parameter alchLambda2 to 0.1
Info: NONBONDED TABLE R-SQUARED SPACING: 0.0625
Info: NONBONDED TABLE SIZE: 705 POINTS
TCL: Running for 1500000 steps
ETITLE: TS BOND ANGLE DIHED IMPRP ELECT VDW BOUNDARY MISC KINETIC TOTAL TEMP POTENTIAL TOTALAVG TEMPAVG PRESSURE GPRESSURE VOLUME PRESSAVG GPRESSAVG
ENERGY: 0 0.6811 2.1201 0.5711 0.0000 -10657.1207 1366.5359 0.0000 0.0000 1709.5362 -7577.6763 290.8801 -9287.2126 -7577.6763 290.8801 -592.1567 -499.2174 30121.9935 -592.1567 -499.2174
ENERGY: 300000 1.8385 2.0840 1.0866 0.0000 -10752.4128 1408.8922 0.0000 0.0000 1782.2192 -7556.2923 303.2472 -9338.5115 -7569.5995 296.5057 -79.8771 -43.8163 30152.5695 -551.6498 -482.3923
ENERGY: 600000 0.9637 1.2236 0.2485 0.0000 -10762.2150 1444.6343 0.0000 0.0000 1751.0274 -7564.1175 297.9398 -9315.1449 -7557.4493 296.8542 -127.8338 -50.7579 30333.8788 -531.8707 -458.7764
ENERGY: 900000 1.3165 2.0406 0.1320 0.0000 -10723.5644 1436.4963 0.0000 0.0000 1781.0062 -7502.5727 303.0408 -9283.5789 -7548.0054 297.9063 -70.9773 -59.1717 30371.5444 -503.2957 -439.1098
ENERGY: 1200000 0.8763 0.2505 1.1340 0.0000 -10780.5921 1462.8266 0.0000 0.0000 1764.8659 -7550.6387 300.2945 -9315.5047 -7547.9198 297.4492 43.9540 52.0511 30394.6319 -358.7054 -293.3949
ENERGY: 1500000 0.2850 1.4185 0.5250 0.0000 -10718.4285 1429.1635 0.0000 0.0000 1735.8982 -7551.1383 295.3656 -9287.0365 -7547.0648 298.0246 -322.0426 -230.0808 30563.1524 -327.7493 -262.6611
TCL: Running FEP window   3: Lambda1 0.1    Lambda2 0.15000000000000002 [dLambda 0.05000000000000002]
TCL: Setting parameter firsttimestep to 0
TCL: Setting parameter alchLambda to 0.1
Info: NONBONDED TABLE R-SQUARED SPACING: 0.0625
Info: NONBONDED TABLE SIZE: 705 POINTS
TCL: Setting parameter alchLambda2 to 0.15000000000000002
Info: NONBONDED TABLE R-SQUARED SPACING: 0.0625
Info: NONBONDED TABLE SIZE: 705 POINTS
TCL: Running for 1500000 steps
ETITLE: TS BOND ANGLE DIHED IMPRP ELECT VDW BOUNDARY MISC KINETIC TOTAL TEMP POTENTIAL TOTALAVG TEMPAVG PRESSURE GPRESSURE VOLUME PRESSAVG GPRESSAVG
ENERGY: 0 0.2850 1.4185 0.5250 0.0000 -10718.4273 1431.2033 0.0000 0.0000 1734.9944 -7550.0011 295.2118 -9284.9954 -7550.0011 295.2118 -298.7548 -222.1381 30563.1524 -298.7548 -222.1381
ENERGY: 300000 3.9096 1.2341 0.8798 0.0000 -10667.3639 1379.8087 0.0000 0.0000 1749.0171 -7532.5147 297.5978 -9281.5318 -7517.8737 300.2193 -750.3022 -713.7027 30701.4547 -314.1137 -263.4471
ENERGY: 600000 1.2959 1.9358 2.5661 0.0000 -10609.2870 1372.6951 0.0000 0.0000 1718.4513 -7512.3427 292.3970 -9230.7941 -7505.3818 300.3772 -533.7913 -483.4342 30588.1147 -297.5056 -255.5972
ENERGY: 900000 1.5466 3.8067 0.2307 0.0000 -10810.1957 1489.2166 0.0000 0.0000 1757.8999 -7557.4952 299.1092 -9315.3951 -7516.7027 300.3983 263.1943 289.2782 30249.7703 -320.4997 -270.5174
ENERGY: 1200000 1.9231 3.1686 0.3058 0.0000 -10690.2010 1435.2562 0.0000 0.0000 1804.5370 -7445.0102 307.0446 -9249.5472 -7516.1157 301.1426 31.5199 45.0031 30433.3907 -269.0430 -213.0860
ENERGY: 1500000 1.1019 0.3327 0.8127 0.0000 -10645.0062 1407.7935 0.0000 0.0000 1749.4593 -7485.5061 297.6730 -9234.9654 -7514.6978 299.9517 -74.1962 -76.5431 30170.2334 -233.0155 -178.8059
TCL: Running FEP window   4: Lambda1 0.15000000000000002 Lambda2 0.2    [dLambda 0.04999999999999999]
TCL: Setting parameter firsttimestep to 0
TCL: Setting parameter alchLambda to 0.15000000000000002
Info: NONBONDED TABLE R-SQUARED SPACING: 0.0625
Info: NONBONDED TABLE SIZE: 705 POINTS
TCL: Setting parameter alchLambda2 to 0.2
Info: NONBONDED TABLE R-SQUARED SPACING: 0.0625
Info: NONBONDED TABLE SIZE: 705 POINTS
TCL: Running for 1500000 steps
ETITLE: TS BOND ANGLE DIHED IMPRP ELECT VDW BOUNDARY MISC KINETIC TOTAL TEMP POTENTIAL TOTALAVG TEMPAVG PRESSURE GPRESSURE VOLUME PRESSAVG GPRESSAVG
ENERGY: 0 1.1019 0.3327 0.8127 0.0000 -10645.0066 1409.6822 0.0000 0.0000 1748.5635 -7484.5136 297.5206 -9233.0771 -7484.5136 297.5206 -148.9320 -69.0309 30170.2334 -148.9320 -69.0309
ENERGY: 300000 1.5047 1.6038 0.2073 0.0000 -10679.2757 1397.3542 0.0000 0.0000 1742.8821 -7535.7235 296.5539 -9278.6056 -7488.4791 297.8133 -338.7573 -237.0195 30184.8845 -168.4764 -129.3172
ENERGY: 600000 1.0406 2.5462 1.9000 0.0000 -10853.5510 1509.2183 0.0000 0.0000 1764.5975 -7574.2482 300.2488 -9338.8458 -7520.9120 298.9967 355.4236 428.9536 30415.9584 20.8347 65.7903
ENERGY: 900000 0.9733 0.9586 0.9221 0.0000 -10861.9472 1433.6138 0.0000 0.0000 1761.1229 -7664.3565 299.6576 -9425.4794 -7542.3970 298.6854 -661.1268 -607.1517 30421.4550 57.7018 105.4308
ENERGY: 1200000 1.5698 0.8337 1.1879 0.0000 -10751.4955 1442.9031 0.0000 0.0000 1760.4455 -7544.5555 299.5423 -9305.0010 -7545.4345 299.1780 -269.3896 -216.4535 30772.8522 -38.4641 13.5711
ENERGY: 1500000 1.0676 0.9237 1.2842 0.0000 -10685.4560 1438.2849 0.0000 0.0000 1772.5867 -7471.3090 301.6082 -9243.8956 -7541.5803 299.1397 146.4709 150.9064 30695.1904 -62.2073 -11.9159
TCL: Running FEP window   5: Lambda1 0.2    Lambda2 0.25   [dLambda 0.04999999999999999]
TCL: Setting parameter firsttimestep to 0
TCL: Setting parameter alchLambda to 0.2
Info: NONBONDED TABLE R-SQUARED SPACING: 0.0625
Info: NONBONDED TABLE SIZE: 705 POINTS
TCL: Setting parameter alchLambda2 to 0.25
Info: NONBONDED TABLE R-SQUARED SPACING: 0.0625
Info: NONBONDED TABLE SIZE: 705 POINTS
TCL: Running for 1500000 steps
ETITLE: TS BOND ANGLE DIHED IMPRP ELECT VDW BOUNDARY MISC KINETIC TOTAL TEMP POTENTIAL TOTALAVG TEMPAVG PRESSURE GPRESSURE VOLUME PRESSAVG GPRESSAVG
ENERGY: 0 1.0676 0.9237 1.2842 0.0000 -10685.4561 1438.4361 0.0000 0.0000 1771.6729 -7472.0717 301.4527 -9243.7445 -7472.0717 301.4527 83.4389 154.8748 30695.1904 83.4389 154.8748
ENERGY: 300000 0.5194 0.7931 1.0506 0.0000 -10787.6568 1478.5069 0.0000 0.0000 1813.2385 -7493.5483 308.5251 -9306.7868 -7445.9219 305.1313 301.0623 400.2170 30123.3917 274.3616 341.3555
ENERGY: 600000 0.9455 0.5906 1.5202 0.0000 -10851.5723 1515.6765 0.0000 0.0000 1723.9229 -7608.9167 293.3280 -9332.8396 -7506.8215 301.4047 273.4682 335.6741 30466.1438 299.4818 356.3762
ENERGY: 900000 1.1029 0.5859 0.6509 0.0000 -10808.5646 1508.7387 0.0000 0.0000 1748.1320 -7549.3541 297.4472 -9297.4861 -7505.3634 301.7390 371.6522 569.9069 30385.7084 277.1548 342.4347
ENERGY: 1200000 0.0630 0.6496 0.8755 0.0000 -10669.0951 1416.5898 0.0000 0.0000 1724.5997 -7526.3175 293.4431 -9250.9172 -7507.5728 300.5868 -101.0347 -27.7104 30499.8565 194.4957 263.5591
ENERGY: 1500000 0.1466 0.9295 1.5051 0.0000 -10852.5988 1537.9581 0.0000 0.0000 1731.2493 -7580.8103 294.5746 -9312.0596 -7520.0270 300.1465 924.1266 993.3397 29844.3801 243.4237 307.7928
TCL: Running FEP window   6: Lambda1 0.25   Lambda2 0.3    [dLambda 0.04999999999999999]
TCL: Setting parameter firsttimestep to 0
TCL: Setting parameter alchLambda to 0.25
Info: NONBONDED TABLE R-SQUARED SPACING: 0.0625
Info: NONBONDED TABLE SIZE: 705 POINTS
TCL: Setting parameter alchLambda2 to 0.3
Info: NONBONDED TABLE R-SQUARED SPACING: 0.0625
Info: NONBONDED TABLE SIZE: 705 POINTS
TCL: Running for 1500000 steps
ETITLE: TS BOND ANGLE DIHED IMPRP ELECT VDW BOUNDARY MISC KINETIC TOTAL TEMP POTENTIAL TOTALAVG TEMPAVG PRESSURE GPRESSURE VOLUME PRESSAVG GPRESSAVG
ENERGY: 0 0.1466 0.9295 1.5051 0.0000 -10852.5984 1538.3935 0.0000 0.0000 1730.3354 -7581.2884 294.4191 -9311.6238 -7581.2884 294.4191 907.4321 997.8698 29844.3801 907.4321 997.8698
ENERGY: 300000 0.5228 1.3974 0.0786 0.0000 -10547.4522 1329.5944 0.0000 0.0000 1726.1779 -7489.6811 293.7117 -9215.8590 -7517.4052 299.5687 -883.6935 -853.8201 31022.2978 19.2517 77.4435
ENERGY: 600000 1.9362 0.7653 1.2625 0.0000 -10586.2380 1380.6492 0.0000 0.0000 1762.0543 -7439.5705 299.8161 -9201.6248 -7516.4729 300.5198 -277.5443 -182.4754 30477.5398 9.1258 69.1805
ENERGY: 900000 1.8994 1.5930 0.8954 0.0000 -10776.4222 1468.9928 0.0000 0.0000 1779.6411 -7523.4004 302.8085 -9303.0415 -7524.6000 300.8140 135.9991 252.8962 30323.8225 -18.1434 40.0414
ENERGY: 1200000 0.4761 1.0331 0.3862 0.0000 -10739.5075 1472.0662 0.0000 0.0000 1750.3090 -7515.2369 297.8176 -9265.5459 -7528.5950 300.4554 276.7150 365.9617 30533.3464 57.2349 115.5621
ENERGY: 1500000 0.4079 0.6693 0.5706 0.0000 -10784.9324 1476.0363 0.0000 0.0000 1788.6312 -7518.6171 304.3382 -9307.2483 -7525.5107 300.6882 243.9175 245.1079 30194.6578 76.6263 138.5539
TCL: Running FEP window   7: Lambda1 0.3    Lambda2 0.35   [dLambda 0.04999999999999999]
TCL: Setting parameter firsttimestep to 0
TCL: Setting parameter alchLambda to 0.3
Info: NONBONDED TABLE R-SQUARED SPACING: 0.0625
Info: NONBONDED TABLE SIZE: 705 POINTS
TCL: Setting parameter alchLambda2 to 0.35
Info: NONBONDED TABLE R-SQUARED SPACING: 0.0625
Info: NONBONDED TABLE SIZE: 705 POINTS
TCL: Running for 1500000 steps
ETITLE: TS BOND ANGLE DIHED IMPRP ELECT VDW BOUNDARY MISC KINETIC TOTAL TEMP POTENTIAL TOTALAVG TEMPAVG PRESSURE GPRESSURE VOLUME PRESSAVG GPRESSAVG
ENERGY: 0 0.4079 0.6693 0.5706 0.0000 -10784.9303 1475.8401 0.0000 0.0000 1787.7909 -7519.6515 304.1952 -9307.4424 -7519.6515 304.1952 167.3985 245.0871 30194.6578 167.3985 245.0871
ENERGY: 300000 0.8571 3.5450 0.8856 0.0000 -10683.6918 1450.1330 0.0000 0.0000 1764.7057 -7463.5653 300.2672 -9228.2710 -7462.2745 300.8395 281.9019 365.7281 30213.6424 203.6946 295.2815
ENERGY: 600000 1.8042 1.6026 0.3363 0.0000 -10624.8505 1374.3288 0.0000 0.0000 1730.1616 -7516.6170 294.3895 -9246.7786 -7507.2780 298.4168 -842.1465 -713.6156 30962.2252 -124.6316 -37.1330
ENERGY: 900000 0.8171 1.8741 1.4898 0.0000 -10712.3638 1387.1878 0.0000 0.0000 1778.1515 -7542.8436 302.5550 -9320.9951 -7516.6681 299.2354 -397.4136 -358.1352 30553.1236 -137.2172 -58.6895
ENERGY: 1200000 3.1915 1.6058 0.3318 0.0000 -10887.2291 1594.1335 0.0000 0.0000 1784.9940 -7502.9725 303.7193 -9287.9665 -7516.6393 300.1778 1216.4106 1279.8756 30159.1116 -13.8828 55.9034
ENERGY: 1500000 0.4512 1.2970 0.7885 0.0000 -10677.8507 1492.1614 0.0000 0.0000 1806.8896 -7376.2630 307.4449 -9183.1526 -7510.9777 301.0870 841.2269 903.5565 30454.3456 -3.9584 65.6378
TCL: Running FEP window   8: Lambda1 0.35   Lambda2 0.39999999999999997 [dLambda 0.04999999999999999]
TCL: Setting parameter firsttimestep to 0
TCL: Setting parameter alchLambda to 0.35
Info: NONBONDED TABLE R-SQUARED SPACING: 0.0625
Info: NONBONDED TABLE SIZE: 705 POINTS
TCL: Setting parameter alchLambda2 to 0.39999999999999997
Info: NONBONDED TABLE R-SQUARED SPACING: 0.0625
Info: NONBONDED TABLE SIZE: 705 POINTS
TCL: Running for 1500000 steps
ETITLE: TS BOND ANGLE DIHED IMPRP ELECT VDW BOUNDARY MISC KINETIC TOTAL TEMP POTENTIAL TOTALAVG TEMPAVG PRESSURE GPRESSURE VOLUME PRESSAVG GPRESSAVG
ENERGY: 0 0.4512 1.2970 0.7885 0.0000 -10677.8509 1492.6171 0.0000 0.0000 1806.0124 -7376.6848 307.2956 -9182.6972 -7376.6848 307.2956 821.6857 910.3563 30454.3456 821.6857 910.3563
ENERGY: 300000 2.2430 0.3305 2.0352 0.0000 -10721.3024 1428.3791 0.0000 0.0000 1704.9599 -7583.3548 290.1014 -9288.3147 -7509.7466 299.6238 -191.1715 -113.8880 30586.2596 -59.0249 49.1640
ENERGY: 600000 0.8443 0.4776 0.7853 0.0000 -10722.5880 1431.6789 0.0000 0.0000 1757.6333 -7531.1687 299.0638 -9288.8020 -7517.4372 299.4918 -111.4322 -39.9235 30463.9570 -101.5906 -19.2038
ENERGY: 900000 2.1050 0.6618 0.8803 0.0000 -10677.4585 1429.3325 0.0000 0.0000 1751.6973 -7492.7816 298.0538 -9244.4790 -7521.5764 299.5971 -178.3089 -151.9902 30810.0844 -67.2105 2.6972
ENERGY: 1200000 0.2030 0.4543 2.1081 0.0000 -10744.9928 1437.1416 0.0000 0.0000 1779.9742 -7525.1115 302.8652 -9305.0857 -7514.5417 300.5797 -147.1689 -107.9019 30324.2012 -193.0448 -127.6888
ENERGY: 1500000 1.0044 0.8053 0.6222 0.0000 -10700.1433 1431.7131 0.0000 0.0000 1769.3928 -7496.6055 301.0647 -9265.9983 -7515.5206 300.7558 -211.7281 -131.0333 30816.6152 -112.2135 -51.9132
TCL: Running FEP window   9: Lambda1 0.39999999999999997 Lambda2 0.44999999999999996 [dLambda 0.04999999999999999]
TCL: Setting parameter firsttimestep to 0
TCL: Setting parameter alchLambda to 0.39999999999999997
Info: NONBONDED TABLE R-SQUARED SPACING: 0.0625
Info: NONBONDED TABLE SIZE: 705 POINTS
TCL: Setting parameter alchLambda2 to 0.44999999999999996
Info: NONBONDED TABLE R-SQUARED SPACING: 0.0625
Info: NONBONDED TABLE SIZE: 705 POINTS
TCL: Running for 1500000 steps
ETITLE: TS BOND ANGLE DIHED IMPRP ELECT VDW BOUNDARY MISC KINETIC TOTAL TEMP POTENTIAL TOTALAVG TEMPAVG PRESSURE GPRESSURE VOLUME PRESSAVG GPRESSAVG
ENERGY: 0 1.0044 0.8053 0.6222 0.0000 -10700.1416 1432.0260 0.0000 0.0000 1768.5273 -7497.1564 300.9175 -9265.6837 -7497.1564 300.9175 -195.4390 -126.4676 30816.6152 -195.4390 -126.4676
ENERGY: 300000 1.0671 0.7138 0.6292 0.0000 -10786.1501 1451.0271 0.0000 0.0000 1781.7721 -7550.9409 303.1711 -9332.7130 -7491.6646 301.0471 -130.1630 -28.2162 30217.0423 44.5202 111.8459
ENERGY: 600000 1.5294 2.0138 1.4201 0.0000 -10588.1010 1383.8899 0.0000 0.0000 1755.6913 -7443.5566 298.7334 -9199.2479 -7504.1800 300.2674 -81.9746 -75.8785 30618.0584 199.3362 269.9014
ENERGY: 900000 0.6064 0.6715 0.4813 0.0000 -10777.2209 1467.4134 0.0000 0.0000 1773.2924 -7534.7560 301.7283 -9308.0484 -7518.8804 299.9231 100.5591 170.3290 30632.6210 133.8344 204.1730
ENERGY: 1200000 1.6727 2.9210 0.1796 0.0000 -10770.2948 1468.3649 0.0000 0.0000 1776.3838 -7520.7727 302.2543 -9297.1566 -7520.5692 300.1532 178.3674 244.1208 30561.2366 68.1054 132.2572
ENERGY: 1500000 0.8163 1.7421 0.1168 0.0000 -10610.7859 1434.2425 0.0000 0.0000 1770.8402 -7403.0281 301.3110 -9173.8683 -7516.6155 300.5516 333.5689 353.2298 30556.5095 59.3416 115.3119
TCL: Running FEP window  10: Lambda1 0.44999999999999996 Lambda2 0.49999999999999994 [dLambda 0.04999999999999999]
TCL: Setting parameter firsttimestep to 0
TCL: Setting parameter alchLambda to 0.44999999999999996
Info: NONBONDED TABLE R-SQUARED SPACING: 0.0625
Info: NONBONDED TABLE SIZE: 705 POINTS
TCL: Setting parameter alchLambda2 to 0.49999999999999994
Info: NONBONDED TABLE R-SQUARED SPACING: 0.0625
Info: NONBONDED TABLE SIZE: 705 POINTS
TCL: Running for 1500000 steps
ETITLE: TS BOND ANGLE DIHED IMPRP ELECT VDW BOUNDARY MISC KINETIC TOTAL TEMP POTENTIAL TOTALAVG TEMPAVG PRESSURE GPRESSURE VOLUME PRESSAVG GPRESSAVG
ENERGY: 0 0.8163 1.7421 0.1168 0.0000 -10610.7857 1434.7365 0.0000 0.0000 1769.9113 -7403.4628 301.1530 -9173.3740 -7403.4628 301.1530 292.1909 363.4684 30556.5095 292.1909 363.4684
ENERGY: 300000 1.9277 0.7187 0.3545 0.0000 -10849.1681 1516.3216 0.0000 0.0000 1794.2424 -7535.6033 305.2929 -9329.8457 -7490.4792 302.0993 426.3674 495.2492 30458.4322 -62.6295 3.4357
ENERGY: 600000 0.3094 1.5097 0.2455 0.0000 -10893.2334 1531.4495 0.0000 0.0000 1745.0129 -7614.7063 296.9165 -9359.7192 -7526.8932 300.4802 710.5944 755.1358 29971.7329 120.8841 166.4833
ENERGY: 900000 0.8131 1.4944 2.0815 0.0000 -10746.9620 1496.9038 0.0000 0.0000 1747.6986 -7497.9706 297.3734 -9245.6692 -7529.7110 299.8946 724.0887 806.1529 30159.5702 1.7007 53.5600
ENERGY: 1200000 0.0776 1.0620 0.4389 0.0000 -10613.5985 1364.6264 0.0000 0.0000 1751.6125 -7495.7811 298.0394 -9247.3936 -7525.3645 299.6445 -625.3840 -622.0179 30630.0237 44.4248 96.6382
ENERGY: 1500000 1.6468 0.6716 1.2062 0.0000 -10718.5297 1472.6239 0.0000 0.0000 1773.6054 -7468.7758 301.7815 -9242.3813 -7525.8005 300.5974 487.2605 626.4991 30216.5850 88.5992 145.5788
TCL: Running FEP window  11: Lambda1 0.49999999999999994 Lambda2 0.5499999999999999 [dLambda 0.04999999999999999]
TCL: Setting parameter firsttimestep to 0
TCL: Setting parameter alchLambda to 0.49999999999999994
Info: NONBONDED TABLE R-SQUARED SPACING: 0.0625
Info: NONBONDED TABLE SIZE: 705 POINTS
TCL: Setting parameter alchLambda2 to 0.5499999999999999
Info: NONBONDED TABLE R-SQUARED SPACING: 0.0625
Info: NONBONDED TABLE SIZE: 705 POINTS
TCL: Running for 1500000 steps
ETITLE: TS BOND ANGLE DIHED IMPRP ELECT VDW BOUNDARY MISC KINETIC TOTAL TEMP POTENTIAL TOTALAVG TEMPAVG PRESSURE GPRESSURE VOLUME PRESSAVG GPRESSAVG
ENERGY: 0 1.6468 0.6716 1.2062 0.0000 -10718.5322 1472.4203 0.0000 0.0000 1772.7354 -7469.8520 301.6335 -9242.5874 -7469.8520 301.6335 541.9749 631.4269 30216.5850 541.9749 631.4269
ENERGY: 300000 0.4083 1.5228 0.1798 0.0000 -10729.9446 1440.5656 0.0000 0.0000 1754.1128 -7533.1553 298.4648 -9287.2680 -7489.7616 302.8449 110.0364 192.6652 30137.5779 397.4925 477.6845
ENERGY: 600000 0.7183 1.6432 0.9939 0.0000 -10780.8269 1444.1528 0.0000 0.0000 1772.6819 -7560.6369 301.6244 -9333.3188 -7509.9511 302.5466 -182.4334 -163.4932 30644.3203 230.8136 290.1987
ENERGY: 900000 0.5536 1.8685 0.2116 0.0000 -10703.9623 1441.7086 0.0000 0.0000 1778.8323 -7480.7877 302.6709 -9259.6200 -7520.3949 303.5008 232.9340 266.0994 30341.7427 164.0941 221.0089
ENERGY: 1200000 0.6340 1.7162 0.4077 0.0000 -10773.6907 1453.5428 0.0000 0.0000 1703.6675 -7613.7225 289.8815 -9317.3900 -7528.5632 301.9590 -239.2273 -163.2909 30568.5278 56.9775 118.1656
ENERGY: 1500000 0.7257 1.3088 1.0206 0.0000 -10829.6588 1562.9049 0.0000 0.0000 1713.8147 -7549.8840 291.6080 -9263.6988 -7527.5443 301.3676 1024.6287 1047.8876 30197.1418 143.3193 200.0630
TCL: Running FEP window  12: Lambda1 0.5499999999999999 Lambda2 0.6    [dLambda 0.050000000000000044]
TCL: Setting parameter firsttimestep to 0
TCL: Setting parameter alchLambda to 0.5499999999999999
Info: NONBONDED TABLE R-SQUARED SPACING: 0.0625
Info: NONBONDED TABLE SIZE: 705 POINTS
TCL: Setting parameter alchLambda2 to 0.6
Info: NONBONDED TABLE R-SQUARED SPACING: 0.0625
Info: NONBONDED TABLE SIZE: 705 POINTS
TCL: Running for 1500000 steps
ETITLE: TS BOND ANGLE DIHED IMPRP ELECT VDW BOUNDARY MISC KINETIC TOTAL TEMP POTENTIAL TOTALAVG TEMPAVG PRESSURE GPRESSURE VOLUME PRESSAVG GPRESSAVG
ENERGY: 0 0.7257 1.3088 1.0206 0.0000 -10829.5242 1563.5312 0.0000 0.0000 1712.9430 -7549.9948 291.4597 -9262.9377 -7549.9948 291.4597 991.8534 1058.6958 30197.1418 991.8534 1058.6958
ENERGY: 300000 2.0652 0.8211 1.8180 0.0000 -10738.7376 1473.8398 0.0000 0.0000 1780.0982 -7480.0951 302.8863 -9260.1934 -7529.5154 296.9956 245.4913 269.3035 30397.2462 521.8406 549.0270
ENERGY: 600000 0.4478 0.4954 0.6129 0.0000 -10814.4284 1457.1578 0.0000 0.0000 1796.8879 -7558.8267 305.7431 -9355.7146 -7515.0270 301.1180 -287.8784 -196.1262 30616.2794 313.9045 359.7324
ENERGY: 900000 0.4077 1.0163 1.6514 0.0000 -10834.7152 1444.3215 0.0000 0.0000 1732.0676 -7655.2507 294.7138 -9387.3183 -7527.8756 300.9027 -255.0686 -195.4154 30423.0402 294.1119 349.7567
ENERGY: 1200000 0.9315 0.2732 1.0620 0.0000 -10894.1681 1614.4938 0.0000 0.0000 1725.4972 -7551.9103 293.5958 -9277.4075 -7516.4830 302.1079 1436.8654 1523.5708 30091.3623 317.6515 371.5582
ENERGY: 1500000 1.7783 1.6030 0.1893 0.0000 -10873.1412 1533.5364 0.0000 0.0000 1782.3485 -7553.6856 303.2692 -9336.0341 -7510.9155 302.5703 660.7892 762.9049 30277.7944 246.9840 305.2275
TCL: Running FEP window  13: Lambda1 0.6    Lambda2 0.65   [dLambda 0.050000000000000044]
TCL: Setting parameter firsttimestep to 0
TCL: Setting parameter alchLambda to 0.6
Info: NONBONDED TABLE R-SQUARED SPACING: 0.0625
Info: NONBONDED TABLE SIZE: 705 POINTS
TCL: Setting parameter alchLambda2 to 0.65
Info: NONBONDED TABLE R-SQUARED SPACING: 0.0625
Info: NONBONDED TABLE SIZE: 705 POINTS
TCL: Running for 1500000 steps
ETITLE: TS BOND ANGLE DIHED IMPRP ELECT VDW BOUNDARY MISC KINETIC TOTAL TEMP POTENTIAL TOTALAVG TEMPAVG PRESSURE GPRESSURE VOLUME PRESSAVG GPRESSAVG
ENERGY: 0 1.7783 1.6030 0.1893 0.0000 -10873.2368 1533.1610 0.0000 0.0000 1781.4575 -7555.0476 303.1176 -9336.5051 -7555.0476 303.1176 681.1820 765.4988 30277.7944 681.1820 765.4988
ENERGY: 300000 0.5760 1.3449 0.6550 0.0000 -10760.6757 1437.7593 0.0000 0.0000 1778.9558 -7541.3847 302.6919 -9320.3405 -7533.2898 300.7654 11.7380 39.1142 30368.1640 233.9897 286.1394
ENERGY: 600000 0.7823 0.5100 0.3590 0.0000 -10718.9474 1451.6750 0.0000 0.0000 1775.6561 -7489.9651 302.1304 -9265.6212 -7514.1348 301.1667 177.4591 295.8555 30088.6407 212.7829 268.8255
ENERGY: 900000 1.9445 0.6310 1.1085 0.0000 -10847.4763 1488.4731 0.0000 0.0000 1728.9593 -7626.3600 294.1849 -9355.3192 -7517.8658 301.6028 548.5565 647.0515 29709.5931 220.6666 282.0650
ENERGY: 1200000 1.0779 0.7983 0.4997 0.0000 -10704.6916 1446.0405 0.0000 0.0000 1754.2056 -7502.0697 298.4806 -9256.2753 -7519.6361 301.7559 61.9326 153.8920 30396.4103 171.0083 236.7852
ENERGY: 1500000 0.6426 0.7297 1.6393 0.0000 -10708.0485 1478.2010 0.0000 0.0000 1753.0357 -7473.8001 298.2816 -9226.8358 -7515.2533 300.7421 683.5275 775.3075 30055.1918 136.5448 201.7554
TCL: Running FEP window  14: Lambda1 0.65   Lambda2 0.7000000000000001 [dLambda 0.050000000000000044]
TCL: Setting parameter firsttimestep to 0
TCL: Setting parameter alchLambda to 0.65
Info: NONBONDED TABLE R-SQUARED SPACING: 0.0625
Info: NONBONDED TABLE SIZE: 705 POINTS
TCL: Setting parameter alchLambda2 to 0.7000000000000001
Info: NONBONDED TABLE R-SQUARED SPACING: 0.0625
Info: NONBONDED TABLE SIZE: 705 POINTS
TCL: Running for 1500000 steps
ETITLE: TS BOND ANGLE DIHED IMPRP ELECT VDW BOUNDARY MISC KINETIC TOTAL TEMP POTENTIAL TOTALAVG TEMPAVG PRESSURE GPRESSURE VOLUME PRESSAVG GPRESSAVG
ENERGY: 0 0.6426 0.7297 1.6393 0.0000 -10708.3575 1478.7172 0.0000 0.0000 1752.1812 -7474.4475 298.1362 -9226.6287 -7474.4475 298.1362 701.6141 785.8448 30055.1918 701.6141 785.8448
ENERGY: 300000 0.2920 4.4708 0.8885 0.0000 -10742.0636 1420.4740 0.0000 0.0000 1799.3190 -7516.6192 306.1567 -9315.9383 -7524.0651 301.1417 -146.9740 -83.9582 30400.0036 446.2820 511.8983
ENERGY: 600000 1.0224 0.3005 2.6180 0.0000 -10742.9603 1415.0442 0.0000 0.0000 1737.2254 -7586.7498 295.5914 -9323.9751 -7532.5480 300.0274 -189.0918 -136.3922 30235.6565 276.3029 335.7465
ENERGY: 900000 2.3777 1.3167 0.2605 0.0000 -10745.8049 1492.3516 0.0000 0.0000 1748.8037 -7500.6946 297.5615 -9249.4984 -7530.0952 299.2568 515.0114 552.7431 30372.1953 245.6917 308.7861
ENERGY: 1200000 1.5163 1.3525 2.7765 0.0000 -10751.8006 1429.5993 0.0000 0.0000 1776.4712 -7540.0849 302.2691 -9316.5561 -7536.0471 300.0487 -131.4894 -86.2901 30408.6491 94.1595 154.2865
ENERGY: 1500000 0.9327 2.1694 0.2622 0.0000 -10829.8886 1524.2291 0.0000 0.0000 1721.0471 -7581.2483 292.8386 -9302.2953 -7525.9578 299.8898 658.0355 645.6884 30116.2988 38.2514 94.6943
TCL: Running FEP window  15: Lambda1 0.7000000000000001 Lambda2 0.7500000000000001 [dLambda 0.050000000000000044]
TCL: Setting parameter firsttimestep to 0
TCL: Setting parameter alchLambda to 0.7000000000000001
Info: NONBONDED TABLE R-SQUARED SPACING: 0.0625
Info: NONBONDED TABLE SIZE: 705 POINTS
TCL: Setting parameter alchLambda2 to 0.7500000000000001
Info: NONBONDED TABLE R-SQUARED SPACING: 0.0625
Info: NONBONDED TABLE SIZE: 705 POINTS
TCL: Running for 1500000 steps
ETITLE: TS BOND ANGLE DIHED IMPRP ELECT VDW BOUNDARY MISC KINETIC TOTAL TEMP POTENTIAL TOTALAVG TEMPAVG PRESSURE GPRESSURE VOLUME PRESSAVG GPRESSAVG
ENERGY: 0 0.9327 2.1694 0.2622 0.0000 -10830.3423 1525.1003 0.0000 0.0000 1720.1362 -7581.7415 292.6837 -9301.8777 -7581.7415 292.6837 579.0828 658.0305 30116.2988 579.0828 658.0305
ENERGY: 300000 1.3224 3.6767 0.5609 0.0000 -10726.4198 1439.8129 0.0000 0.0000 1772.4936 -7508.5534 301.5923 -9281.0469 -7556.2854 299.3506 -3.0033 169.9470 30503.9144 178.3955 299.8406
ENERGY: 600000 1.3581 0.8911 1.1640 0.0000 -10660.3533 1410.2895 0.0000 0.0000 1765.2334 -7481.4172 300.3570 -9246.6506 -7554.3985 298.8269 -148.4670 -95.2362 30480.9199 -50.7926 38.8443
ENERGY: 900000 0.5864 0.3211 0.7746 0.0000 -10697.4211 1432.9345 0.0000 0.0000 1800.3945 -7462.4101 306.3397 -9262.8046 -7535.7430 299.8258 -133.4230 -100.2465 30914.2919 -155.0440 -68.1874
ENERGY: 1200000 0.6987 1.2902 0.1600 0.0000 -10720.1300 1376.7160 0.0000 0.0000 1793.5859 -7547.6792 305.1812 -9341.2651 -7531.5631 299.9318 -927.7221 -852.0756 30939.7952 -122.3896 -36.9110
ENERGY: 1500000 0.6811 0.6054 2.0197 0.0000 -10609.2298 1370.8417 0.0000 0.0000 1740.5998 -7494.4821 296.1656 -9235.0819 -7532.9991 299.1267 -332.8998 -291.3697 30272.7379 -205.7188 -122.7203
TCL: Running FEP window  16: Lambda1 0.7500000000000001 Lambda2 0.8000000000000002 [dLambda 0.050000000000000044]
TCL: Setting parameter firsttimestep to 0
TCL: Setting parameter alchLambda to 0.7500000000000001
Info: NONBONDED TABLE R-SQUARED SPACING: 0.0625
Info: NONBONDED TABLE SIZE: 705 POINTS
TCL: Setting parameter alchLambda2 to 0.8000000000000002
Info: NONBONDED TABLE R-SQUARED SPACING: 0.0625
Info: NONBONDED TABLE SIZE: 705 POINTS
TCL: Running for 1500000 steps
ETITLE: TS BOND ANGLE DIHED IMPRP ELECT VDW BOUNDARY MISC KINETIC TOTAL TEMP POTENTIAL TOTALAVG TEMPAVG PRESSURE GPRESSURE VOLUME PRESSAVG GPRESSAVG
ENERGY: 0 0.6811 0.6054 2.0197 0.0000 -10609.6830 1371.0218 0.0000 0.0000 1739.7067 -7495.6483 296.0136 -9235.3550 -7495.6483 296.0136 -359.1646 -283.9848 30272.7379 -359.1646 -283.9848
ENERGY: 300000 0.9157 1.1559 0.8005 0.0000 -10685.7856 1439.3648 0.0000 0.0000 1745.7084 -7497.8402 297.0348 -9243.5486 -7505.7439 298.9139 163.1441 192.0444 30454.9456 30.0681 93.4987
ENERGY: 600000 1.3851 0.6993 3.3906 0.0000 -10680.9944 1402.5015 0.0000 0.0000 1800.7439 -7472.2740 306.3992 -9273.0178 -7510.3532 300.7287 -113.8954 -108.9740 30572.1118 65.5657 134.0329
ENERGY: 900000 3.0623 1.8947 1.9577 0.0000 -10776.3141 1443.6330 0.0000 0.0000 1693.7020 -7632.0644 288.1858 -9325.7664 -7525.4147 299.1758 -139.9943 -55.6214 30385.3865 127.5611 191.2730
ENERGY: 1200000 2.7928 0.1754 0.0817 0.0000 -10828.1300 1524.6758 0.0000 0.0000 1740.3502 -7560.0541 296.1231 -9300.4043 -7525.7531 298.8993 983.2955 1029.5503 30002.3444 149.1340 209.2938
ENERGY: 1500000 1.4091 0.4384 1.5828 0.0000 -10757.8410 1484.8171 0.0000 0.0000 1790.8934 -7478.7003 304.7231 -9269.5937 -7521.3966 299.6538 30.2563 115.0336 30874.9029 147.4441 209.3067
TCL: Running FEP window  17: Lambda1 0.8000000000000002 Lambda2 0.8500000000000002 [dLambda 0.050000000000000044]
TCL: Setting parameter firsttimestep to 0
TCL: Setting parameter alchLambda to 0.8000000000000002
Info: NONBONDED TABLE R-SQUARED SPACING: 0.0625
Info: NONBONDED TABLE SIZE: 705 POINTS
TCL: Setting parameter alchLambda2 to 0.8500000000000002
Info: NONBONDED TABLE R-SQUARED SPACING: 0.0625
Info: NONBONDED TABLE SIZE: 705 POINTS
TCL: Running for 1500000 steps
ETITLE: TS BOND ANGLE DIHED IMPRP ELECT VDW BOUNDARY MISC KINETIC TOTAL TEMP POTENTIAL TOTALAVG TEMPAVG PRESSURE GPRESSURE VOLUME PRESSAVG GPRESSAVG
ENERGY: 0 1.4091 0.4384 1.5828 0.0000 -10758.0012 1484.4464 0.0000 0.0000 1790.0084 -7480.1161 304.5725 -9270.1246 -7480.1161 304.5725 41.2068 118.2928 30874.9029 41.2068 118.2928
ENERGY: 300000 1.2698 0.5137 1.8007 0.0000 -10901.4681 1545.2969 0.0000 0.0000 1807.2982 -7545.2889 307.5144 -9352.5871 -7517.8133 304.2746 493.3330 561.4800 30584.3638 154.1482 213.0451
ENERGY: 600000 2.0090 1.9151 1.4533 0.0000 -10793.9943 1492.1648 0.0000 0.0000 1831.3446 -7465.1076 311.6059 -9296.4521 -7487.8787 306.6301 698.0075 788.1209 29992.1098 131.9050 195.5061
ENERGY: 900000 0.4014 0.6170 1.0454 0.0000 -10631.2013 1354.3147 0.0000 0.0000 1720.0117 -7554.8110 292.6625 -9274.8228 -7497.6096 304.2537 -690.2661 -621.1757 30542.9446 -25.8197 35.6244
ENERGY: 1200000 0.3093 1.2139 2.7809 0.0000 -10592.7797 1377.0950 0.0000 0.0000 1758.1285 -7453.2520 299.1481 -9211.3805 -7487.9433 304.2084 -439.4107 -349.9080 30667.5251 27.0057 88.1946
ENERGY: 1500000 1.0615 0.6116 1.8213 0.0000 -10756.7783 1471.6270 0.0000 0.0000 1760.3295 -7521.3273 299.5226 -9281.6568 -7489.0021 303.2920 322.7652 403.8237 30114.1125 25.2552 83.2681
TCL: Running FEP window  18: Lambda1 0.8500000000000002 Lambda2 0.9000000000000002 [dLambda 0.050000000000000044]
TCL: Setting parameter firsttimestep to 0
TCL: Setting parameter alchLambda to 0.8500000000000002
Info: NONBONDED TABLE R-SQUARED SPACING: 0.0625
Info: NONBONDED TABLE SIZE: 705 POINTS
TCL: Setting parameter alchLambda2 to 0.9000000000000002
Info: NONBONDED TABLE R-SQUARED SPACING: 0.0625
Info: NONBONDED TABLE SIZE: 705 POINTS
TCL: Running for 1500000 steps
ETITLE: TS BOND ANGLE DIHED IMPRP ELECT VDW BOUNDARY MISC KINETIC TOTAL TEMP POTENTIAL TOTALAVG TEMPAVG PRESSURE GPRESSURE VOLUME PRESSAVG GPRESSAVG
ENERGY: 0 1.0615 0.6116 1.8213 0.0000 -10756.9697 1471.6089 0.0000 0.0000 1759.4325 -7522.4340 299.3700 -9281.8664 -7522.4340 299.3700 335.9652 412.2514 30114.1125 335.9652 412.2514
ENERGY: 300000 0.7243 2.0366 1.4242 0.0000 -10735.3792 1425.7047 0.0000 0.0000 1780.7384 -7524.7511 302.9952 -9305.4895 -7525.9536 301.0226 -141.5307 -96.5378 30691.5421 1.5136 56.3031
ENERGY: 600000 0.5953 1.0444 0.8056 0.0000 -10777.0320 1480.1977 0.0000 0.0000 1761.6144 -7532.7745 299.7412 -9294.3890 -7536.4110 299.3687 202.8728 338.1750 30458.3322 40.5525 124.5905
ENERGY: 900000 0.8556 3.7566 0.6278 0.0000 -10819.4885 1435.7159 0.0000 0.0000 1752.9181 -7625.6145 298.2615 -9378.5325 -7546.3804 299.3692 -125.3514 -109.6161 30318.2172 75.4022 154.0359
ENERGY: 1200000 0.1210 1.9003 0.1832 0.0000 -10816.4281 1535.4369 0.0000 0.0000 1807.2779 -7471.5087 307.5109 -9278.7866 -7542.1357 299.1995 730.1395 830.9346 30736.3243 132.6661 207.2749
ENERGY: 1500000 1.1501 1.6927 0.7210 0.0000 -10769.5311 1454.8140 0.0000 0.0000 1796.8754 -7514.2778 305.7409 -9311.1532 -7541.7505 299.3233 -227.8403 -144.0657 30783.9026 115.0300 186.3686
TCL: Running FEP window  19: Lambda1 0.9000000000000002 Lambda2 0.9500000000000003 [dLambda 0.050000000000000044]
TCL: Setting parameter firsttimestep to 0
TCL: Setting parameter alchLambda to 0.9000000000000002
Info: NONBONDED TABLE R-SQUARED SPACING: 0.0625
Info: NONBONDED TABLE SIZE: 705 POINTS
TCL: Setting parameter alchLambda2 to 0.9500000000000003
Info: NONBONDED TABLE R-SQUARED SPACING: 0.0625
Info: NONBONDED TABLE SIZE: 705 POINTS
TCL: Running for 1500000 steps
ETITLE: TS BOND ANGLE DIHED IMPRP ELECT VDW BOUNDARY MISC KINETIC TOTAL TEMP POTENTIAL TOTALAVG TEMPAVG PRESSURE GPRESSURE VOLUME PRESSAVG GPRESSAVG
ENERGY: 0 1.1501 1.6927 0.7210 0.0000 -10769.4660 1454.7231 0.0000 0.0000 1795.9836 -7515.1954 305.5892 -9311.1790 -7515.1954 305.5892 -225.4833 -134.4710 30783.9026 -225.4833 -134.4710
ENERGY: 300000 0.7423 0.4905 2.7428 0.0000 -10738.0796 1428.4479 0.0000 0.0000 1818.2599 -7487.3962 309.3795 -9305.6561 -7521.4517 303.2849 0.4295 87.0619 30228.3153 -167.0885 -103.3641
ENERGY: 600000 1.0994 0.1383 1.0177 0.0000 -10818.4421 1487.6559 0.0000 0.0000 1814.2515 -7514.2793 308.6975 -9328.5308 -7524.3218 303.5587 414.5191 483.1224 30199.3535 28.4773 82.8136
ENERGY: 900000 1.0526 1.6986 1.6534 0.0000 -10846.7624 1473.0657 0.0000 0.0000 1758.3895 -7610.9026 299.1925 -9369.2922 -7539.2299 302.5201 -122.0402 -132.4843 30586.9621 -49.6383 1.0229
ENERGY: 1200000 0.7138 1.4706 1.8364 0.0000 -10704.8847 1398.4236 0.0000 0.0000 1770.5357 -7531.9047 301.2592 -9302.4404 -7529.9464 302.6157 -659.8651 -558.7566 31000.4728 -163.0260 -112.3602
ENERGY: 1500000 3.5871 1.0443 1.9014 0.0000 -10520.4293 1291.1819 0.0000 0.0000 1732.6606 -7490.0538 294.8147 -9222.7145 -7528.6785 302.2306 -1254.0173 -1212.5485 31207.9434 -268.4425 -216.8296
TCL: Running FEP window  20: Lambda1 0.9500000000000003 Lambda2 1.0    [dLambda 0.04999999999999971]
TCL: Setting parameter firsttimestep to 0
TCL: Setting parameter alchLambda to 0.9500000000000003
Info: NONBONDED TABLE R-SQUARED SPACING: 0.0625
Info: NONBONDED TABLE SIZE: 705 POINTS
TCL: Setting parameter alchLambda2 to 1.0
Info: NONBONDED TABLE R-SQUARED SPACING: 0.0625
Info: NONBONDED TABLE SIZE: 705 POINTS
TCL: Running for 1500000 steps
ETITLE: TS BOND ANGLE DIHED IMPRP ELECT VDW BOUNDARY MISC KINETIC TOTAL TEMP POTENTIAL TOTALAVG TEMPAVG PRESSURE GPRESSURE VOLUME PRESSAVG GPRESSAVG
ENERGY: 0 3.5871 1.0443 1.9014 0.0000 -10520.5832 1290.7407 0.0000 0.0000 1731.7550 -7491.5546 294.6606 -9223.3096 -7491.5546 294.6606 -1284.0346 -1206.1463 31207.9434 -1284.0346 -1206.1463
ENERGY: 300000 1.3996 1.0492 0.5884 0.0000 -10850.6748 1496.4485 0.0000 0.0000 1752.9933 -7598.1958 298.2743 -9351.1891 -7524.1463 297.2880 610.5732 669.5666 29975.7029 129.1582 180.5962
ENERGY: 600000 4.2406 0.9483 1.4409 0.0000 -10766.8543 1467.8498 0.0000 0.0000 1767.5144 -7524.8602 300.7451 -9292.3746 -7511.4815 299.5647 -58.6848 2.3675 30916.7813 -224.4328 -159.5844
ENERGY: 900000 3.5666 0.0678 0.4092 0.0000 -10695.8497 1387.0982 0.0000 0.0000 1778.2849 -7526.4230 302.5777 -9304.7078 -7510.9347 301.8308 -463.0158 -352.4113 30268.1325 -93.3874 -25.0306
ENERGY: 1200000 1.9443 0.2433 0.5374 0.0000 -10790.6131 1478.4883 0.0000 0.0000 1749.9592 -7559.4406 297.7581 -9309.3998 -7521.7866 300.6292 -69.4290 1.8462 30764.3529 -13.6419 48.1758
ENERGY: 1500000 0.5311 1.1463 2.3261 0.0000 -10773.5225 1490.8211 0.0000 0.0000 1688.2601 -7590.4378 287.2599 -9278.6978 -7528.3370 299.6304 183.7351 282.6933 30627.6837 13.2938 82.4639
TCL: Exiting due to exit command.
