Info: SIMULATION PARAMETERS:
Info: TIMESTEP               2
Info: NUMBER OF STEPS        0
Info: STEPS PER CYCLE        10
Info: PERIODIC CELL BASIS 1  37.435 0 0
Info: PERIODIC CELL BASIS 2  0 36.451 0
Info: PERIODIC CELL BASIS 3  0 0 31.855
Info: PERIODIC CELL CENTER   0 0 0
Info: WRAPPING WATERS AROUND PERIODIC BOUNDARIES ON OUTPUT.
Info: WRAPPING ALL CLUSTERS AROUND PERIODIC BOUNDARIES ON OUTPUT.
Info: FIRST LDB TIMESTEP     50
Info: LAST LDB TIMESTEP     -1
Info: HOM BACKGROUND SCALING 1
Info: PME BACKGROUND SCALING 1
Info: MIN ATOMS PER PATCH    40
Info: EMPTY PATCH LOAD       40 ATOMS
Info: INITIAL TEMPERATURE    300
Info: CENTER OF MASS MOVING INITIALLY? NO
Info: DIELECTRIC             1
Info: EXCLUDE                SCALED ONE-FOUR
Info: 1-4 ELECTROSTATICS SCALED BY 0.833333
Info: MODIFIED 1-4 VDW PARAMETERS WILL BE USED
Info: DCD FILENAME           mobley_1079207_equil.dcd
Info: DCD FREQUENCY          100000
Info: DCD FIRST STEP         100000
Info: DCD FILE WILL CONTAIN UNIT CELL DATA
Info: XST FILENAME           mobley_1079207_equil.xst
Info: XST FREQUENCY          100000
Info: NO VELOCITY DCD OUTPUT
Info: NO FORCE DCD OUTPUT
Info: OUTPUT FILENAME        mobley_1079207_equil
Info: BINARY OUTPUT FILES WILL BE USED
Info: RESTART FILENAME       mobley_1079207_equil.restart
Info: RESTART FREQUENCY      100000
Info: BINARY RESTART FILES WILL BE USED
Info: CUTOFF                 9
Info: PAIRLIST DISTANCE      11
Info: PAIRLIST SHRINK RATE   0.01
Info: PAIRLIST GROW RATE     0.01
Info: PAIRLIST TRIGGER       0.3
Info: PAIRLISTS PER CYCLE    2
Info: PAIRLISTS ENABLED
Info: MARGIN                 8
Info: HYDROGEN GROUP CUTOFF  2.5
Info: PATCH DIMENSION        21.5
Info: ENERGY OUTPUT STEPS    100000
Info: ENERGY EVALUATION STEPS    100000
Info: OUTPUT ENERGY PRECISION 4
Info: CROSSTERM ENERGY INCLUDED IN DIHEDRAL
Info: TIMING OUTPUT STEPS    1000000
Info: PRESSURE OUTPUT STEPS  100000
Info: FIXED ATOMS ACTIVE
Info: LANGEVIN DYNAMICS ACTIVE
Info: LANGEVIN TEMPERATURE   30
Info: LANGEVIN USING BBK INTEGRATOR
Info: LANGEVIN DAMPING COEFFICIENT IS 1 INVERSE PS
Info: LANGEVIN DYNAMICS APPLIED TO HYDROGENS
Info: LANGEVIN PISTON PRESSURE CONTROL ACTIVE
Info:        TARGET PRESSURE IS 1.01325 BAR
Info:     OSCILLATION PERIOD IS 50 FS
Info:             DECAY TIME IS 25 FS
Info:     PISTON TEMPERATURE IS 300 K
Info:       PRESSURE CONTROL IS GROUP-BASED
Info:    INITIAL STRAIN RATE IS 0 0 0
Info:       CELL FLUCTUATION IS ISOTROPIC
Info: PARTICLE MESH EWALD (PME) ACTIVE
Info: PME TOLERANCE               1e-06
Info: PME EWALD COEFFICIENT       0.348832
Info: PME INTERPOLATION ORDER     4
Info: PME GRID DIMENSIONS         40 40 32
Info: PME MAXIMUM GRID SPACING    1
Info: FULL ELECTROSTATIC EVALUATION FREQUENCY      2
Info: USING VERLET I (r-RESPA) MTS SCHEME.
Info: C1 SPLITTING OF LONG RANGE ELECTROSTATICS
Info: PLACING ATOMS IN PATCHES BY HYDROGEN GROUPS
Info: RIGID BONDS TO HYDROGEN : ALL
Info:         ERROR TOLERANCE : 1e-08
Info:          MAX ITERATIONS : 100
Info: RIGID WATER USING SETTLE ALGORITHM
Info: RANDOM NUMBER SEED     1743669516
Info: USE HYDROGEN BONDS?    NO
Info: Using AMBER format force field!
Info: AMBER PARM FILE        mobley_1079207.prmtop
Info: COORDINATE PDB         mobley_1079207.pdb
Info: Exclusions will be read from PARM file!
Info: SCNB (VDW SCALING)     2
Info: USING ARITHMETIC MEAN TO COMBINE L-J SIGMA PARAMETERS
Info: BINARY COORDINATES     mobley_1079207_min.coor
Info: SUMMARY OF PARAMETERS:
Info: 5 BONDS
Info: 3 ANGLES
Info:   3 HARMONIC
Info:   0 COSINE-BASED
Info: 2 DIHEDRAL
Info: 0 IMPROPER
Info: 0 CROSSTERM
Info: 0 VDW
Info: 15 VDW_PAIRS
Info: 0 NBTHOLE_PAIRS
Info: STRUCTURE SUMMARY:
Info: 2976 ATOMS
Info: 2976 BONDS
Info: 18 ANGLES
Info: 30 DIHEDRALS
Info: 0 IMPROPERS
Info: 0 CROSSTERMS
Info: 3015 EXCLUSIONS
Info: 12 FIXED ATOMS
Info: 2968 RIGID BONDS
Info: 4 RIGID BONDS BETWEEN FIXED ATOMS
Info: 5928 DEGREES OF FREEDOM
Info: 996 HYDROGEN GROUPS
Info: 3 ATOMS IN LARGEST HYDROGEN GROUP
Info: 996 MIGRATION GROUPS
Info: 3 ATOMS IN LARGEST MIGRATION GROUP
Info: 8 HYDROGEN GROUPS WITH ALL ATOMS FIXED
Info: TOTAL MASS = 17946.8 amu
Info: TOTAL CHARGE = 0.000199996 e
Info: MASS DENSITY = 0.685617 g/cm^3
Info: ATOM DENSITY = 0.0684649 atoms/A^3
Info: ADDED 0 IMPLICIT EXCLUSIONS
Info: NONBONDED TABLE R-SQUARED SPACING: 0.0625
Info: NONBONDED TABLE SIZE: 705 POINTS
Info: REMOVING COM VELOCITY -0.0136284 0.105288 0.103854
TCL: Running for 100000 steps
ETITLE: TS BOND ANGLE DIHED IMPRP ELECT VDW BOUNDARY MISC KINETIC TOTAL TEMP POTENTIAL TOTAL3 TEMPAVG PRESSURE GPRESSURE VOLUME PRESSAVG GPRESSAVG
ENERGY: 0 0.0000 0.0000 0.0000 0.0000 -13857.7788 2416.6581 0.0000 0.0000 1750.7581 -9690.3625 297.2407 -11441.1207 -9690.0144 297.2407 243.6990 271.2461 43467.5232 243.6990 271.2461
ENERGY: 100000 0.0000 0.0000 0.0000 0.0000 -14215.9666 2378.2751 0.0000 0.0000 180.7296 -11656.9619 30.6840 -11837.6915 -11656.4812 30.8469 -1095.4814 -1043.7848 29987.9778 3.4848 3.4744
TCL: Running 100000 steps at 60 kelvin.
TCL: Setting parameter langevinTemp to 60
TCL: Running for 100000 steps
ETITLE: TS BOND ANGLE DIHED IMPRP ELECT VDW BOUNDARY MISC KINETIC TOTAL TEMP POTENTIAL TOTAL3 TEMPAVG PRESSURE GPRESSURE VOLUME PRESSAVG GPRESSAVG
ENERGY: 100000 0.0000 0.0000 0.0000 0.0000 -14215.9666 2378.2751 0.0000 0.0000 180.6413 -11657.0502 30.6690 -11837.6915 -11656.6102 30.6690 -1097.8734 -1043.7327 29987.9778 -1097.8734 -1043.7327
ENERGY: 200000 0.0000 0.0000 0.0000 0.0000 -14218.9260 2475.9457 0.0000 0.0000 350.1066 -11392.8737 59.4405 -11742.9803 -11392.0595 60.0079 225.9509 282.1582 29337.0637 3.6855 3.6798
TCL: Running 100000 steps at 90 kelvin.
TCL: Setting parameter langevinTemp to 90
TCL: Running for 100000 steps
ETITLE: TS BOND ANGLE DIHED IMPRP ELECT VDW BOUNDARY MISC KINETIC TOTAL TEMP POTENTIAL TOTAL3 TEMPAVG PRESSURE GPRESSURE VOLUME PRESSAVG GPRESSAVG
ENERGY: 200000 0.0000 0.0000 0.0000 0.0000 -14218.9260 2475.9457 0.0000 0.0000 349.9254 -11393.0549 59.4097 -11742.9803 -11392.2330 59.4097 235.5413 281.9348 29337.0637 235.5413 281.9348
ENERGY: 300000 0.0000 0.0000 0.0000 0.0000 -14076.5784 2383.6529 0.0000 0.0000 534.3060 -11158.6194 90.7136 -11692.9255 -11157.1351 89.8132 40.6092 57.1222 28693.7044 3.7917 3.7630
TCL: Running 100000 steps at 120 kelvin.
TCL: Setting parameter langevinTemp to 120
TCL: Running for 100000 steps
ETITLE: TS BOND ANGLE DIHED IMPRP ELECT VDW BOUNDARY MISC KINETIC TOTAL TEMP POTENTIAL TOTAL3 TEMPAVG PRESSURE GPRESSURE VOLUME PRESSAVG GPRESSAVG
ENERGY: 300000 0.0000 0.0000 0.0000 0.0000 -14076.5784 2383.6529 0.0000 0.0000 534.0474 -11158.8780 90.6697 -11692.9255 -11157.8706 90.6697 9.8708 57.0315 28693.7044 9.8708 57.0315
ENERGY: 400000 0.0000 0.0000 0.0000 0.0000 -13965.7908 2392.6701 0.0000 0.0000 720.6005 -10852.5202 122.3423 -11573.1207 -10850.6705 120.0286 428.1652 472.6866 28946.1121 3.1241 3.2753
TCL: Running 100000 steps at 150 kelvin.
TCL: Setting parameter langevinTemp to 150
TCL: Running for 100000 steps
ETITLE: TS BOND ANGLE DIHED IMPRP ELECT VDW BOUNDARY MISC KINETIC TOTAL TEMP POTENTIAL TOTAL3 TEMPAVG PRESSURE GPRESSURE VOLUME PRESSAVG GPRESSAVG
ENERGY: 400000 0.0000 0.0000 0.0000 0.0000 -13965.7908 2392.6701 0.0000 0.0000 720.2490 -10852.8717 122.2826 -11573.1207 -10851.2772 122.2826 428.0821 473.3214 28946.1121 428.0821 473.3214
ENERGY: 500000 0.0000 0.0000 0.0000 0.0000 -13706.2422 2317.9331 0.0000 0.0000 858.7930 -10529.5161 145.8044 -11388.3091 -10528.0049 150.0292 224.9867 287.2065 29424.0194 3.5666 3.4819
TCL: Running 100000 steps at 180 kelvin.
TCL: Setting parameter langevinTemp to 180
TCL: Running for 100000 steps
ETITLE: TS BOND ANGLE DIHED IMPRP ELECT VDW BOUNDARY MISC KINETIC TOTAL TEMP POTENTIAL TOTAL3 TEMPAVG PRESSURE GPRESSURE VOLUME PRESSAVG GPRESSAVG
ENERGY: 500000 0.0000 0.0000 0.0000 0.0000 -13706.2422 2317.9331 0.0000 0.0000 858.3624 -10529.9468 145.7313 -11388.3091 -10528.0611 145.7313 236.1343 286.6578 29424.0194 236.1343 286.6578
ENERGY: 600000 0.0000 0.0000 0.0000 0.0000 -13163.4183 2116.6755 0.0000 0.0000 1045.2176 -10001.5253 177.4553 -11046.7429 -9998.4864 179.7789 142.2888 177.1381 29012.1072 4.6531 4.7090
TCL: Running 100000 steps at 210 kelvin.
TCL: Setting parameter langevinTemp to 210
TCL: Running for 100000 steps
ETITLE: TS BOND ANGLE DIHED IMPRP ELECT VDW BOUNDARY MISC KINETIC TOTAL TEMP POTENTIAL TOTAL3 TEMPAVG PRESSURE GPRESSURE VOLUME PRESSAVG GPRESSAVG
ENERGY: 600000 0.0000 0.0000 0.0000 0.0000 -13163.4183 2116.6755 0.0000 0.0000 1044.7071 -10002.0358 177.3686 -11046.7429 -10000.1062 177.3686 108.9178 177.4438 29012.1072 108.9178 177.4438
ENERGY: 700000 0.0000 0.0000 0.0000 0.0000 -12560.0011 1893.6202 0.0000 0.0000 1223.6613 -9442.7196 207.7511 -10666.3809 -9439.7545 210.3545 -361.4929 -301.5411 29184.1662 2.1311 2.0711
TCL: Running 100000 steps at 240 kelvin.
TCL: Setting parameter langevinTemp to 240
TCL: Running for 100000 steps
ETITLE: TS BOND ANGLE DIHED IMPRP ELECT VDW BOUNDARY MISC KINETIC TOTAL TEMP POTENTIAL TOTAL3 TEMPAVG PRESSURE GPRESSURE VOLUME PRESSAVG GPRESSAVG
ENERGY: 700000 0.0000 0.0000 0.0000 0.0000 -12560.0011 1893.6202 0.0000 0.0000 1223.0443 -9443.3366 207.6464 -10666.3809 -9440.8058 207.6464 -388.8627 -301.7657 29184.1662 -388.8627 -301.7657
ENERGY: 800000 0.0000 0.0000 0.0000 0.0000 -12061.5062 1759.5127 0.0000 0.0000 1383.6947 -8918.2989 234.9213 -10301.9935 -8916.7314 239.9580 40.8580 118.2652 28995.3760 3.6136 3.5564
TCL: Running 100000 steps at 270 kelvin.
TCL: Setting parameter langevinTemp to 270
TCL: Running for 100000 steps
ETITLE: TS BOND ANGLE DIHED IMPRP ELECT VDW BOUNDARY MISC KINETIC TOTAL TEMP POTENTIAL TOTAL3 TEMPAVG PRESSURE GPRESSURE VOLUME PRESSAVG GPRESSAVG
ENERGY: 800000 0.0000 0.0000 0.0000 0.0000 -12061.5062 1759.5127 0.0000 0.0000 1382.9952 -8918.9983 234.8026 -10301.9935 -8915.3888 234.8026 46.0148 116.8164 28995.3760 46.0148 116.8164
ENERGY: 900000 0.0000 0.0000 0.0000 0.0000 -11264.4148 1496.2869 0.0000 0.0000 1623.6429 -8144.4850 275.6593 -9768.1279 -8142.7499 269.7279 -606.3032 -475.5518 29784.5465 3.2774 3.2570
TCL: Running 1000000 steps at 300 kelvin.
TCL: Setting parameter langevinTemp to 300
TCL: Running for 1000000 steps
ETITLE: TS BOND ANGLE DIHED IMPRP ELECT VDW BOUNDARY MISC KINETIC TOTAL TEMP POTENTIAL TOTAL3 TEMPAVG PRESSURE GPRESSURE VOLUME PRESSAVG GPRESSAVG
ENERGY: 900000 0.0000 0.0000 0.0000 0.0000 -11264.4148 1496.2869 0.0000 0.0000 1622.8624 -8145.2655 275.5268 -9768.1279 -8142.9898 275.5268 -565.6978 -478.3560 29784.5465 -565.6978 -478.3560
ENERGY: 1100000 0.0000 0.0000 0.0000 0.0000 -10794.8298 1376.9334 0.0000 0.0000 1760.6385 -7657.2579 298.9182 -9417.8964 -7654.4374 300.1303 -591.7122 -539.4100 30573.3947 2.4995 2.5123
ENERGY: 1300000 0.0000 0.0000 0.0000 0.0000 -10905.3793 1534.8786 0.0000 0.0000 1754.9831 -7615.5176 297.9580 -9370.5007 -7613.7163 300.1584 696.2793 773.4069 30470.0627 3.4709 3.4268
ENERGY: 1500000 0.0000 0.0000 0.0000 0.0000 -10857.7103 1482.8771 0.0000 0.0000 1783.2755 -7591.5577 302.7615 -9374.8332 -7585.6168 300.7634 174.5476 227.3985 30583.6127 2.9130 2.9830
ENERGY: 1700000 0.0000 0.0000 0.0000 0.0000 -10946.6111 1546.7839 0.0000 0.0000 1698.7378 -7701.0894 288.4088 -9399.8272 -7699.3589 299.8811 551.8541 592.3233 30662.2520 2.4117 2.6634
ENERGY: 1900000 0.0000 0.0000 0.0000 0.0000 -10552.4420 1295.7142 0.0000 0.0000 1799.0514 -7457.6765 305.4399 -9256.7279 -7454.8145 300.1695 -963.2601 -883.4498 30978.2197 4.3210 4.3209
TCL: Exiting due to exit command.
