Info: SIMULATION PARAMETERS:
Info: TIMESTEP               2
Info: NUMBER OF STEPS        0
Info: STEPS PER CYCLE        10
Info: PERIODIC CELL BASIS 1  30.955 0 0
Info: PERIODIC CELL BASIS 2  0 31.0629 0
Info: PERIODIC CELL BASIS 3  0 0 31.5854
Info: PERIODIC CELL CENTER   0 0 0
Info: WRAPPING WATERS AROUND PERIODIC BOUNDARIES ON OUTPUT.
Info: WRAPPING ALL CLUSTERS AROUND PERIODIC BOUNDARIES ON OUTPUT.
Info: FIRST LDB TIMESTEP     50
Info: LAST LDB TIMESTEP     -1
Info: HOM BACKGROUND SCALING 1
Info: PME BACKGROUND SCALING 1
Info: MIN ATOMS PER PATCH    40
Info: EMPTY PATCH LOAD       40 ATOMS
Info: VELOCITY FILE          mobley_6359135_equil.vel
Info: CENTER OF MASS MOVING INITIALLY? NO
Info: DIELECTRIC             1
Info: EXCLUDE                SCALED ONE-FOUR
Info: 1-4 ELECTROSTATICS SCALED BY 0.833333
Info: MODIFIED 1-4 VDW PARAMETERS WILL BE USED
Info: DCD FILENAME           mobley_6359135_prod.dcd
Info: DCD FREQUENCY          100000
Info: DCD FIRST STEP         100000
Info: DCD FILE WILL CONTAIN UNIT CELL DATA
Info: XST FILENAME           mobley_6359135_prod.xst
Info: XST FREQUENCY          100000
Info: NO VELOCITY DCD OUTPUT
Info: NO FORCE DCD OUTPUT
Info: OUTPUT FILENAME        mobley_6359135_prod
Info: BINARY OUTPUT FILES WILL BE USED
Info: RESTART FILENAME       mobley_6359135_prod.restart
Info: RESTART FREQUENCY      100000
Info: BINARY RESTART FILES WILL BE USED
Info: CUTOFF                 9
Info: PAIRLIST DISTANCE      11
Info: PAIRLIST SHRINK RATE   0.01
Info: PAIRLIST GROW RATE     0.01
Info: PAIRLIST TRIGGER       0.3
Info: PAIRLISTS PER CYCLE    2
Info: PAIRLISTS ENABLED
Info: MARGIN                 2
Info: HYDROGEN GROUP CUTOFF  2.5
Info: PATCH DIMENSION        15.5
Info: ENERGY OUTPUT STEPS    100000
Info: ENERGY EVALUATION STEPS    100000
Info: OUTPUT ENERGY PRECISION 4
Info: CROSSTERM ENERGY INCLUDED IN DIHEDRAL
Info: TIMING OUTPUT STEPS    1000000
Info: PRESSURE OUTPUT STEPS  100000
Info: ALCHEMICAL FEP ON
Info: FEP CURRENT LAMBDA VALUE     1
Info: FEP COMPARISON LAMBDA VALUE  0.95
Info: FEP INTRA-ALCHEMICAL NON-BONDED INTERACTIONS WILL BE RETAINED
Info: FEP INTRA-ALCHEMICAL BONDED INTERACTIONS WILL BE RETAINED
Info: FEP VDW SHIFTING COEFFICIENT 5
Info: FEP ELEC. ACTIVE FOR ANNIHILATED PARTICLES BETWEEN LAMBDA = 0 AND LAMBDA = 0.5
Info: FEP ELEC. ACTIVE FOR EXNIHILATED PARTICLES BETWEEN LAMBDA = 0.5 AND LAMBDA = 1
Info: FEP VDW ACTIVE FOR ANNIHILATED PARTICLES BETWEEN LAMBDA = 0 AND LAMBDA = 1
Info: FEP VDW ACTIVE FOR EXNIHILATED PARTICLES BETWEEN LAMBDA = 0 AND LAMBDA = 1
Info: FEP BOND ACTIVE FOR ANNIHILATED PARTICLES BETWEEN LAMBDA = 1 AND LAMBDA = 1
Info: FEP BOND ACTIVE FOR EXNIHILATED PARTICLES BETWEEN LAMBDA = 0 AND LAMBDA = 0
Info: LANGEVIN DYNAMICS ACTIVE
Info: LANGEVIN TEMPERATURE   300
Info: LANGEVIN USING BBK INTEGRATOR
Info: LANGEVIN DAMPING COEFFICIENT IS 1 INVERSE PS
Info: LANGEVIN DYNAMICS APPLIED TO HYDROGENS
Info: LANGEVIN PISTON PRESSURE CONTROL ACTIVE
Info:        TARGET PRESSURE IS 1.01325 BAR
Info:     OSCILLATION PERIOD IS 50 FS
Info:             DECAY TIME IS 25 FS
Info:     PISTON TEMPERATURE IS 300 K
Info:       PRESSURE CONTROL IS GROUP-BASED
Info:    INITIAL STRAIN RATE IS -0.00024459 -0.00024459 -0.00024459
Info:       CELL FLUCTUATION IS ISOTROPIC
Info: PARTICLE MESH EWALD (PME) ACTIVE
Info: PME TOLERANCE               1e-06
Info: PME EWALD COEFFICIENT       0.348832
Info: PME INTERPOLATION ORDER     4
Info: PME GRID DIMENSIONS         32 32 32
Info: PME MAXIMUM GRID SPACING    1
Info: PME CALCULATION WILL BE PERFORMED ON GPU
Info: FULL ELECTROSTATIC EVALUATION FREQUENCY      2
Info: USING VERLET I (r-RESPA) MTS SCHEME.
Info: C1 SPLITTING OF LONG RANGE ELECTROSTATICS
Info: PLACING ATOMS IN PATCHES BY HYDROGEN GROUPS
Info: RIGID BONDS TO HYDROGEN : ALL
Info:         ERROR TOLERANCE : 1e-08
Info:          MAX ITERATIONS : 100
Info: RIGID WATER USING SETTLE ALGORITHM
Info: RANDOM NUMBER SEED     1743476644
Info: USE HYDROGEN BONDS?    NO
Info: Using AMBER format force field!
Info: AMBER PARM FILE        mobley_6359135.prmtop
Info: COORDINATE PDB         mobley_6359135.pdb
Info: Exclusions will be read from PARM file!
Info: SCNB (VDW SCALING)     2
Info: USING ARITHMETIC MEAN TO COMBINE L-J SIGMA PARAMETERS
Info: BINARY COORDINATES     mobley_6359135_equil.coor
Info: SUMMARY OF PARAMETERS:
Info: 3 BONDS
Info: 1 ANGLES
Info:   1 HARMONIC
Info:   0 COSINE-BASED
Info: 0 DIHEDRAL
Info: 0 IMPROPER
Info: 0 CROSSTERM
Info: 0 VDW
Info: 10 VDW_PAIRS
Info: 0 NBTHOLE_PAIRS
Info: To read alchdata from file: mobley_6359135.pdb
Info: To read alchflag data from column: 5
Info: STRUCTURE SUMMARY:
Info: 2942 ATOMS
Info: 2941 BONDS
Info: 6 ANGLES
Info: 0 DIHEDRALS
Info: 0 IMPROPERS
Info: 0 CROSSTERMS
Info: 2947 EXCLUSIONS
Info: 2937 RIGID BONDS
Info: ALCH: 0 ATOMS TO DISAPPEAR IN FINAL STATE
Info: ALCH: 5 ATOMS TO APPEAR IN FINAL STATE
Info: 5889 DEGREES OF FREEDOM
Info: 984 HYDROGEN GROUPS
Info: 3 ATOMS IN LARGEST HYDROGEN GROUP
Info: 984 MIGRATION GROUPS
Info: 3 ATOMS IN LARGEST MIGRATION GROUP
Info: TOTAL MASS = 17791.5 amu
Info: TOTAL CHARGE = -9.99868e-05 e
Info: MASS DENSITY = 0.972775 g/cm^3
Info: ATOM DENSITY = 0.0968688 atoms/A^3
Info: ADDED 0 IMPLICIT EXCLUSIONS
Info: NONBONDED TABLE R-SQUARED SPACING: 0.0625
Info: NONBONDED TABLE SIZE: 705 POINTS
Info: REMOVING COM VELOCITY 0.0689473 -0.0337768 -0.300343
Info: Use 3D box decompostion in PME FFT.
Info: Updated CUDA force table with 4096 elements.
Info: Updated CUDA LJ table with 4 x 4 elements.
Info: Found 8 unique exclusion lists needing 8 bytes
TCL: Running for 1500000 steps
ETITLE: TS BOND ANGLE DIHED IMPRP ELECT VDW BOUNDARY MISC KINETIC TOTAL TEMP POTENTIAL TOTALAVG TEMPAVG PRESSURE GPRESSURE VOLUME PRESSAVG GPRESSAVG
ENERGY: 0 0.6993 2.5375 0.0000 0.0000 -10664.5153 1424.3271 0.0000 0.0000 1730.3253 -7506.6260 295.7172 -9236.9514 -7506.6260 295.7172 -163.8985 -82.5972 30370.9678 -163.8985 -82.5972
ENERGY: 300000 0.9090 1.8749 0.0000 0.0000 -10668.8403 1424.9237 0.0000 0.0000 1731.8088 -7509.3239 295.9707 -9241.1327 -7516.3478 299.1770 -419.5345 -271.9604 30862.1916 -163.3325 -50.9886
ENERGY: 600000 1.3975 1.4927 0.0000 0.0000 -10645.0928 1367.0961 0.0000 0.0000 1745.1185 -7529.9879 298.2454 -9275.1064 -7526.9391 298.3234 -835.6186 -774.1457 30812.6642 -347.7965 -255.6083
ENERGY: 900000 0.2707 1.4458 0.0000 0.0000 -10688.3759 1419.7795 0.0000 0.0000 1755.1398 -7511.7402 299.9581 -9266.8799 -7520.6933 297.3053 -652.1015 -591.1443 31335.3905 -391.4768 -305.0434
ENERGY: 1200000 0.1753 0.3652 0.0000 0.0000 -10703.6768 1402.0299 0.0000 0.0000 1704.1076 -7596.9987 291.2365 -9301.1063 -7528.0605 297.2721 -447.5944 -417.8996 30340.4219 -332.4247 -253.6481
ENERGY: 1500000 1.0391 1.8622 0.0000 0.0000 -10690.9499 1446.7367 0.0000 0.0000 1725.2489 -7516.0630 294.8496 -9241.3118 -7515.8177 297.7927 130.7440 267.0805 30232.1689 -292.2825 -208.1211
TCL: Running FEP window   2: Lambda1 0.95   Lambda2 0.8999999999999999 [dLambda -0.050000000000000044]
TCL: Setting parameter firsttimestep to 0
TCL: Setting parameter alchLambda to 0.95
Info: NONBONDED TABLE R-SQUARED SPACING: 0.0625
Info: NONBONDED TABLE SIZE: 705 POINTS
TCL: Setting parameter alchLambda2 to 0.8999999999999999
Info: NONBONDED TABLE R-SQUARED SPACING: 0.0625
Info: NONBONDED TABLE SIZE: 705 POINTS
TCL: Running for 1500000 steps
ETITLE: TS BOND ANGLE DIHED IMPRP ELECT VDW BOUNDARY MISC KINETIC TOTAL TEMP POTENTIAL TOTALAVG TEMPAVG PRESSURE GPRESSURE VOLUME PRESSAVG GPRESSAVG
ENERGY: 0 1.0391 1.8622 0.0000 0.0000 -10690.9374 1447.2126 0.0000 0.0000 1724.3561 -7516.4673 294.6970 -9240.8234 -7516.4673 294.6970 180.0050 263.6158 30232.1689 180.0050 263.6158
ENERGY: 300000 0.4859 1.4835 0.0000 0.0000 -10694.2692 1436.8602 0.0000 0.0000 1790.7794 -7464.6602 306.0490 -9255.4395 -7511.5092 300.1948 204.5951 292.5437 30005.6238 2.5502 71.5948
ENERGY: 600000 1.7364 0.9816 0.0000 0.0000 -10743.5460 1443.0681 0.0000 0.0000 1743.7519 -7554.0079 298.0118 -9297.7599 -7542.1292 297.7435 -40.2367 29.4446 30427.1833 -84.3797 -20.9661
ENERGY: 900000 0.9070 1.0468 0.0000 0.0000 -10540.2591 1314.3828 0.0000 0.0000 1799.3667 -7424.5558 307.5166 -9223.9225 -7524.3580 299.6231 -977.1580 -882.5503 30492.2163 -69.4361 -5.1271
ENERGY: 1200000 0.5784 0.3262 0.0000 0.0000 -10643.0303 1421.6341 0.0000 0.0000 1760.4773 -7460.0143 300.8703 -9220.4916 -7513.5590 300.2808 -84.2909 -48.7629 30564.2894 5.6756 67.5380
ENERGY: 1500000 0.7215 4.7467 0.0000 0.0000 -10805.1965 1527.4739 0.0000 0.0000 1762.9340 -7509.3204 301.2901 -9272.2543 -7508.0195 300.3209 655.7358 742.6249 30674.4257 32.6023 93.2205
TCL: Running FEP window   3: Lambda1 0.8999999999999999 Lambda2 0.8499999999999999 [dLambda -0.050000000000000044]
TCL: Setting parameter firsttimestep to 0
TCL: Setting parameter alchLambda to 0.8999999999999999
Info: NONBONDED TABLE R-SQUARED SPACING: 0.0625
Info: NONBONDED TABLE SIZE: 705 POINTS
TCL: Setting parameter alchLambda2 to 0.8499999999999999
Info: NONBONDED TABLE R-SQUARED SPACING: 0.0625
Info: NONBONDED TABLE SIZE: 705 POINTS
TCL: Running for 1500000 steps
ETITLE: TS BOND ANGLE DIHED IMPRP ELECT VDW BOUNDARY MISC KINETIC TOTAL TEMP POTENTIAL TOTALAVG TEMPAVG PRESSURE GPRESSURE VOLUME PRESSAVG GPRESSAVG
ENERGY: 0 0.7215 4.7467 0.0000 0.0000 -10805.2175 1527.4211 0.0000 0.0000 1762.0512 -7510.2770 301.1392 -9272.3282 -7510.2770 301.1392 662.5462 733.7517 30674.4257 662.5462 733.7517
ENERGY: 300000 0.4937 2.0513 0.0000 0.0000 -10584.5306 1440.0638 0.0000 0.0000 1789.6582 -7352.2636 305.8574 -9141.9218 -7444.3586 302.4430 141.6133 246.4597 30825.0275 359.1826 412.7310
ENERGY: 600000 2.2282 1.0267 0.0000 0.0000 -10785.7169 1498.5983 0.0000 0.0000 1768.0479 -7515.8158 302.1641 -9283.8637 -7462.3162 302.5753 279.6773 283.1910 30611.7009 142.9730 190.0884
ENERGY: 900000 4.2184 1.1880 0.0000 0.0000 -10730.7499 1466.9940 0.0000 0.0000 1714.0248 -7544.3247 292.9314 -9258.3495 -7477.7153 300.6861 542.6165 540.3997 30117.4016 123.6613 169.2267
ENERGY: 1200000 0.1332 0.5090 0.0000 0.0000 -10628.0475 1401.5207 0.0000 0.0000 1686.0835 -7539.8011 288.1562 -9225.8846 -7490.6391 299.3385 -299.4043 -238.0672 30581.6871 30.2659 79.6945
ENERGY: 1500000 0.8180 1.9451 0.0000 0.0000 -10679.6161 1439.6123 0.0000 0.0000 1742.3556 -7494.8851 297.7732 -9237.2407 -7495.4592 298.5078 85.4896 211.5402 30315.5378 60.6441 125.2747
TCL: Running FEP window   4: Lambda1 0.8499999999999999 Lambda2 0.7999999999999998 [dLambda -0.050000000000000044]
TCL: Setting parameter firsttimestep to 0
TCL: Setting parameter alchLambda to 0.8499999999999999
Info: NONBONDED TABLE R-SQUARED SPACING: 0.0625
Info: NONBONDED TABLE SIZE: 705 POINTS
TCL: Setting parameter alchLambda2 to 0.7999999999999998
Info: NONBONDED TABLE R-SQUARED SPACING: 0.0625
Info: NONBONDED TABLE SIZE: 705 POINTS
TCL: Running for 1500000 steps
ETITLE: TS BOND ANGLE DIHED IMPRP ELECT VDW BOUNDARY MISC KINETIC TOTAL TEMP POTENTIAL TOTALAVG TEMPAVG PRESSURE GPRESSURE VOLUME PRESSAVG GPRESSAVG
ENERGY: 0 0.8180 1.9451 0.0000 0.0000 -10679.5934 1439.7813 0.0000 0.0000 1741.4461 -7495.6028 297.6178 -9237.0490 -7495.6028 297.6178 117.3846 207.5140 30315.5378 117.3846 207.5140
ENERGY: 300000 0.5928 1.4714 0.0000 0.0000 -10528.8096 1305.2679 0.0000 0.0000 1694.9324 -7526.5450 289.6685 -9221.4775 -7525.3177 300.2990 -1013.8465 -913.5351 30466.4585 -355.2692 -279.2705
ENERGY: 600000 2.3031 0.6304 0.0000 0.0000 -10652.7362 1454.9747 0.0000 0.0000 1788.7130 -7406.1150 305.6958 -9194.8280 -7487.4030 301.1377 287.3650 355.0880 30503.8141 -299.2088 -218.5511
ENERGY: 900000 0.4093 0.6468 0.0000 0.0000 -10781.5371 1467.9859 0.0000 0.0000 1717.7390 -7594.7563 293.5662 -9312.4952 -7492.7499 301.1621 181.2945 220.1829 30014.1848 -188.8519 -120.8227
ENERGY: 1200000 2.7646 4.0424 0.0000 0.0000 -10675.3199 1387.7167 0.0000 0.0000 1774.5009 -7506.2954 303.2669 -9280.7963 -7495.9703 301.0922 -423.2608 -387.4586 30408.1277 -193.5807 -127.9059
ENERGY: 1500000 1.6416 0.8107 0.0000 0.0000 -10437.7466 1304.2705 0.0000 0.0000 1697.1820 -7433.8417 290.0529 -9131.0237 -7491.3967 299.8640 -945.9640 -887.4292 31013.8694 -166.2620 -96.8045
TCL: Running FEP window   5: Lambda1 0.7999999999999998 Lambda2 0.7499999999999998 [dLambda -0.050000000000000044]
TCL: Setting parameter firsttimestep to 0
TCL: Setting parameter alchLambda to 0.7999999999999998
Info: NONBONDED TABLE R-SQUARED SPACING: 0.0625
Info: NONBONDED TABLE SIZE: 705 POINTS
TCL: Setting parameter alchLambda2 to 0.7499999999999998
Info: NONBONDED TABLE R-SQUARED SPACING: 0.0625
Info: NONBONDED TABLE SIZE: 705 POINTS
TCL: Running for 1500000 steps
ETITLE: TS BOND ANGLE DIHED IMPRP ELECT VDW BOUNDARY MISC KINETIC TOTAL TEMP POTENTIAL TOTALAVG TEMPAVG PRESSURE GPRESSURE VOLUME PRESSAVG GPRESSAVG
ENERGY: 0 1.6416 0.8107 0.0000 0.0000 -10437.7123 1304.4076 0.0000 0.0000 1696.3157 -7434.5368 289.9049 -9130.8525 -7434.5368 289.9049 -975.7847 -894.3244 31013.8694 -975.7847 -894.3244
ENERGY: 300000 1.3083 0.5525 0.0000 0.0000 -10641.8621 1480.2534 0.0000 0.0000 1803.0659 -7356.6820 308.1488 -9159.7479 -7462.5298 297.3527 596.7543 661.2841 30703.3707 -227.3539 -153.6037
ENERGY: 600000 1.7238 1.4710 0.0000 0.0000 -10606.1293 1376.4647 0.0000 0.0000 1767.4843 -7458.9855 302.0678 -9226.4698 -7465.4793 299.6510 -549.6771 -459.5398 30690.3485 -112.5834 -45.7306
ENERGY: 900000 1.6863 1.1374 0.0000 0.0000 -10664.7999 1458.5682 0.0000 0.0000 1794.0339 -7409.3741 306.6052 -9203.4080 -7460.8944 300.1429 275.4547 313.8379 30716.4413 -7.5093 53.3385
ENERGY: 1200000 1.2425 1.2994 0.0000 0.0000 -10655.2774 1441.1666 0.0000 0.0000 1762.7920 -7448.7770 301.2658 -9211.5690 -7465.7797 299.9377 159.6309 200.5436 30615.9477 35.5331 102.5057
ENERGY: 1500000 0.1694 0.6668 0.0000 0.0000 -10688.3568 1394.5229 0.0000 0.0000 1744.7327 -7548.2649 298.1795 -9292.9977 -7470.8409 300.4177 -236.4585 -180.1990 30180.1619 27.2322 88.6151
TCL: Running FEP window   6: Lambda1 0.7499999999999998 Lambda2 0.6999999999999997 [dLambda -0.050000000000000044]
TCL: Setting parameter firsttimestep to 0
TCL: Setting parameter alchLambda to 0.7499999999999998
Info: NONBONDED TABLE R-SQUARED SPACING: 0.0625
Info: NONBONDED TABLE SIZE: 705 POINTS
TCL: Setting parameter alchLambda2 to 0.6999999999999997
Info: NONBONDED TABLE R-SQUARED SPACING: 0.0625
Info: NONBONDED TABLE SIZE: 705 POINTS
TCL: Running for 1500000 steps
ETITLE: TS BOND ANGLE DIHED IMPRP ELECT VDW BOUNDARY MISC KINETIC TOTAL TEMP POTENTIAL TOTALAVG TEMPAVG PRESSURE GPRESSURE VOLUME PRESSAVG GPRESSAVG
ENERGY: 0 0.1694 0.6668 0.0000 0.0000 -10688.3106 1395.0574 0.0000 0.0000 1743.8719 -7548.5450 298.0324 -9292.4169 -7548.5450 298.0324 -261.8704 -179.0196 30180.1619 -261.8704 -179.0196
ENERGY: 300000 0.1368 0.8321 0.0000 0.0000 -10662.3376 1407.3380 0.0000 0.0000 1752.7808 -7501.2501 299.5549 -9254.0308 -7538.0909 297.0873 -127.3770 -125.4760 30480.0643 -160.0273 -112.9577
ENERGY: 600000 0.0407 1.8164 0.0000 0.0000 -10645.5988 1354.6761 0.0000 0.0000 1747.6161 -7541.4495 298.6722 -9289.0656 -7552.1239 298.7787 -670.5844 -585.3315 30356.6614 -161.7811 -116.7898
ENERGY: 900000 1.4205 1.3866 0.0000 0.0000 -10713.0257 1510.0023 0.0000 0.0000 1723.2503 -7476.9660 294.5081 -9200.2163 -7527.2688 299.4994 562.7177 662.9293 30495.9406 -0.3258 52.3392
ENERGY: 1200000 0.2721 1.5035 0.0000 0.0000 -10752.0409 1490.5029 0.0000 0.0000 1809.5217 -7450.2406 309.2521 -9259.7624 -7513.9069 300.8611 593.0759 655.5166 29986.9346 116.9083 169.0683
ENERGY: 1500000 0.9037 1.2171 0.0000 0.0000 -10708.3676 1432.0881 0.0000 0.0000 1752.8505 -7521.3083 299.5668 -9274.1588 -7514.8319 300.4094 -105.0480 38.3270 30325.6556 48.1865 106.2696
TCL: Running FEP window   7: Lambda1 0.6999999999999997 Lambda2 0.6499999999999997 [dLambda -0.050000000000000044]
TCL: Setting parameter firsttimestep to 0
TCL: Setting parameter alchLambda to 0.6999999999999997
Info: NONBONDED TABLE R-SQUARED SPACING: 0.0625
Info: NONBONDED TABLE SIZE: 705 POINTS
TCL: Setting parameter alchLambda2 to 0.6499999999999997
Info: NONBONDED TABLE R-SQUARED SPACING: 0.0625
Info: NONBONDED TABLE SIZE: 705 POINTS
TCL: Running for 1500000 steps
ETITLE: TS BOND ANGLE DIHED IMPRP ELECT VDW BOUNDARY MISC KINETIC TOTAL TEMP POTENTIAL TOTALAVG TEMPAVG PRESSURE GPRESSURE VOLUME PRESSAVG GPRESSAVG
ENERGY: 0 0.9037 1.2171 0.0000 0.0000 -10708.3278 1432.4818 0.0000 0.0000 1751.9649 -7521.7602 299.4155 -9273.7251 -7521.7602 299.4155 -36.3982 35.0695 30325.6556 -36.3982 35.0695
ENERGY: 300000 4.0586 0.4547 0.0000 0.0000 -10665.4246 1433.5542 0.0000 0.0000 1748.4221 -7478.9349 298.8100 -9227.3570 -7496.7391 301.3207 217.0818 296.4425 30104.0943 -76.7060 -13.9298
ENERGY: 600000 0.3761 0.7509 0.0000 0.0000 -10867.3151 1532.7512 0.0000 0.0000 1827.7704 -7505.6665 312.3708 -9333.4369 -7493.8026 302.2335 897.5373 937.6025 29711.0941 106.9631 153.0067
ENERGY: 900000 1.1280 1.6656 0.0000 0.0000 -10725.4855 1444.4633 0.0000 0.0000 1795.2220 -7483.0065 306.8082 -9278.2286 -7498.2970 301.3965 252.0563 277.8974 30159.4701 97.8308 142.3672
ENERGY: 1200000 3.5138 1.3848 0.0000 0.0000 -10625.8389 1332.0894 0.0000 0.0000 1726.2840 -7562.5670 295.0265 -9288.8510 -7489.6099 301.6502 -595.1558 -520.3839 29890.2240 -20.6239 32.7991
ENERGY: 1500000 2.6833 2.7066 0.0000 0.0000 -10766.8122 1421.2694 0.0000 0.0000 1788.7614 -7551.3915 305.7041 -9340.1529 -7499.5168 301.0972 -166.4681 -161.9484 30111.4851 -38.4511 17.5750
TCL: Running FEP window   8: Lambda1 0.6499999999999997 Lambda2 0.5999999999999996 [dLambda -0.050000000000000044]
TCL: Setting parameter firsttimestep to 0
TCL: Setting parameter alchLambda to 0.6499999999999997
Info: NONBONDED TABLE R-SQUARED SPACING: 0.0625
Info: NONBONDED TABLE SIZE: 705 POINTS
TCL: Setting parameter alchLambda2 to 0.5999999999999996
Info: NONBONDED TABLE R-SQUARED SPACING: 0.0625
Info: NONBONDED TABLE SIZE: 705 POINTS
TCL: Running for 1500000 steps
ETITLE: TS BOND ANGLE DIHED IMPRP ELECT VDW BOUNDARY MISC KINETIC TOTAL TEMP POTENTIAL TOTALAVG TEMPAVG PRESSURE GPRESSURE VOLUME PRESSAVG GPRESSAVG
ENERGY: 0 2.6833 2.7066 0.0000 0.0000 -10766.8591 1421.5899 0.0000 0.0000 1787.9160 -7551.9633 305.5596 -9339.8793 -7551.9633 305.5596 -249.4150 -165.4438 30111.4851 -249.4150 -165.4438
ENERGY: 300000 3.0436 0.5905 0.0000 0.0000 -10519.3453 1329.7151 0.0000 0.0000 1726.9920 -7459.0042 295.1475 -9185.9961 -7517.0755 299.7894 -802.1122 -740.5726 30563.3627 -415.3552 -341.8263
ENERGY: 600000 1.2636 1.8607 0.0000 0.0000 -10680.8995 1409.5168 0.0000 0.0000 1777.8996 -7490.3588 303.8478 -9268.2584 -7495.4280 299.8549 91.3039 42.2858 30222.2346 -225.3693 -173.7780
ENERGY: 900000 2.0832 0.6545 0.0000 0.0000 -10750.7790 1540.8175 0.0000 0.0000 1754.4476 -7452.7762 299.8398 -9207.2238 -7490.4033 299.9640 870.0292 974.3077 30357.0500 27.5035 82.4510
ENERGY: 1200000 1.3854 2.4117 0.0000 0.0000 -10730.0200 1437.9369 0.0000 0.0000 1719.3043 -7568.9816 293.8337 -9288.2859 -7491.3531 299.5238 -230.9802 -171.6226 30685.7761 40.7733 91.3599
ENERGY: 1500000 1.3931 3.4446 0.0000 0.0000 -10717.5453 1429.6179 0.0000 0.0000 1757.0843 -7526.0054 300.2904 -9283.0897 -7489.8991 300.1170 -404.6961 -371.3749 30711.7119 -19.3191 32.4331
TCL: Running FEP window   9: Lambda1 0.5999999999999996 Lambda2 0.5499999999999996 [dLambda -0.050000000000000044]
TCL: Setting parameter firsttimestep to 0
TCL: Setting parameter alchLambda to 0.5999999999999996
Info: NONBONDED TABLE R-SQUARED SPACING: 0.0625
Info: NONBONDED TABLE SIZE: 705 POINTS
TCL: Setting parameter alchLambda2 to 0.5499999999999996
Info: NONBONDED TABLE R-SQUARED SPACING: 0.0625
Info: NONBONDED TABLE SIZE: 705 POINTS
TCL: Running for 1500000 steps
ETITLE: TS BOND ANGLE DIHED IMPRP ELECT VDW BOUNDARY MISC KINETIC TOTAL TEMP POTENTIAL TOTALAVG TEMPAVG PRESSURE GPRESSURE VOLUME PRESSAVG GPRESSAVG
ENERGY: 0 1.3931 3.4446 0.0000 0.0000 -10717.5864 1429.6218 0.0000 0.0000 1756.1856 -7526.9414 300.1368 -9283.1270 -7526.9414 300.1368 -457.2178 -375.4762 30711.7119 -457.2178 -375.4762
ENERGY: 300000 0.5760 0.2491 0.0000 0.0000 -10808.0666 1548.1518 0.0000 0.0000 1728.0600 -7531.0296 295.3301 -9259.0897 -7516.6805 295.0558 990.1587 1029.6800 29867.4939 190.2840 280.1641
ENERGY: 600000 1.4627 0.2377 0.0000 0.0000 -10874.9635 1558.1088 0.0000 0.0000 1761.1663 -7553.9880 300.9880 -9315.1543 -7503.8922 296.2852 528.0213 616.8348 30611.1954 78.2127 162.6366
ENERGY: 900000 2.3555 2.0310 0.0000 0.0000 -10757.3163 1510.3866 0.0000 0.0000 1765.2153 -7477.3280 301.6800 -9242.5433 -7493.5469 298.5652 630.6317 639.5687 30199.7048 159.6761 235.6399
ENERGY: 1200000 1.2944 1.2786 0.0000 0.0000 -10633.1907 1392.1646 0.0000 0.0000 1726.0593 -7512.3938 294.9881 -9238.4531 -7502.5328 298.5691 -211.8792 -183.8280 30311.2540 145.9280 215.8148
ENERGY: 1500000 0.5313 1.8347 0.0000 0.0000 -10589.5347 1295.0546 0.0000 0.0000 1714.3230 -7577.7911 292.9824 -9292.1141 -7506.0141 298.2607 -1121.9611 -1052.6851 30189.9189 63.1301 128.3968
TCL: Running FEP window  10: Lambda1 0.5499999999999996 Lambda2 0.4999999999999996 [dLambda -0.04999999999999999]
TCL: Setting parameter firsttimestep to 0
TCL: Setting parameter alchLambda to 0.5499999999999996
Info: NONBONDED TABLE R-SQUARED SPACING: 0.0625
Info: NONBONDED TABLE SIZE: 705 POINTS
TCL: Setting parameter alchLambda2 to 0.4999999999999996
Info: NONBONDED TABLE R-SQUARED SPACING: 0.0625
Info: NONBONDED TABLE SIZE: 705 POINTS
TCL: Running for 1500000 steps
ETITLE: TS BOND ANGLE DIHED IMPRP ELECT VDW BOUNDARY MISC KINETIC TOTAL TEMP POTENTIAL TOTALAVG TEMPAVG PRESSURE GPRESSURE VOLUME PRESSAVG GPRESSAVG
ENERGY: 0 0.5313 1.8347 0.0000 0.0000 -10589.5073 1295.2074 0.0000 0.0000 1713.4587 -7578.4751 292.8347 -9291.9339 -7578.4751 292.8347 -1148.1632 -1056.3749 30189.9189 -1148.1632 -1056.3749
ENERGY: 300000 0.6012 1.3289 0.0000 0.0000 -10695.0861 1411.7715 0.0000 0.0000 1759.9771 -7521.4074 300.7848 -9281.3845 -7542.4551 298.2819 -349.5495 -245.5035 30355.1231 -165.9937 -85.0919
ENERGY: 600000 1.0064 0.6356 0.0000 0.0000 -10672.0485 1430.9763 0.0000 0.0000 1744.6588 -7494.7715 298.1668 -9239.4303 -7548.8298 297.2531 22.7991 108.7613 30215.8327 -231.5674 -155.3542
ENERGY: 900000 0.7630 2.0963 0.0000 0.0000 -10760.8483 1482.9278 0.0000 0.0000 1713.4009 -7561.6604 292.8248 -9275.0612 -7540.4727 297.8814 75.8465 169.2760 30685.0645 -119.4581 -41.6685
ENERGY: 1200000 0.9758 1.6792 0.0000 0.0000 -10581.4551 1358.2650 0.0000 0.0000 1823.8968 -7396.6383 311.7088 -9220.5351 -7516.4857 299.2624 -616.4770 -537.6048 30628.7236 -146.4604 -69.8191
ENERGY: 1500000 3.3190 0.1525 0.0000 0.0000 -10621.7842 1409.7190 0.0000 0.0000 1778.4520 -7430.1418 303.9422 -9208.5937 -7501.1808 300.7709 -15.0562 35.1101 30243.8064 -88.3727 -18.3647
TCL: Running FEP window  11: Lambda1 0.4999999999999996 Lambda2 0.4499999999999996 [dLambda -0.04999999999999999]
TCL: Setting parameter firsttimestep to 0
TCL: Setting parameter alchLambda to 0.4999999999999996
Info: NONBONDED TABLE R-SQUARED SPACING: 0.0625
Info: NONBONDED TABLE SIZE: 705 POINTS
TCL: Setting parameter alchLambda2 to 0.4499999999999996
Info: NONBONDED TABLE R-SQUARED SPACING: 0.0625
Info: NONBONDED TABLE SIZE: 705 POINTS
TCL: Running for 1500000 steps
ETITLE: TS BOND ANGLE DIHED IMPRP ELECT VDW BOUNDARY MISC KINETIC TOTAL TEMP POTENTIAL TOTALAVG TEMPAVG PRESSURE GPRESSURE VOLUME PRESSAVG GPRESSAVG
ENERGY: 0 3.3190 0.1525 0.0000 0.0000 -10621.8655 1409.8200 0.0000 0.0000 1777.5611 -7431.0129 303.7899 -9208.5740 -7431.0129 303.7899 -43.1274 29.8360 30243.8064 -43.1274 29.8360
ENERGY: 300000 1.1121 4.0491 0.0000 0.0000 -10741.0540 1483.3049 0.0000 0.0000 1719.6580 -7532.9300 293.8941 -9252.5880 -7464.3786 300.3564 384.6954 437.2601 30129.4799 47.4431 85.1759
ENERGY: 600000 1.2663 0.1908 0.0000 0.0000 -10565.4851 1387.6641 0.0000 0.0000 1733.7558 -7442.6081 296.3035 -9176.3639 -7495.7229 298.0934 -437.5237 -346.7027 30712.3921 -108.8814 -59.9159
ENERGY: 900000 1.1896 1.1492 0.0000 0.0000 -10709.4307 1429.6231 0.0000 0.0000 1757.5116 -7519.9572 300.3634 -9277.4688 -7493.2621 299.7565 -282.6264 -222.3816 30371.5103 -43.7632 7.3471
ENERGY: 1200000 1.4500 4.0727 0.0000 0.0000 -10643.5542 1410.3658 0.0000 0.0000 1674.4779 -7553.1878 286.1727 -9227.6657 -7486.7327 299.7680 -630.6982 -555.0630 31139.2414 -115.7600 -61.4833
ENERGY: 1500000 0.2066 3.8578 0.0000 0.0000 -10635.2036 1442.7981 0.0000 0.0000 1776.9411 -7411.4000 303.6840 -9188.3411 -7481.2123 300.7575 216.1751 244.6512 30406.0933 -73.3530 -23.4028
TCL: Running FEP window  12: Lambda1 0.4499999999999996 Lambda2 0.39999999999999963 [dLambda -0.04999999999999999]
TCL: Setting parameter firsttimestep to 0
TCL: Setting parameter alchLambda to 0.4499999999999996
Info: NONBONDED TABLE R-SQUARED SPACING: 0.0625
Info: NONBONDED TABLE SIZE: 705 POINTS
TCL: Setting parameter alchLambda2 to 0.39999999999999963
Info: NONBONDED TABLE R-SQUARED SPACING: 0.0625
Info: NONBONDED TABLE SIZE: 705 POINTS
TCL: Running for 1500000 steps
ETITLE: TS BOND ANGLE DIHED IMPRP ELECT VDW BOUNDARY MISC KINETIC TOTAL TEMP POTENTIAL TOTALAVG TEMPAVG PRESSURE GPRESSURE VOLUME PRESSAVG GPRESSAVG
ENERGY: 0 0.2066 3.8578 0.0000 0.0000 -10635.2027 1443.0973 0.0000 0.0000 1776.0716 -7411.9693 303.5354 -9188.0409 -7411.9693 303.5354 149.2434 241.6705 30406.0933 149.2434 241.6705
ENERGY: 300000 0.9138 1.2135 0.0000 0.0000 -10718.0017 1428.2714 0.0000 0.0000 1716.9634 -7570.6396 293.4336 -9287.6031 -7510.7958 298.3415 -101.4162 -54.7888 29990.5715 0.7812 79.7693
ENERGY: 600000 0.5436 1.2041 0.0000 0.0000 -10845.0894 1525.8372 0.0000 0.0000 1742.3547 -7575.1498 297.7731 -9317.5044 -7499.0429 300.3162 756.3457 769.3298 29865.7096 127.6709 197.8195
ENERGY: 900000 3.9867 2.7238 0.0000 0.0000 -10625.8532 1367.0190 0.0000 0.0000 1726.0057 -7526.1181 294.9790 -9252.1237 -7493.1915 300.7440 -823.8539 -736.7685 30449.5492 74.7049 144.3002
ENERGY: 1200000 1.0068 3.2818 0.0000 0.0000 -10558.5800 1389.6959 0.0000 0.0000 1786.3408 -7378.2546 305.2904 -9164.5954 -7490.0455 300.9009 -246.9200 -132.8148 30390.9309 106.8446 180.0589
ENERGY: 1500000 2.4835 0.7273 0.0000 0.0000 -10582.6500 1350.7312 0.0000 0.0000 1726.4894 -7502.2187 295.0616 -9228.7081 -7498.5025 300.0882 -497.1237 -421.3426 30386.8074 160.0474 233.5546
TCL: Running FEP window  13: Lambda1 0.39999999999999963 Lambda2 0.34999999999999964 [dLambda -0.04999999999999999]
TCL: Setting parameter firsttimestep to 0
TCL: Setting parameter alchLambda to 0.39999999999999963
Info: NONBONDED TABLE R-SQUARED SPACING: 0.0625
Info: NONBONDED TABLE SIZE: 705 POINTS
TCL: Setting parameter alchLambda2 to 0.34999999999999964
Info: NONBONDED TABLE R-SQUARED SPACING: 0.0625
Info: NONBONDED TABLE SIZE: 705 POINTS
TCL: Running for 1500000 steps
ETITLE: TS BOND ANGLE DIHED IMPRP ELECT VDW BOUNDARY MISC KINETIC TOTAL TEMP POTENTIAL TOTALAVG TEMPAVG PRESSURE GPRESSURE VOLUME PRESSAVG GPRESSAVG
ENERGY: 0 2.4835 0.7273 0.0000 0.0000 -10582.6494 1350.8826 0.0000 0.0000 1725.6096 -7502.9464 294.9113 -9228.5560 -7502.9464 294.9113 -516.7259 -426.4352 30386.8074 -516.7259 -426.4352
ENERGY: 300000 0.8383 1.1565 0.0000 0.0000 -10667.2372 1421.5271 0.0000 0.0000 1753.4951 -7490.2202 299.6770 -9243.7152 -7461.8514 298.5380 -76.2655 -30.9307 30558.8284 -322.4225 -262.8740
ENERGY: 600000 1.8541 1.0428 0.0000 0.0000 -10665.1201 1419.5536 0.0000 0.0000 1803.5598 -7439.1097 308.2332 -9242.6695 -7471.6482 301.0807 69.7288 107.2798 30265.4040 -149.1918 -92.0528
ENERGY: 900000 0.2007 1.1424 0.0000 0.0000 -10827.0932 1516.9617 0.0000 0.0000 1760.0326 -7548.7559 300.7943 -9308.7884 -7487.9928 300.8269 345.3619 350.4360 30396.2722 -107.0444 -61.9674
ENERGY: 1200000 0.6328 0.8304 0.0000 0.0000 -10676.7260 1404.2583 0.0000 0.0000 1771.6859 -7499.3185 302.7858 -9271.0045 -7487.7832 300.8755 -162.0088 -156.9853 30017.8483 -40.4818 4.4477
ENERGY: 1500000 0.5090 1.2476 0.0000 0.0000 -10632.2556 1396.5113 0.0000 0.0000 1681.9784 -7552.0092 287.4546 -9233.9876 -7499.9778 300.3604 -278.7989 -232.6758 30300.8868 -21.1808 26.7554
TCL: Running FEP window  14: Lambda1 0.34999999999999964 Lambda2 0.29999999999999966 [dLambda -0.04999999999999999]
TCL: Setting parameter firsttimestep to 0
TCL: Setting parameter alchLambda to 0.34999999999999964
Info: NONBONDED TABLE R-SQUARED SPACING: 0.0625
Info: NONBONDED TABLE SIZE: 705 POINTS
TCL: Setting parameter alchLambda2 to 0.29999999999999966
Info: NONBONDED TABLE R-SQUARED SPACING: 0.0625
Info: NONBONDED TABLE SIZE: 705 POINTS
TCL: Running for 1500000 steps
ETITLE: TS BOND ANGLE DIHED IMPRP ELECT VDW BOUNDARY MISC KINETIC TOTAL TEMP POTENTIAL TOTALAVG TEMPAVG PRESSURE GPRESSURE VOLUME PRESSAVG GPRESSAVG
ENERGY: 0 0.5090 1.2476 0.0000 0.0000 -10632.2541 1396.8869 0.0000 0.0000 1681.1238 -7552.4868 287.3085 -9233.6106 -7552.4868 287.3085 -313.0599 -233.4341 30300.8868 -313.0599 -233.4341
ENERGY: 300000 1.6920 0.4885 0.0000 0.0000 -10748.4221 1465.0761 0.0000 0.0000 1883.8876 -7397.2778 321.9614 -9281.1654 -7461.4529 301.6281 63.7965 145.8834 30651.4269 -106.3092 -44.7207
ENERGY: 600000 1.5604 0.7175 0.0000 0.0000 -10663.5595 1447.0708 0.0000 0.0000 1736.0041 -7478.2068 296.6877 -9214.2109 -7457.1783 302.1629 108.7660 187.9580 30313.6484 -163.8987 -111.9189
ENERGY: 900000 0.5022 0.7299 0.0000 0.0000 -10543.4567 1371.6021 0.0000 0.0000 1714.8725 -7455.7500 293.0763 -9170.6225 -7470.8689 300.2353 -491.2509 -340.2805 30561.6664 -90.9896 -22.5719
ENERGY: 1200000 1.2549 1.3299 0.0000 0.0000 -10537.7216 1298.7511 0.0000 0.0000 1693.5448 -7542.8409 289.4313 -9236.3857 -7483.2674 299.3140 -1351.1041 -1240.3739 30892.8833 -283.0390 -212.6607
ENERGY: 1500000 2.1674 2.3909 0.0000 0.0000 -10718.1709 1443.7887 0.0000 0.0000 1744.8637 -7524.9602 298.2019 -9269.8239 -7488.0289 299.2682 -189.4984 -133.0913 30554.2764 -290.1143 -217.7541
TCL: Running FEP window  15: Lambda1 0.29999999999999966 Lambda2 0.24999999999999967 [dLambda -0.04999999999999999]
TCL: Setting parameter firsttimestep to 0
TCL: Setting parameter alchLambda to 0.29999999999999966
Info: NONBONDED TABLE R-SQUARED SPACING: 0.0625
Info: NONBONDED TABLE SIZE: 705 POINTS
TCL: Setting parameter alchLambda2 to 0.24999999999999967
Info: NONBONDED TABLE R-SQUARED SPACING: 0.0625
Info: NONBONDED TABLE SIZE: 705 POINTS
TCL: Running for 1500000 steps
ETITLE: TS BOND ANGLE DIHED IMPRP ELECT VDW BOUNDARY MISC KINETIC TOTAL TEMP POTENTIAL TOTALAVG TEMPAVG PRESSURE GPRESSURE VOLUME PRESSAVG GPRESSAVG
ENERGY: 0 2.1674 2.3909 0.0000 0.0000 -10718.1710 1443.0591 0.0000 0.0000 1743.9830 -7526.5706 298.0513 -9270.5536 -7526.5706 298.0513 -221.9436 -141.3936 30554.2764 -221.9436 -141.3936
ENERGY: 300000 0.6593 0.9651 0.0000 0.0000 -10670.9152 1455.4119 0.0000 0.0000 1789.3047 -7424.5742 305.7969 -9213.8789 -7501.2898 298.6797 204.7997 286.6001 30354.1751 -160.8000 -76.8998
ENERGY: 600000 2.1163 0.4753 0.0000 0.0000 -10616.8189 1372.1220 0.0000 0.0000 1775.1998 -7466.9054 303.3864 -9242.1052 -7493.2117 300.6143 -458.4209 -396.8656 30246.5408 -178.9696 -111.8113
ENERGY: 900000 0.9279 1.7857 0.0000 0.0000 -10547.4247 1304.0717 0.0000 0.0000 1767.0367 -7473.6027 301.9913 -9240.6394 -7470.4227 302.0991 -1026.4416 -1074.0751 30660.2637 -307.8964 -259.8379
ENERGY: 1200000 0.8804 2.1020 0.0000 0.0000 -10737.8061 1516.7251 0.0000 0.0000 1715.4717 -7502.6270 293.1787 -9218.0986 -7468.7842 301.7981 989.5932 997.7002 29807.3006 -270.1887 -228.9005
ENERGY: 1500000 3.6312 0.9210 0.0000 0.0000 -10726.3699 1445.5490 0.0000 0.0000 1773.7898 -7502.4789 303.1454 -9276.2686 -7482.3154 301.8083 -428.1602 -318.6927 30607.9768 -251.9410 -202.1405
TCL: Running FEP window  16: Lambda1 0.24999999999999967 Lambda2 0.19999999999999968 [dLambda -0.04999999999999999]
TCL: Setting parameter firsttimestep to 0
TCL: Setting parameter alchLambda to 0.24999999999999967
Info: NONBONDED TABLE R-SQUARED SPACING: 0.0625
Info: NONBONDED TABLE SIZE: 705 POINTS
TCL: Setting parameter alchLambda2 to 0.19999999999999968
Info: NONBONDED TABLE R-SQUARED SPACING: 0.0625
Info: NONBONDED TABLE SIZE: 705 POINTS
TCL: Running for 1500000 steps
ETITLE: TS BOND ANGLE DIHED IMPRP ELECT VDW BOUNDARY MISC KINETIC TOTAL TEMP POTENTIAL TOTALAVG TEMPAVG PRESSURE GPRESSURE VOLUME PRESSAVG GPRESSAVG
ENERGY: 0 3.6312 0.9210 0.0000 0.0000 -10726.3706 1445.7725 0.0000 0.0000 1772.9060 -7503.1398 302.9944 -9276.0458 -7503.1398 302.9944 -398.9878 -321.1812 30607.9768 -398.9878 -321.1812
ENERGY: 300000 2.0719 2.1132 0.0000 0.0000 -10858.9203 1525.4645 0.0000 0.0000 1741.1901 -7588.0804 297.5740 -9329.2706 -7499.7657 300.8911 380.6171 464.5887 30351.9558 170.6771 224.4512
ENERGY: 600000 2.6195 1.0620 0.0000 0.0000 -10599.9365 1400.2078 0.0000 0.0000 1746.7630 -7449.2842 298.5265 -9196.0472 -7490.1014 300.7273 -503.3752 -471.9631 31013.8628 -55.6836 2.7147
ENERGY: 900000 0.5378 2.2474 0.0000 0.0000 -10703.8859 1472.3395 0.0000 0.0000 1770.2970 -7458.4643 302.5485 -9228.7612 -7489.2683 299.7852 333.2394 436.8392 30122.1967 11.7214 82.4424
ENERGY: 1200000 1.5855 1.4655 0.0000 0.0000 -10790.1732 1527.7536 0.0000 0.0000 1732.8957 -7526.4729 296.1565 -9259.3686 -7489.8763 299.8370 784.8047 810.4563 29987.5220 135.4430 192.8593
ENERGY: 1500000 1.0821 0.9755 0.0000 0.0000 -10600.9014 1350.7096 0.0000 0.0000 1810.6892 -7437.4450 309.4516 -9248.1342 -7489.3303 300.6629 -714.3672 -700.9241 30427.8978 41.3330 91.6375
TCL: Running FEP window  17: Lambda1 0.19999999999999968 Lambda2 0.1499999999999997 [dLambda -0.04999999999999999]
TCL: Setting parameter firsttimestep to 0
TCL: Setting parameter alchLambda to 0.19999999999999968
Info: NONBONDED TABLE R-SQUARED SPACING: 0.0625
Info: NONBONDED TABLE SIZE: 705 POINTS
TCL: Setting parameter alchLambda2 to 0.1499999999999997
Info: NONBONDED TABLE R-SQUARED SPACING: 0.0625
Info: NONBONDED TABLE SIZE: 705 POINTS
TCL: Running for 1500000 steps
ETITLE: TS BOND ANGLE DIHED IMPRP ELECT VDW BOUNDARY MISC KINETIC TOTAL TEMP POTENTIAL TOTALAVG TEMPAVG PRESSURE GPRESSURE VOLUME PRESSAVG GPRESSAVG
ENERGY: 0 1.0821 0.9755 0.0000 0.0000 -10600.9005 1351.0190 0.0000 0.0000 1809.7976 -7438.0262 309.2992 -9247.8239 -7438.0262 309.2992 -789.2925 -703.4690 30427.8978 -789.2925 -703.4690
ENERGY: 300000 0.9913 0.8927 0.0000 0.0000 -10736.0789 1386.6890 0.0000 0.0000 1778.3506 -7569.1554 303.9248 -9347.5059 -7489.6680 305.8238 -930.9278 -858.5722 30510.1839 -367.7785 -282.5825
ENERGY: 600000 1.0274 2.6045 0.0000 0.0000 -10573.8088 1370.3425 0.0000 0.0000 1719.1184 -7480.7160 293.8019 -9199.8344 -7494.5875 300.5427 -567.5116 -577.3879 30633.2391 -183.6184 -125.4746
ENERGY: 900000 1.3797 3.4151 0.0000 0.0000 -10671.2782 1443.5358 0.0000 0.0000 1780.3683 -7442.5793 304.2697 -9222.9475 -7482.4027 300.5827 -23.9863 34.5246 30486.5392 -81.6960 -32.7959
ENERGY: 1200000 0.5253 1.1672 0.0000 0.0000 -10694.8532 1423.3183 0.0000 0.0000 1816.2872 -7453.5552 310.4083 -9269.8423 -7484.3534 300.4255 -293.3478 -202.7140 30446.8641 -98.0772 -42.7215
ENERGY: 1500000 0.6007 3.0773 0.0000 0.0000 -10632.4108 1424.5085 0.0000 0.0000 1753.3977 -7450.8267 299.6603 -9204.2243 -7481.6293 300.8990 91.4123 156.9981 30138.1105 24.3623 83.7244
TCL: Running FEP window  18: Lambda1 0.1499999999999997 Lambda2 0.09999999999999969 [dLambda -0.05 ]
TCL: Setting parameter firsttimestep to 0
TCL: Setting parameter alchLambda to 0.1499999999999997
Info: NONBONDED TABLE R-SQUARED SPACING: 0.0625
Info: NONBONDED TABLE SIZE: 705 POINTS
TCL: Setting parameter alchLambda2 to 0.09999999999999969
Info: NONBONDED TABLE R-SQUARED SPACING: 0.0625
Info: NONBONDED TABLE SIZE: 705 POINTS
TCL: Running for 1500000 steps
ETITLE: TS BOND ANGLE DIHED IMPRP ELECT VDW BOUNDARY MISC KINETIC TOTAL TEMP POTENTIAL TOTALAVG TEMPAVG PRESSURE GPRESSURE VOLUME PRESSAVG GPRESSAVG
ENERGY: 0 0.6007 3.0773 0.0000 0.0000 -10632.4096 1424.7997 0.0000 0.0000 1752.5147 -7451.4173 299.5094 -9203.9319 -7451.4173 299.5094 75.2272 156.2031 30138.1105 75.2272 156.2031
ENERGY: 300000 1.1387 0.9518 0.0000 0.0000 -10721.6892 1460.9255 0.0000 0.0000 1808.9616 -7449.7116 309.1564 -9258.6732 -7462.8450 302.1691 240.1425 293.2785 30130.9637 49.1621 115.0842
ENERGY: 600000 1.5781 0.6732 0.0000 0.0000 -10490.7134 1294.1741 0.0000 0.0000 1824.0793 -7370.2087 311.7400 -9194.2880 -7478.5042 301.3292 -916.5932 -957.3827 30696.9442 -149.0218 -83.9041
ENERGY: 900000 3.2825 0.7692 0.0000 0.0000 -10753.3883 1458.7318 0.0000 0.0000 1742.0864 -7548.5186 297.7272 -9290.6049 -7485.8131 301.1784 166.9852 171.4496 29796.3840 -18.7566 39.1367
ENERGY: 1200000 0.2296 0.6412 0.0000 0.0000 -10702.7361 1452.2019 0.0000 0.0000 1749.8053 -7499.8581 299.0464 -9249.6635 -7475.5169 301.7448 446.3390 464.6825 29838.3973 31.0418 82.7206
ENERGY: 1500000 0.1802 2.0505 0.0000 0.0000 -10733.6293 1455.9317 0.0000 0.0000 1758.1009 -7517.3660 300.4641 -9275.4669 -7480.4894 301.7155 246.3494 290.0492 29679.5595 -36.5826 18.2535
TCL: Running FEP window  19: Lambda1 0.09999999999999969 Lambda2 0.049999999999999684 [dLambda -0.05 ]
TCL: Setting parameter firsttimestep to 0
TCL: Setting parameter alchLambda to 0.09999999999999969
Info: NONBONDED TABLE R-SQUARED SPACING: 0.0625
Info: NONBONDED TABLE SIZE: 705 POINTS
TCL: Setting parameter alchLambda2 to 0.049999999999999684
Info: NONBONDED TABLE R-SQUARED SPACING: 0.0625
Info: NONBONDED TABLE SIZE: 705 POINTS
TCL: Running for 1500000 steps
ETITLE: TS BOND ANGLE DIHED IMPRP ELECT VDW BOUNDARY MISC KINETIC TOTAL TEMP POTENTIAL TOTALAVG TEMPAVG PRESSURE GPRESSURE VOLUME PRESSAVG GPRESSAVG
ENERGY: 0 0.1802 2.0505 0.0000 0.0000 -10733.6292 1455.1652 0.0000 0.0000 1757.2154 -7519.0178 300.3128 -9276.2332 -7519.0178 300.3128 214.7337 283.7570 29679.5595 214.7337 283.7570
ENERGY: 300000 0.8586 2.5505 0.0000 0.0000 -10620.0942 1445.5398 0.0000 0.0000 1752.8370 -7418.3084 299.5645 -9171.1454 -7502.4799 300.3886 308.1712 365.1283 30177.9143 313.0932 351.3175
ENERGY: 600000 1.4041 1.5508 0.0000 0.0000 -10746.2525 1444.5431 0.0000 0.0000 1774.8462 -7523.9082 303.3259 -9298.7544 -7496.7302 300.5518 -38.6605 101.1426 30030.4933 324.8611 390.3944
ENERGY: 900000 0.7273 1.9837 0.0000 0.0000 -10687.3694 1398.8922 0.0000 0.0000 1772.5920 -7513.1742 302.9407 -9285.7662 -7496.6303 301.4702 -387.6344 -368.0445 30118.9403 99.8011 161.1179
ENERGY: 1200000 1.1815 2.2995 0.0000 0.0000 -10633.5979 1408.9202 0.0000 0.0000 1746.2019 -7474.9947 298.4306 -9221.1966 -7481.7473 300.9074 -73.9954 39.2587 29883.4123 -4.6152 67.3394
ENERGY: 1500000 0.4236 1.6413 0.0000 0.0000 -10571.3721 1354.4325 0.0000 0.0000 1692.9767 -7521.8980 289.3342 -9214.8747 -7483.0336 300.0424 -1015.7461 -911.3528 31186.2334 -114.2836 -40.0227
TCL: Running FEP window  20: Lambda1 0.049999999999999684 Lambda2 0.0    [dLambda -0.049999999999999684]
TCL: Setting parameter firsttimestep to 0
TCL: Setting parameter alchLambda to 0.049999999999999684
Info: NONBONDED TABLE R-SQUARED SPACING: 0.0625
Info: NONBONDED TABLE SIZE: 705 POINTS
TCL: Setting parameter alchLambda2 to 0.0
Info: NONBONDED TABLE R-SQUARED SPACING: 0.0625
Info: NONBONDED TABLE SIZE: 705 POINTS
TCL: Running for 1500000 steps
ETITLE: TS BOND ANGLE DIHED IMPRP ELECT VDW BOUNDARY MISC KINETIC TOTAL TEMP POTENTIAL TOTALAVG TEMPAVG PRESSURE GPRESSURE VOLUME PRESSAVG GPRESSAVG
ENERGY: 0 0.4236 1.6413 0.0000 0.0000 -10571.3727 1354.5063 0.0000 0.0000 1692.1026 -7522.6989 289.1848 -9214.8015 -7522.6989 289.1848 -994.8410 -914.2958 31186.2334 -994.8410 -914.2958
ENERGY: 300000 2.2949 1.2102 0.0000 0.0000 -10564.2440 1340.7901 0.0000 0.0000 1720.4428 -7499.5060 294.0283 -9219.9488 -7485.2809 294.6206 -830.9569 -781.9597 30533.7250 -476.0394 -403.4007
ENERGY: 600000 0.6008 1.4724 0.0000 0.0000 -10877.0307 1613.8810 0.0000 0.0000 1729.3872 -7531.6893 295.5569 -9261.0766 -7510.0901 295.1464 1280.4841 1337.9493 30285.6431 -40.9096 29.7339
ENERGY: 900000 0.8861 1.9659 0.0000 0.0000 -10743.9095 1481.6383 0.0000 0.0000 1778.0068 -7481.4124 303.8661 -9259.4192 -7508.4806 297.2029 505.9146 527.7703 29828.1807 -25.8329 30.1766
ENERGY: 1200000 0.3199 0.8591 0.0000 0.0000 -10787.0300 1414.4777 0.0000 0.0000 1701.3496 -7670.0237 290.7652 -9371.3733 -7519.0638 297.6325 -770.9593 -703.6294 30431.2017 -50.2018 11.3676
ENERGY: 1500000 1.0158 0.6950 0.0000 0.0000 -10776.7534 1471.2089 0.0000 0.0000 1785.4905 -7518.3434 305.1451 -9303.8338 -7514.8014 297.9111 -97.7721 -2.1913 30473.8646 -93.6959 -25.8564
TCL: Exiting due to exit command.
