Info: SIMULATION PARAMETERS:
Info: TIMESTEP               2
Info: NUMBER OF STEPS        0
Info: STEPS PER CYCLE        10
Info: PERIODIC CELL BASIS 1  34.207 0 0
Info: PERIODIC CELL BASIS 2  0 37.796 0
Info: PERIODIC CELL BASIS 3  0 0 34.933
Info: PERIODIC CELL CENTER   0 0 0
Info: WRAPPING WATERS AROUND PERIODIC BOUNDARIES ON OUTPUT.
Info: WRAPPING ALL CLUSTERS AROUND PERIODIC BOUNDARIES ON OUTPUT.
Info: FIRST LDB TIMESTEP     50
Info: LAST LDB TIMESTEP     -1
Info: HOM BACKGROUND SCALING 1
Info: PME BACKGROUND SCALING 1
Info: MIN ATOMS PER PATCH    40
Info: EMPTY PATCH LOAD       40 ATOMS
Info: INITIAL TEMPERATURE    300
Info: CENTER OF MASS MOVING INITIALLY? NO
Info: DIELECTRIC             1
Info: EXCLUDE                SCALED ONE-FOUR
Info: 1-4 ELECTROSTATICS SCALED BY 0.833333
Info: MODIFIED 1-4 VDW PARAMETERS WILL BE USED
Info: DCD FILENAME           mobley_3060426_equil.dcd
Info: DCD FREQUENCY          100000
Info: DCD FIRST STEP         100000
Info: DCD FILE WILL CONTAIN UNIT CELL DATA
Info: XST FILENAME           mobley_3060426_equil.xst
Info: XST FREQUENCY          100000
Info: NO VELOCITY DCD OUTPUT
Info: NO FORCE DCD OUTPUT
Info: OUTPUT FILENAME        mobley_3060426_equil
Info: BINARY OUTPUT FILES WILL BE USED
Info: RESTART FILENAME       mobley_3060426_equil.restart
Info: RESTART FREQUENCY      100000
Info: BINARY RESTART FILES WILL BE USED
Info: CUTOFF                 9
Info: PAIRLIST DISTANCE      11
Info: PAIRLIST SHRINK RATE   0.01
Info: PAIRLIST GROW RATE     0.01
Info: PAIRLIST TRIGGER       0.3
Info: PAIRLISTS PER CYCLE    2
Info: PAIRLISTS ENABLED
Info: MARGIN                 8
Info: HYDROGEN GROUP CUTOFF  2.5
Info: PATCH DIMENSION        21.5
Info: ENERGY OUTPUT STEPS    100000
Info: ENERGY EVALUATION STEPS    100000
Info: OUTPUT ENERGY PRECISION 4
Info: CROSSTERM ENERGY INCLUDED IN DIHEDRAL
Info: TIMING OUTPUT STEPS    1000000
Info: PRESSURE OUTPUT STEPS  100000
Info: LANGEVIN DYNAMICS ACTIVE
Info: LANGEVIN TEMPERATURE   30
Info: LANGEVIN USING BBK INTEGRATOR
Info: LANGEVIN DAMPING COEFFICIENT IS 1 INVERSE PS
Info: LANGEVIN DYNAMICS APPLIED TO HYDROGENS
Info: LANGEVIN PISTON PRESSURE CONTROL ACTIVE
Info:        TARGET PRESSURE IS 1.01325 BAR
Info:     OSCILLATION PERIOD IS 50 FS
Info:             DECAY TIME IS 25 FS
Info:     PISTON TEMPERATURE IS 300 K
Info:       PRESSURE CONTROL IS GROUP-BASED
Info:    INITIAL STRAIN RATE IS 0 0 0
Info:       CELL FLUCTUATION IS ISOTROPIC
Info: PARTICLE MESH EWALD (PME) ACTIVE
Info: PME TOLERANCE               1e-06
Info: PME EWALD COEFFICIENT       0.348832
Info: PME INTERPOLATION ORDER     4
Info: PME GRID DIMENSIONS         36 40 36
Info: PME MAXIMUM GRID SPACING    1
Info: FULL ELECTROSTATIC EVALUATION FREQUENCY      2
Info: USING VERLET I (r-RESPA) MTS SCHEME.
Info: C1 SPLITTING OF LONG RANGE ELECTROSTATICS
Info: PLACING ATOMS IN PATCHES BY HYDROGEN GROUPS
Info: RIGID BONDS TO HYDROGEN : ALL
Info:         ERROR TOLERANCE : 1e-08
Info:          MAX ITERATIONS : 100
Info: RIGID WATER USING SETTLE ALGORITHM
Info: RANDOM NUMBER SEED     1743247250
Info: USE HYDROGEN BONDS?    NO
Info: Using AMBER format force field!
Info: AMBER PARM FILE        mobley_3060426.prmtop
Info: COORDINATE PDB         mobley_3060426.pdb
Info: Exclusions will be read from PARM file!
Info: SCNB (VDW SCALING)     2
Info: USING ARITHMETIC MEAN TO COMBINE L-J SIGMA PARAMETERS
Info: BINARY COORDINATES     mobley_3060426_min.coor
Info: SUMMARY OF PARAMETERS:
Info: 4 BONDS
Info: 3 ANGLES
Info:   3 HARMONIC
Info:   0 COSINE-BASED
Info: 5 DIHEDRAL
Info: 0 IMPROPER
Info: 0 CROSSTERM
Info: 0 VDW
Info: 10 VDW_PAIRS
Info: 0 NBTHOLE_PAIRS
Info: STRUCTURE SUMMARY:
Info: 2957 ATOMS
Info: 2956 BONDS
Info: 54 ANGLES
Info: 84 DIHEDRALS
Info: 0 IMPROPERS
Info: 0 CROSSTERMS
Info: 3082 EXCLUSIONS
Info: 2948 RIGID BONDS
Info: 5923 DEGREES OF FREEDOM
Info: 985 HYDROGEN GROUPS
Info: 4 ATOMS IN LARGEST HYDROGEN GROUP
Info: 985 MIGRATION GROUPS
Info: 4 ATOMS IN LARGEST MIGRATION GROUP
Info: TOTAL MASS = 17711.9 amu
Info: TOTAL CHARGE = 0.00029999 e
Info: MASS DENSITY = 0.651219 g/cm^3
Info: ATOM DENSITY = 0.0654718 atoms/A^3
Info: ADDED 0 IMPLICIT EXCLUSIONS
Info: NONBONDED TABLE R-SQUARED SPACING: 0.0625
Info: NONBONDED TABLE SIZE: 705 POINTS
Info: REMOVING COM VELOCITY 0.0228742 0.0455762 -0.184177
TCL: Running for 100000 steps
ETITLE: TS BOND ANGLE DIHED IMPRP ELECT VDW BOUNDARY MISC KINETIC TOTAL TEMP POTENTIAL TOTAL3 TEMPAVG PRESSURE GPRESSURE VOLUME PRESSAVG GPRESSAVG
ENERGY: 0 0.5490 2.0325 3.0944 0.0000 -13634.7391 2422.8130 0.0000 0.0000 1789.1533 -9417.0970 304.0158 -11206.2503 -9416.7128 304.0158 508.1900 544.9719 45164.4485 508.1900 544.9719
ENERGY: 100000 0.7652 4.2252 3.2526 0.0000 -14135.5796 2431.3220 0.0000 0.0000 180.2838 -11515.7308 30.6341 -11696.0145 -11515.1755 30.9412 -433.3465 -354.8474 29163.1635 4.2885 4.3194
TCL: Running 100000 steps at 60 kelvin.
TCL: Setting parameter langevinTemp to 60
TCL: Running for 100000 steps
ETITLE: TS BOND ANGLE DIHED IMPRP ELECT VDW BOUNDARY MISC KINETIC TOTAL TEMP POTENTIAL TOTAL3 TEMPAVG PRESSURE GPRESSURE VOLUME PRESSAVG GPRESSAVG
ENERGY: 100000 0.7652 4.2252 3.2526 0.0000 -14135.5796 2431.3220 0.0000 0.0000 180.1959 -11515.8187 30.6192 -11696.0145 -11515.3528 30.6192 -416.7035 -354.8424 29163.1635 -416.7035 -354.8424
ENERGY: 200000 0.4941 4.4788 3.6848 0.0000 -14050.0164 2390.9158 0.0000 0.0000 346.6289 -11303.8141 58.8997 -11650.4430 -11302.5611 59.9564 -484.9587 -421.3870 29143.9765 4.3918 4.3365
TCL: Running 100000 steps at 90 kelvin.
TCL: Setting parameter langevinTemp to 90
TCL: Running for 100000 steps
ETITLE: TS BOND ANGLE DIHED IMPRP ELECT VDW BOUNDARY MISC KINETIC TOTAL TEMP POTENTIAL TOTAL3 TEMPAVG PRESSURE GPRESSURE VOLUME PRESSAVG GPRESSAVG
ENERGY: 200000 0.4941 4.4788 3.6848 0.0000 -14050.0164 2390.9158 0.0000 0.0000 346.4470 -11303.9960 58.8688 -11650.4430 -11303.2234 58.8688 -473.6123 -421.0011 29143.9765 -473.6123 -421.0011
ENERGY: 300000 1.3016 4.7400 3.8402 0.0000 -13946.7381 2364.9317 0.0000 0.0000 548.6539 -11023.2707 93.2282 -11571.9245 -11021.9056 89.9423 -377.6661 -342.9422 28821.9770 3.5370 3.6067
TCL: Running 100000 steps at 120 kelvin.
TCL: Setting parameter langevinTemp to 120
TCL: Running for 100000 steps
ETITLE: TS BOND ANGLE DIHED IMPRP ELECT VDW BOUNDARY MISC KINETIC TOTAL TEMP POTENTIAL TOTAL3 TEMPAVG PRESSURE GPRESSURE VOLUME PRESSAVG GPRESSAVG
ENERGY: 300000 1.3016 4.7400 3.8402 0.0000 -13946.7381 2364.9317 0.0000 0.0000 548.3873 -11023.5373 93.1829 -11571.9246 -11022.3645 93.1829 -382.0139 -343.0413 28821.9770 -382.0139 -343.0413
ENERGY: 400000 2.8782 4.4532 3.3223 0.0000 -13730.2392 2295.7133 0.0000 0.0000 714.2630 -10709.6092 121.3687 -11423.8722 -10708.0649 120.0524 -330.3316 -249.9634 28684.9385 3.9190 3.7726
TCL: Running 100000 steps at 150 kelvin.
TCL: Setting parameter langevinTemp to 150
TCL: Running for 100000 steps
ETITLE: TS BOND ANGLE DIHED IMPRP ELECT VDW BOUNDARY MISC KINETIC TOTAL TEMP POTENTIAL TOTAL3 TEMPAVG PRESSURE GPRESSURE VOLUME PRESSAVG GPRESSAVG
ENERGY: 400000 2.8782 4.4532 3.3223 0.0000 -13730.2392 2295.7133 0.0000 0.0000 713.9108 -10709.9614 121.3089 -11423.8722 -10708.6238 121.3089 -303.7123 -250.0612 28684.9385 -303.7123 -250.0612
ENERGY: 500000 0.8339 8.1415 5.0200 0.0000 -13583.8050 2363.4183 0.0000 0.0000 894.5417 -10311.8495 152.0020 -11206.3913 -10310.5972 149.9563 945.0615 1052.1988 28868.9022 3.4453 3.3419
TCL: Running 100000 steps at 180 kelvin.
TCL: Setting parameter langevinTemp to 180
TCL: Running for 100000 steps
ETITLE: TS BOND ANGLE DIHED IMPRP ELECT VDW BOUNDARY MISC KINETIC TOTAL TEMP POTENTIAL TOTAL3 TEMPAVG PRESSURE GPRESSURE VOLUME PRESSAVG GPRESSAVG
ENERGY: 500000 0.8339 8.1415 5.0200 0.0000 -13583.8050 2363.4183 0.0000 0.0000 894.1154 -10312.2759 151.9295 -11206.3913 -10310.7573 151.9295 995.4788 1051.2360 28868.9022 995.4788 1051.2360
ENERGY: 600000 1.7103 8.2770 3.6087 0.0000 -13182.2490 2172.7501 0.0000 0.0000 1074.0665 -9921.8365 182.5071 -10995.9030 -9918.2415 180.0910 230.5983 348.2646 28704.3132 3.9403 3.9406
TCL: Running 100000 steps at 210 kelvin.
TCL: Setting parameter langevinTemp to 210
TCL: Running for 100000 steps
ETITLE: TS BOND ANGLE DIHED IMPRP ELECT VDW BOUNDARY MISC KINETIC TOTAL TEMP POTENTIAL TOTAL3 TEMPAVG PRESSURE GPRESSURE VOLUME PRESSAVG GPRESSAVG
ENERGY: 600000 1.7103 8.2770 3.6087 0.0000 -13182.2490 2172.7501 0.0000 0.0000 1073.5423 -9922.3607 182.4180 -10995.9030 -9920.0639 182.4180 280.0261 348.2544 28704.3132 280.0261 348.2544
ENERGY: 700000 1.2878 11.8428 4.6230 0.0000 -12374.3721 1920.4681 0.0000 0.0000 1190.9603 -9245.1901 202.3699 -10436.1504 -9242.3516 210.0362 484.4214 547.5533 28580.9740 3.2161 3.1625
TCL: Running 100000 steps at 240 kelvin.
TCL: Setting parameter langevinTemp to 240
TCL: Running for 100000 steps
ETITLE: TS BOND ANGLE DIHED IMPRP ELECT VDW BOUNDARY MISC KINETIC TOTAL TEMP POTENTIAL TOTAL3 TEMPAVG PRESSURE GPRESSURE VOLUME PRESSAVG GPRESSAVG
ENERGY: 700000 1.2878 11.8428 4.6230 0.0000 -12374.3721 1920.4681 0.0000 0.0000 1190.3492 -9245.8012 202.2661 -10436.1504 -9243.5014 202.2661 476.8731 546.6874 28580.9740 476.8731 546.6874
ENERGY: 800000 3.0658 10.8712 3.9640 0.0000 -11772.1191 1683.3357 0.0000 0.0000 1410.9063 -8659.9760 239.7435 -10070.8824 -8659.0897 240.3507 -668.0050 -580.1826 29414.9156 3.9162 3.8584
TCL: Running 100000 steps at 270 kelvin.
TCL: Setting parameter langevinTemp to 270
TCL: Running for 100000 steps
ETITLE: TS BOND ANGLE DIHED IMPRP ELECT VDW BOUNDARY MISC KINETIC TOTAL TEMP POTENTIAL TOTAL3 TEMPAVG PRESSURE GPRESSURE VOLUME PRESSAVG GPRESSAVG
ENERGY: 800000 3.0658 10.8712 3.9640 0.0000 -11772.1191 1683.3357 0.0000 0.0000 1410.2096 -8660.6728 239.6251 -10070.8824 -8657.6518 239.6251 -654.3922 -583.2828 29414.9156 -654.3922 -583.2828
ENERGY: 900000 5.2907 12.3092 4.2387 0.0000 -11231.7037 1570.8140 0.0000 0.0000 1521.2124 -8117.8389 258.4869 -9639.0513 -8116.0033 269.5511 -180.8494 -38.8078 29542.0602 3.4537 3.2764
TCL: Running 1000000 steps at 300 kelvin.
TCL: Setting parameter langevinTemp to 300
TCL: Running for 1000000 steps
ETITLE: TS BOND ANGLE DIHED IMPRP ELECT VDW BOUNDARY MISC KINETIC TOTAL TEMP POTENTIAL TOTAL3 TEMPAVG PRESSURE GPRESSURE VOLUME PRESSAVG GPRESSAVG
ENERGY: 900000 5.2907 12.3092 4.2387 0.0000 -11231.7037 1570.8140 0.0000 0.0000 1520.4218 -8118.6295 258.3525 -9639.0513 -8115.9844 258.3525 -132.6960 -38.7623 29542.0602 -132.6960 -38.7623
ENERGY: 1100000 4.9597 15.6328 5.4531 0.0000 -10631.6831 1391.2083 0.0000 0.0000 1754.9451 -7459.4842 298.2031 -9214.4293 -7455.9737 299.4517 -293.5429 -221.6759 30410.9925 3.0666 3.1116
ENERGY: 1300000 2.1656 22.8497 4.9904 0.0000 -10641.5089 1425.3749 0.0000 0.0000 1755.9296 -7430.1987 298.3704 -9186.1283 -7429.4544 300.4807 -2.2626 60.8978 30573.9575 3.8393 3.8374
ENERGY: 1500000 4.6559 16.9668 5.8354 0.0000 -10609.2681 1392.4769 0.0000 0.0000 1776.0062 -7413.3269 301.7819 -9189.3332 -7408.7933 299.9455 -489.6358 -370.4538 30614.8325 4.3315 4.2224
ENERGY: 1700000 4.1864 16.3808 4.4359 0.0000 -10636.8709 1404.3287 0.0000 0.0000 1726.6957 -7480.8433 293.4029 -9207.5391 -7474.8836 299.7399 -369.8261 -292.5328 30418.4572 3.2627 3.5400
ENERGY: 1900000 1.5404 10.4895 7.4326 0.0000 -10787.3931 1576.6059 0.0000 0.0000 1736.6127 -7454.7119 295.0881 -9191.3247 -7454.4940 299.8487 1240.7939 1299.1846 30243.9773 2.3678 2.4653
TCL: Exiting due to exit command.
