Info: SIMULATION PARAMETERS:
Info: TIMESTEP               2
Info: NUMBER OF STEPS        0
Info: STEPS PER CYCLE        10
Info: PERIODIC CELL BASIS 1  35.436 0 0
Info: PERIODIC CELL BASIS 2  0 34.1 0
Info: PERIODIC CELL BASIS 3  0 0 37.195
Info: PERIODIC CELL CENTER   0 0 0
Info: WRAPPING WATERS AROUND PERIODIC BOUNDARIES ON OUTPUT.
Info: WRAPPING ALL CLUSTERS AROUND PERIODIC BOUNDARIES ON OUTPUT.
Info: FIRST LDB TIMESTEP     50
Info: LAST LDB TIMESTEP     -1
Info: HOM BACKGROUND SCALING 1
Info: PME BACKGROUND SCALING 1
Info: MIN ATOMS PER PATCH    40
Info: EMPTY PATCH LOAD       40 ATOMS
Info: INITIAL TEMPERATURE    300
Info: CENTER OF MASS MOVING INITIALLY? NO
Info: DIELECTRIC             1
Info: EXCLUDE                SCALED ONE-FOUR
Info: 1-4 ELECTROSTATICS SCALED BY 0.833333
Info: MODIFIED 1-4 VDW PARAMETERS WILL BE USED
Info: DCD FILENAME           mobley_3775790_equil.dcd
Info: DCD FREQUENCY          100000
Info: DCD FIRST STEP         100000
Info: DCD FILE WILL CONTAIN UNIT CELL DATA
Info: XST FILENAME           mobley_3775790_equil.xst
Info: XST FREQUENCY          100000
Info: NO VELOCITY DCD OUTPUT
Info: NO FORCE DCD OUTPUT
Info: OUTPUT FILENAME        mobley_3775790_equil
Info: BINARY OUTPUT FILES WILL BE USED
Info: RESTART FILENAME       mobley_3775790_equil.restart
Info: RESTART FREQUENCY      100000
Info: BINARY RESTART FILES WILL BE USED
Info: CUTOFF                 9
Info: PAIRLIST DISTANCE      11
Info: PAIRLIST SHRINK RATE   0.01
Info: PAIRLIST GROW RATE     0.01
Info: PAIRLIST TRIGGER       0.3
Info: PAIRLISTS PER CYCLE    2
Info: PAIRLISTS ENABLED
Info: MARGIN                 8
Info: HYDROGEN GROUP CUTOFF  2.5
Info: PATCH DIMENSION        21.5
Info: ENERGY OUTPUT STEPS    100000
Info: ENERGY EVALUATION STEPS    100000
Info: OUTPUT ENERGY PRECISION 4
Info: CROSSTERM ENERGY INCLUDED IN DIHEDRAL
Info: TIMING OUTPUT STEPS    1000000
Info: PRESSURE OUTPUT STEPS  100000
Info: LANGEVIN DYNAMICS ACTIVE
Info: LANGEVIN TEMPERATURE   30
Info: LANGEVIN USING BBK INTEGRATOR
Info: LANGEVIN DAMPING COEFFICIENT IS 1 INVERSE PS
Info: LANGEVIN DYNAMICS APPLIED TO HYDROGENS
Info: LANGEVIN PISTON PRESSURE CONTROL ACTIVE
Info:        TARGET PRESSURE IS 1.01325 BAR
Info:     OSCILLATION PERIOD IS 50 FS
Info:             DECAY TIME IS 25 FS
Info:     PISTON TEMPERATURE IS 300 K
Info:       PRESSURE CONTROL IS GROUP-BASED
Info:    INITIAL STRAIN RATE IS 0 0 0
Info:       CELL FLUCTUATION IS ISOTROPIC
Info: PARTICLE MESH EWALD (PME) ACTIVE
Info: PME TOLERANCE               1e-06
Info: PME EWALD COEFFICIENT       0.348832
Info: PME INTERPOLATION ORDER     4
Info: PME GRID DIMENSIONS         36 36 40
Info: PME MAXIMUM GRID SPACING    1
Info: FULL ELECTROSTATIC EVALUATION FREQUENCY      2
Info: USING VERLET I (r-RESPA) MTS SCHEME.
Info: C1 SPLITTING OF LONG RANGE ELECTROSTATICS
Info: PLACING ATOMS IN PATCHES BY HYDROGEN GROUPS
Info: RIGID BONDS TO HYDROGEN : ALL
Info:         ERROR TOLERANCE : 1e-08
Info:          MAX ITERATIONS : 100
Info: RIGID WATER USING SETTLE ALGORITHM
Info: RANDOM NUMBER SEED     1743208558
Info: USE HYDROGEN BONDS?    NO
Info: Using AMBER format force field!
Info: AMBER PARM FILE        mobley_3775790.prmtop
Info: COORDINATE PDB         mobley_3775790.pdb
Info: Exclusions will be read from PARM file!
Info: SCNB (VDW SCALING)     2
Info: USING ARITHMETIC MEAN TO COMBINE L-J SIGMA PARAMETERS
Info: BINARY COORDINATES     mobley_3775790_min.coor
Info: SUMMARY OF PARAMETERS:
Info: 9 BONDS
Info: 10 ANGLES
Info:   10 HARMONIC
Info:   0 COSINE-BASED
Info: 4 DIHEDRAL
Info: 0 IMPROPER
Info: 0 CROSSTERM
Info: 0 VDW
Info: 36 VDW_PAIRS
Info: 0 NBTHOLE_PAIRS
Info: STRUCTURE SUMMARY:
Info: 2998 ATOMS
Info: 2998 BONDS
Info: 21 ANGLES
Info: 31 DIHEDRALS
Info: 0 IMPROPERS
Info: 0 CROSSTERMS
Info: 3040 EXCLUSIONS
Info: 2992 RIGID BONDS
Info: 6002 DEGREES OF FREEDOM
Info: 1001 HYDROGEN GROUPS
Info: 4 ATOMS IN LARGEST HYDROGEN GROUP
Info: 1001 MIGRATION GROUPS
Info: 4 ATOMS IN LARGEST MIGRATION GROUP
Info: TOTAL MASS = 18007 amu
Info: TOTAL CHARGE = -1.49012e-08 e
Info: MASS DENSITY = 0.6653 g/cm^3
Info: ATOM DENSITY = 0.0667034 atoms/A^3
Info: ADDED 0 IMPLICIT EXCLUSIONS
Info: NONBONDED TABLE R-SQUARED SPACING: 0.0625
Info: NONBONDED TABLE SIZE: 705 POINTS
Info: REMOVING COM VELOCITY 0.187527 -0.0333002 -0.0623685
TCL: Running for 100000 steps
ETITLE: TS BOND ANGLE DIHED IMPRP ELECT VDW BOUNDARY MISC KINETIC TOTAL TEMP POTENTIAL TOTAL3 TEMPAVG PRESSURE GPRESSURE VOLUME PRESSAVG GPRESSAVG
ENERGY: 0 0.2007 2.9389 0.0137 0.0000 -13853.9045 2424.8716 0.0000 0.0000 1723.1879 -9702.6916 288.9529 -11425.8795 -9702.3727 288.9529 338.6160 380.0748 44945.2329 338.6160 380.0748
ENERGY: 100000 0.5066 3.1987 0.2626 0.0000 -14487.2494 2581.1706 0.0000 0.0000 175.8597 -11726.2512 29.4891 -11902.1109 -11725.8608 30.9330 573.7366 639.7417 29588.3535 2.7026 2.7009
TCL: Running 100000 steps at 60 kelvin.
TCL: Setting parameter langevinTemp to 60
TCL: Running for 100000 steps
ETITLE: TS BOND ANGLE DIHED IMPRP ELECT VDW BOUNDARY MISC KINETIC TOTAL TEMP POTENTIAL TOTAL3 TEMPAVG PRESSURE GPRESSURE VOLUME PRESSAVG GPRESSAVG
ENERGY: 100000 0.5066 3.1987 0.2626 0.0000 -14487.2494 2581.1706 0.0000 0.0000 175.7744 -11726.3365 29.4747 -11902.1109 -11725.8972 29.4747 574.8642 639.7265 29588.3535 574.8642 639.7265
ENERGY: 200000 1.0445 4.0247 0.0333 0.0000 -14265.5216 2441.1686 0.0000 0.0000 362.0274 -11457.2230 60.7066 -11819.2504 -11456.3314 59.9171 -355.3328 -285.8169 29808.7545 4.0434 4.0560
TCL: Running 100000 steps at 90 kelvin.
TCL: Setting parameter langevinTemp to 90
TCL: Running for 100000 steps
ETITLE: TS BOND ANGLE DIHED IMPRP ELECT VDW BOUNDARY MISC KINETIC TOTAL TEMP POTENTIAL TOTAL3 TEMPAVG PRESSURE GPRESSURE VOLUME PRESSAVG GPRESSAVG
ENERGY: 200000 1.0445 4.0247 0.0333 0.0000 -14265.5216 2441.1686 0.0000 0.0000 361.8508 -11457.3996 60.6770 -11819.2504 -11456.6857 60.6770 -344.1615 -286.0179 29808.7545 -344.1615 -286.0179
ENERGY: 300000 1.2032 4.7540 0.4427 0.0000 -14256.0433 2467.7580 0.0000 0.0000 537.5821 -11244.3032 90.1445 -11781.8854 -11243.1038 90.1272 186.5748 227.6046 29141.3721 4.1368 4.1146
TCL: Running 100000 steps at 120 kelvin.
TCL: Setting parameter langevinTemp to 120
TCL: Running for 100000 steps
ETITLE: TS BOND ANGLE DIHED IMPRP ELECT VDW BOUNDARY MISC KINETIC TOTAL TEMP POTENTIAL TOTAL3 TEMPAVG PRESSURE GPRESSURE VOLUME PRESSAVG GPRESSAVG
ENERGY: 300000 1.2032 4.7540 0.4427 0.0000 -14256.0433 2467.7580 0.0000 0.0000 537.3188 -11244.5665 90.1003 -11781.8854 -11243.6269 90.1003 181.9898 227.5513 29141.3721 181.9898 227.5513
ENERGY: 400000 1.3273 3.2901 0.4731 0.0000 -13955.2402 2294.1416 0.0000 0.0000 709.8534 -10946.1547 119.0318 -11656.0081 -10944.5905 119.9085 -744.0605 -655.6543 29194.6504 2.9324 2.8485
TCL: Running 100000 steps at 150 kelvin.
TCL: Setting parameter langevinTemp to 150
TCL: Running for 100000 steps
ETITLE: TS BOND ANGLE DIHED IMPRP ELECT VDW BOUNDARY MISC KINETIC TOTAL TEMP POTENTIAL TOTAL3 TEMPAVG PRESSURE GPRESSURE VOLUME PRESSAVG GPRESSAVG
ENERGY: 400000 1.3273 3.2901 0.4731 0.0000 -13955.2402 2294.1416 0.0000 0.0000 709.4998 -10946.5083 118.9725 -11656.0081 -10945.1805 118.9725 -726.0528 -655.9337 29194.6504 -726.0528 -655.9337
ENERGY: 500000 0.9997 4.4307 1.6763 0.0000 -13717.0615 2223.3031 0.0000 0.0000 892.7194 -10593.9323 149.6957 -11486.6518 -10591.3558 149.9576 -665.8361 -621.0919 29229.4750 4.0941 3.9850
TCL: Running 100000 steps at 180 kelvin.
TCL: Setting parameter langevinTemp to 180
TCL: Running for 100000 steps
ETITLE: TS BOND ANGLE DIHED IMPRP ELECT VDW BOUNDARY MISC KINETIC TOTAL TEMP POTENTIAL TOTAL3 TEMPAVG PRESSURE GPRESSURE VOLUME PRESSAVG GPRESSAVG
ENERGY: 500000 0.9997 4.4307 1.6763 0.0000 -13717.0615 2223.3031 0.0000 0.0000 892.2689 -10594.3828 149.6202 -11486.6518 -10592.4841 149.6202 -678.3415 -620.7040 29229.4750 -678.3415 -620.7040
ENERGY: 600000 1.6074 7.1773 0.6529 0.0000 -13383.9908 2192.0314 0.0000 0.0000 1073.9594 -10108.5624 180.0870 -11182.5218 -10105.2995 179.9430 550.4356 604.8256 28948.1213 3.3997 3.3973
TCL: Running 100000 steps at 210 kelvin.
TCL: Setting parameter langevinTemp to 210
TCL: Running for 100000 steps
ETITLE: TS BOND ANGLE DIHED IMPRP ELECT VDW BOUNDARY MISC KINETIC TOTAL TEMP POTENTIAL TOTAL3 TEMPAVG PRESSURE GPRESSURE VOLUME PRESSAVG GPRESSAVG
ENERGY: 600000 1.6074 7.1773 0.6529 0.0000 -13383.9908 2192.0314 0.0000 0.0000 1073.4211 -10109.1006 179.9967 -11182.5218 -10107.2698 179.9967 541.6985 605.6110 28948.1213 541.6985 605.6110
ENERGY: 700000 0.6285 5.6166 2.1938 0.0000 -12526.3836 1852.6709 0.0000 0.0000 1277.2346 -9388.0391 214.1732 -10665.2737 -9386.0303 210.2381 -80.4997 -2.0694 28666.2228 3.7487 3.8274
TCL: Running 100000 steps at 240 kelvin.
TCL: Setting parameter langevinTemp to 240
TCL: Running for 100000 steps
ETITLE: TS BOND ANGLE DIHED IMPRP ELECT VDW BOUNDARY MISC KINETIC TOTAL TEMP POTENTIAL TOTAL3 TEMPAVG PRESSURE GPRESSURE VOLUME PRESSAVG GPRESSAVG
ENERGY: 700000 0.6285 5.6166 2.1938 0.0000 -12526.3836 1852.6709 0.0000 0.0000 1276.6045 -9388.6692 214.0675 -10665.2737 -9386.6299 214.0675 -91.3494 -3.2708 28666.2228 -91.3494 -3.2708
ENERGY: 800000 0.9271 6.9451 1.8917 0.0000 -12081.3788 1855.7694 0.0000 0.0000 1413.8915 -8801.9540 237.0885 -10215.8456 -8800.1197 239.7211 705.5046 788.8576 29701.5648 2.8182 2.9414
TCL: Running 100000 steps at 270 kelvin.
TCL: Setting parameter langevinTemp to 270
TCL: Running for 100000 steps
ETITLE: TS BOND ANGLE DIHED IMPRP ELECT VDW BOUNDARY MISC KINETIC TOTAL TEMP POTENTIAL TOTAL3 TEMPAVG PRESSURE GPRESSURE VOLUME PRESSAVG GPRESSAVG
ENERGY: 800000 0.9271 6.9451 1.8917 0.0000 -12081.3788 1855.7694 0.0000 0.0000 1413.1830 -8802.6625 236.9697 -10215.8456 -8800.3871 236.9697 701.6604 789.1737 29701.5648 701.6604 789.1737
ENERGY: 900000 2.2576 4.3018 3.0128 0.0000 -11349.4115 1531.1064 0.0000 0.0000 1649.0761 -8159.6568 276.5254 -9808.7330 -8157.8754 270.2517 -485.9884 -404.6282 30048.3285 3.3488 3.1430
TCL: Running 1000000 steps at 300 kelvin.
TCL: Setting parameter langevinTemp to 300
TCL: Running for 1000000 steps
ETITLE: TS BOND ANGLE DIHED IMPRP ELECT VDW BOUNDARY MISC KINETIC TOTAL TEMP POTENTIAL TOTAL3 TEMPAVG PRESSURE GPRESSURE VOLUME PRESSAVG GPRESSAVG
ENERGY: 900000 2.2576 4.3018 3.0128 0.0000 -11349.4115 1531.1064 0.0000 0.0000 1648.2810 -8160.4519 276.3921 -9808.7330 -8157.6038 276.3921 -487.3146 -405.2333 30048.3285 -487.3146 -405.2333
ENERGY: 1100000 1.6594 5.1780 2.9926 0.0000 -10787.1662 1461.9086 0.0000 0.0000 1824.4185 -7491.0090 305.9277 -9315.4275 -7486.1501 300.6468 180.9079 283.2414 30980.2927 4.0793 4.0833
ENERGY: 1300000 2.6113 6.7577 2.2153 0.0000 -10928.7203 1522.8311 0.0000 0.0000 1801.8417 -7592.4633 302.1419 -9394.3049 -7588.4333 300.4668 552.1456 591.0330 30911.9442 3.0664 2.9651
ENERGY: 1500000 1.7994 8.8358 4.0584 0.0000 -10886.8710 1492.0617 0.0000 0.0000 1754.3553 -7625.7604 294.1792 -9380.1157 -7623.1321 299.7138 280.5221 365.3713 31131.4136 4.8364 4.9493
ENERGY: 1700000 1.9280 4.5730 2.0535 0.0000 -11026.5136 1576.8530 0.0000 0.0000 1826.4658 -7614.6403 306.2710 -9441.1061 -7610.2066 299.8768 949.0034 1054.9958 30646.7758 2.7227 2.7000
ENERGY: 1900000 3.9105 6.4012 3.1686 0.0000 -10917.1918 1443.1345 0.0000 0.0000 1772.7415 -7687.8355 297.2623 -9460.5770 -7682.5515 300.8349 -348.2532 -266.8093 31204.4190 2.7747 2.3819
TCL: Exiting due to exit command.
