Info: SIMULATION PARAMETERS:
Info: TIMESTEP               2
Info: NUMBER OF STEPS        0
Info: STEPS PER CYCLE        10
Info: PERIODIC CELL BASIS 1  34.986 0 0
Info: PERIODIC CELL BASIS 2  0 35.779 0
Info: PERIODIC CELL BASIS 3  0 0 35.644
Info: PERIODIC CELL CENTER   0 0 0
Info: WRAPPING WATERS AROUND PERIODIC BOUNDARIES ON OUTPUT.
Info: WRAPPING ALL CLUSTERS AROUND PERIODIC BOUNDARIES ON OUTPUT.
Info: FIRST LDB TIMESTEP     50
Info: LAST LDB TIMESTEP     -1
Info: HOM BACKGROUND SCALING 1
Info: PME BACKGROUND SCALING 1
Info: MIN ATOMS PER PATCH    40
Info: EMPTY PATCH LOAD       40 ATOMS
Info: INITIAL TEMPERATURE    300
Info: CENTER OF MASS MOVING INITIALLY? NO
Info: DIELECTRIC             1
Info: EXCLUDE                SCALED ONE-FOUR
Info: 1-4 ELECTROSTATICS SCALED BY 0.833333
Info: MODIFIED 1-4 VDW PARAMETERS WILL BE USED
Info: DCD FILENAME           mobley_9883303_equil.dcd
Info: DCD FREQUENCY          100000
Info: DCD FIRST STEP         100000
Info: DCD FILE WILL CONTAIN UNIT CELL DATA
Info: XST FILENAME           mobley_9883303_equil.xst
Info: XST FREQUENCY          100000
Info: NO VELOCITY DCD OUTPUT
Info: NO FORCE DCD OUTPUT
Info: OUTPUT FILENAME        mobley_9883303_equil
Info: BINARY OUTPUT FILES WILL BE USED
Info: RESTART FILENAME       mobley_9883303_equil.restart
Info: RESTART FREQUENCY      100000
Info: BINARY RESTART FILES WILL BE USED
Info: CUTOFF                 9
Info: PAIRLIST DISTANCE      11
Info: PAIRLIST SHRINK RATE   0.01
Info: PAIRLIST GROW RATE     0.01
Info: PAIRLIST TRIGGER       0.3
Info: PAIRLISTS PER CYCLE    2
Info: PAIRLISTS ENABLED
Info: MARGIN                 8
Info: HYDROGEN GROUP CUTOFF  2.5
Info: PATCH DIMENSION        21.5
Info: ENERGY OUTPUT STEPS    100000
Info: ENERGY EVALUATION STEPS    100000
Info: OUTPUT ENERGY PRECISION 4
Info: CROSSTERM ENERGY INCLUDED IN DIHEDRAL
Info: TIMING OUTPUT STEPS    1000000
Info: PRESSURE OUTPUT STEPS  100000
Info: LANGEVIN DYNAMICS ACTIVE
Info: LANGEVIN TEMPERATURE   30
Info: LANGEVIN USING BBK INTEGRATOR
Info: LANGEVIN DAMPING COEFFICIENT IS 1 INVERSE PS
Info: LANGEVIN DYNAMICS APPLIED TO HYDROGENS
Info: LANGEVIN PISTON PRESSURE CONTROL ACTIVE
Info:        TARGET PRESSURE IS 1.01325 BAR
Info:     OSCILLATION PERIOD IS 50 FS
Info:             DECAY TIME IS 25 FS
Info:     PISTON TEMPERATURE IS 300 K
Info:       PRESSURE CONTROL IS GROUP-BASED
Info:    INITIAL STRAIN RATE IS 0 0 0
Info:       CELL FLUCTUATION IS ISOTROPIC
Info: PARTICLE MESH EWALD (PME) ACTIVE
Info: PME TOLERANCE               1e-06
Info: PME EWALD COEFFICIENT       0.348832
Info: PME INTERPOLATION ORDER     4
Info: PME GRID DIMENSIONS         36 36 36
Info: PME MAXIMUM GRID SPACING    1
Info: FULL ELECTROSTATIC EVALUATION FREQUENCY      2
Info: USING VERLET I (r-RESPA) MTS SCHEME.
Info: C1 SPLITTING OF LONG RANGE ELECTROSTATICS
Info: PLACING ATOMS IN PATCHES BY HYDROGEN GROUPS
Info: RIGID BONDS TO HYDROGEN : ALL
Info:         ERROR TOLERANCE : 1e-08
Info:          MAX ITERATIONS : 100
Info: RIGID WATER USING SETTLE ALGORITHM
Info: RANDOM NUMBER SEED     1743251667
Info: USE HYDROGEN BONDS?    NO
Info: Using AMBER format force field!
Info: AMBER PARM FILE        mobley_9883303.prmtop
Info: COORDINATE PDB         mobley_9883303.pdb
Info: Exclusions will be read from PARM file!
Info: SCNB (VDW SCALING)     2
Info: USING ARITHMETIC MEAN TO COMBINE L-J SIGMA PARAMETERS
Info: BINARY COORDINATES     mobley_9883303_min.coor
Info: SUMMARY OF PARAMETERS:
Info: 4 BONDS
Info: 3 ANGLES
Info:   3 HARMONIC
Info:   0 COSINE-BASED
Info: 5 DIHEDRAL
Info: 0 IMPROPER
Info: 0 CROSSTERM
Info: 0 VDW
Info: 10 VDW_PAIRS
Info: 0 NBTHOLE_PAIRS
Info: STRUCTURE SUMMARY:
Info: 2930 ATOMS
Info: 2929 BONDS
Info: 42 ANGLES
Info: 64 DIHEDRALS
Info: 0 IMPROPERS
Info: 0 CROSSTERMS
Info: 3025 EXCLUSIONS
Info: 2923 RIGID BONDS
Info: 5867 DEGREES OF FREEDOM
Info: 976 HYDROGEN GROUPS
Info: 4 ATOMS IN LARGEST HYDROGEN GROUP
Info: 976 MIGRATION GROUPS
Info: 4 ATOMS IN LARGEST MIGRATION GROUP
Info: TOTAL MASS = 17557.7 amu
Info: TOTAL CHARGE = 0.000200007 e
Info: MASS DENSITY = 0.653458 g/cm^3
Info: ATOM DENSITY = 0.0656687 atoms/A^3
Info: ADDED 0 IMPLICIT EXCLUSIONS
Info: NONBONDED TABLE R-SQUARED SPACING: 0.0625
Info: NONBONDED TABLE SIZE: 705 POINTS
Info: REMOVING COM VELOCITY -0.20607 0.12226 0.0379796
TCL: Running for 100000 steps
ETITLE: TS BOND ANGLE DIHED IMPRP ELECT VDW BOUNDARY MISC KINETIC TOTAL TEMP POTENTIAL TOTAL3 TEMPAVG PRESSURE GPRESSURE VOLUME PRESSAVG GPRESSAVG
ENERGY: 0 0.2801 1.3556 2.5122 0.0000 -13547.0754 2407.8982 0.0000 0.0000 1748.2219 -9386.8074 299.8961 -11135.0294 -9386.4686 299.8961 609.4433 637.8581 44617.8794 609.4433 637.8581
ENERGY: 100000 0.3561 2.8794 2.5772 0.0000 -14145.1761 2529.1769 0.0000 0.0000 171.9555 -11438.2310 29.4978 -11610.1865 -11438.0428 30.8873 627.8756 656.0733 28786.4469 5.2281 5.2312
TCL: Running 100000 steps at 60 kelvin.
TCL: Setting parameter langevinTemp to 60
TCL: Running for 100000 steps
ETITLE: TS BOND ANGLE DIHED IMPRP ELECT VDW BOUNDARY MISC KINETIC TOTAL TEMP POTENTIAL TOTAL3 TEMPAVG PRESSURE GPRESSURE VOLUME PRESSAVG GPRESSAVG
ENERGY: 100000 0.3561 2.8794 2.5772 0.0000 -14145.1761 2529.1769 0.0000 0.0000 171.8704 -11438.3161 29.4833 -11610.1865 -11437.9486 29.4833 615.6166 655.8638 28786.4469 615.6166 655.8638
ENERGY: 200000 0.7092 4.3464 2.9384 0.0000 -13910.6043 2373.4385 0.0000 0.0000 339.0170 -11190.1549 58.1562 -11529.1719 -11189.7103 60.0077 -53.7054 -14.5632 28294.9760 3.4736 3.4297
TCL: Running 100000 steps at 90 kelvin.
TCL: Setting parameter langevinTemp to 90
TCL: Running for 100000 steps
ETITLE: TS BOND ANGLE DIHED IMPRP ELECT VDW BOUNDARY MISC KINETIC TOTAL TEMP POTENTIAL TOTAL3 TEMPAVG PRESSURE GPRESSURE VOLUME PRESSAVG GPRESSAVG
ENERGY: 200000 0.7092 4.3464 2.9384 0.0000 -13910.6043 2373.4385 0.0000 0.0000 338.8416 -11190.3303 58.1261 -11529.1719 -11189.5892 58.1261 -52.2637 -14.9567 28294.9760 -52.2637 -14.9567
ENERGY: 300000 0.2899 3.8423 2.7029 0.0000 -13840.4458 2359.8003 0.0000 0.0000 524.9788 -10948.8318 90.0567 -11473.8106 -10947.6147 90.2784 125.7308 176.2929 28312.2153 5.9589 5.9311
TCL: Running 100000 steps at 120 kelvin.
TCL: Setting parameter langevinTemp to 120
TCL: Running for 100000 steps
ETITLE: TS BOND ANGLE DIHED IMPRP ELECT VDW BOUNDARY MISC KINETIC TOTAL TEMP POTENTIAL TOTAL3 TEMPAVG PRESSURE GPRESSURE VOLUME PRESSAVG GPRESSAVG
ENERGY: 300000 0.2899 3.8423 2.7029 0.0000 -13840.4458 2359.8003 0.0000 0.0000 524.7120 -10949.0986 90.0109 -11473.8106 -10947.8841 90.0109 128.0779 175.5617 28312.2153 128.0779 175.5617
ENERGY: 400000 0.8002 5.6787 3.8794 0.0000 -13582.9148 2236.1827 0.0000 0.0000 703.4125 -10632.9614 120.6658 -11336.3739 -10631.3133 119.8940 -389.2162 -359.7296 28510.3701 2.9538 2.9453
TCL: Running 100000 steps at 150 kelvin.
TCL: Setting parameter langevinTemp to 150
TCL: Running for 100000 steps
ETITLE: TS BOND ANGLE DIHED IMPRP ELECT VDW BOUNDARY MISC KINETIC TOTAL TEMP POTENTIAL TOTAL3 TEMPAVG PRESSURE GPRESSURE VOLUME PRESSAVG GPRESSAVG
ENERGY: 400000 0.8002 5.6787 3.8794 0.0000 -13582.9148 2236.1827 0.0000 0.0000 703.0786 -10633.2952 120.6086 -11336.3739 -10631.9161 120.6086 -397.4945 -360.6205 28510.3701 -397.4945 -360.6205
ENERGY: 500000 1.6675 5.7237 3.8176 0.0000 -13382.6785 2196.4428 0.0000 0.0000 865.3301 -10309.6970 148.4418 -11175.0270 -10307.3193 149.9474 -308.5680 -263.9564 28492.2868 3.4642 3.4808
TCL: Running 100000 steps at 180 kelvin.
TCL: Setting parameter langevinTemp to 180
TCL: Running for 100000 steps
ETITLE: TS BOND ANGLE DIHED IMPRP ELECT VDW BOUNDARY MISC KINETIC TOTAL TEMP POTENTIAL TOTAL3 TEMPAVG PRESSURE GPRESSURE VOLUME PRESSAVG GPRESSAVG
ENERGY: 500000 1.6675 5.7237 3.8176 0.0000 -13382.6785 2196.4428 0.0000 0.0000 864.8872 -10310.1399 148.3658 -11175.0271 -10307.9731 148.3658 -310.9749 -264.0662 28492.2868 -310.9749 -264.0662
ENERGY: 600000 1.8147 8.3697 2.8904 0.0000 -13001.2675 2132.9077 0.0000 0.0000 1038.6520 -9816.6330 178.1740 -10855.2850 -9813.7457 179.6752 270.9801 327.2387 28734.7291 3.5721 3.6832
TCL: Running 100000 steps at 210 kelvin.
TCL: Setting parameter langevinTemp to 210
TCL: Running for 100000 steps
ETITLE: TS BOND ANGLE DIHED IMPRP ELECT VDW BOUNDARY MISC KINETIC TOTAL TEMP POTENTIAL TOTAL3 TEMPAVG PRESSURE GPRESSURE VOLUME PRESSAVG GPRESSAVG
ENERGY: 600000 1.8147 8.3697 2.8904 0.0000 -13001.2675 2132.9077 0.0000 0.0000 1038.1359 -9817.1490 178.0855 -10855.2850 -9815.2703 178.0855 266.7107 327.5074 28734.7291 266.7107 327.5074
ENERGY: 700000 2.3020 8.9562 2.8232 0.0000 -12217.0868 1810.3218 0.0000 0.0000 1220.0695 -9172.6142 209.2950 -10392.6837 -9170.1346 210.0484 -667.0706 -546.8823 28549.2956 2.6937 2.8497
TCL: Running 100000 steps at 240 kelvin.
TCL: Setting parameter langevinTemp to 240
TCL: Running for 100000 steps
ETITLE: TS BOND ANGLE DIHED IMPRP ELECT VDW BOUNDARY MISC KINETIC TOTAL TEMP POTENTIAL TOTAL3 TEMPAVG PRESSURE GPRESSURE VOLUME PRESSAVG GPRESSAVG
ENERGY: 700000 2.3020 8.9562 2.8232 0.0000 -12217.0868 1810.3218 0.0000 0.0000 1219.4557 -9173.2280 209.1897 -10392.6837 -9171.2467 209.1897 -625.1256 -546.0413 28549.2956 -625.1256 -546.0413
ENERGY: 800000 0.7988 6.5060 4.1926 0.0000 -11676.4362 1741.8845 0.0000 0.0000 1385.7070 -8537.3472 237.7090 -9923.0542 -8533.3952 240.0894 305.3837 383.0559 28994.1878 3.1226 3.1688
TCL: Running 100000 steps at 270 kelvin.
TCL: Setting parameter langevinTemp to 270
TCL: Running for 100000 steps
ETITLE: TS BOND ANGLE DIHED IMPRP ELECT VDW BOUNDARY MISC KINETIC TOTAL TEMP POTENTIAL TOTAL3 TEMPAVG PRESSURE GPRESSURE VOLUME PRESSAVG GPRESSAVG
ENERGY: 800000 0.7988 6.5060 4.1926 0.0000 -11676.4362 1741.8845 0.0000 0.0000 1385.0384 -8538.0159 237.5943 -9923.0542 -8535.3498 237.5943 294.8530 383.5504 28994.1878 294.8530 383.5504
ENERGY: 900000 0.4319 10.4850 5.8249 0.0000 -11125.5371 1585.0255 0.0000 0.0000 1525.6404 -7998.1294 261.7137 -9523.7697 -7995.4650 269.7389 268.8017 386.1526 29433.7323 2.9795 2.7354
TCL: Running 1000000 steps at 300 kelvin.
TCL: Setting parameter langevinTemp to 300
TCL: Running for 1000000 steps
ETITLE: TS BOND ANGLE DIHED IMPRP ELECT VDW BOUNDARY MISC KINETIC TOTAL TEMP POTENTIAL TOTAL3 TEMPAVG PRESSURE GPRESSURE VOLUME PRESSAVG GPRESSAVG
ENERGY: 900000 0.4319 10.4850 5.8249 0.0000 -11125.5371 1585.0255 0.0000 0.0000 1524.8902 -7998.8796 261.5850 -9523.7697 -7996.3891 261.5850 305.3188 386.2187 29433.7323 305.3188 386.2187
ENERGY: 1100000 3.9721 8.7105 2.9641 0.0000 -10664.0811 1515.5343 0.0000 0.0000 1671.4448 -7461.4553 286.7255 -9132.9002 -7456.8447 300.2675 489.4035 604.5879 30418.2066 2.9289 2.7379
ENERGY: 1300000 1.4839 10.2158 5.6455 0.0000 -10617.8933 1366.8298 0.0000 0.0000 1708.1370 -7525.5812 293.0198 -9233.7183 -7521.2495 300.6902 -549.3681 -401.2483 29767.5105 4.8605 4.6887
ENERGY: 1500000 2.9942 12.5831 3.2445 0.0000 -10540.8226 1389.3127 0.0000 0.0000 1767.3419 -7365.3460 303.1760 -9132.6880 -7361.3666 299.9207 -288.4606 -240.5951 30078.6010 3.0959 2.9781
ENERGY: 1700000 2.6470 13.2383 3.8175 0.0000 -10425.1331 1332.5598 0.0000 0.0000 1740.9936 -7331.8771 298.6562 -9072.8706 -7326.9229 300.1409 -629.0980 -565.1476 30656.7040 2.9346 2.9002
ENERGY: 1900000 3.4996 9.0304 3.6551 0.0000 -10547.1675 1350.0852 0.0000 0.0000 1737.5000 -7443.3972 298.0568 -9180.8972 -7440.2149 300.1730 -619.1171 -584.6580 30124.2761 4.9365 4.7718
TCL: Exiting due to exit command.
