Info: SIMULATION PARAMETERS:
Info: TIMESTEP               2
Info: NUMBER OF STEPS        0
Info: STEPS PER CYCLE        10
Info: PERIODIC CELL BASIS 1  34.207 0 0
Info: PERIODIC CELL BASIS 2  0 35.779 0
Info: PERIODIC CELL BASIS 3  0 0 35.723
Info: PERIODIC CELL CENTER   0 0 0
Info: WRAPPING WATERS AROUND PERIODIC BOUNDARIES ON OUTPUT.
Info: WRAPPING ALL CLUSTERS AROUND PERIODIC BOUNDARIES ON OUTPUT.
Info: FIRST LDB TIMESTEP     50
Info: LAST LDB TIMESTEP     -1
Info: HOM BACKGROUND SCALING 1
Info: PME BACKGROUND SCALING 1
Info: MIN ATOMS PER PATCH    40
Info: EMPTY PATCH LOAD       40 ATOMS
Info: INITIAL TEMPERATURE    300
Info: CENTER OF MASS MOVING INITIALLY? NO
Info: DIELECTRIC             1
Info: EXCLUDE                SCALED ONE-FOUR
Info: 1-4 ELECTROSTATICS SCALED BY 0.833333
Info: MODIFIED 1-4 VDW PARAMETERS WILL BE USED
Info: DCD FILENAME           mobley_6854178_equil.dcd
Info: DCD FREQUENCY          100000
Info: DCD FIRST STEP         100000
Info: DCD FILE WILL CONTAIN UNIT CELL DATA
Info: XST FILENAME           mobley_6854178_equil.xst
Info: XST FREQUENCY          100000
Info: NO VELOCITY DCD OUTPUT
Info: NO FORCE DCD OUTPUT
Info: OUTPUT FILENAME        mobley_6854178_equil
Info: BINARY OUTPUT FILES WILL BE USED
Info: RESTART FILENAME       mobley_6854178_equil.restart
Info: RESTART FREQUENCY      100000
Info: BINARY RESTART FILES WILL BE USED
Info: CUTOFF                 9
Info: PAIRLIST DISTANCE      11
Info: PAIRLIST SHRINK RATE   0.01
Info: PAIRLIST GROW RATE     0.01
Info: PAIRLIST TRIGGER       0.3
Info: PAIRLISTS PER CYCLE    2
Info: PAIRLISTS ENABLED
Info: MARGIN                 8
Info: HYDROGEN GROUP CUTOFF  2.5
Info: PATCH DIMENSION        21.5
Info: ENERGY OUTPUT STEPS    100000
Info: ENERGY EVALUATION STEPS    100000
Info: OUTPUT ENERGY PRECISION 4
Info: CROSSTERM ENERGY INCLUDED IN DIHEDRAL
Info: TIMING OUTPUT STEPS    1000000
Info: PRESSURE OUTPUT STEPS  100000
Info: LANGEVIN DYNAMICS ACTIVE
Info: LANGEVIN TEMPERATURE   30
Info: LANGEVIN USING BBK INTEGRATOR
Info: LANGEVIN DAMPING COEFFICIENT IS 1 INVERSE PS
Info: LANGEVIN DYNAMICS APPLIED TO HYDROGENS
Info: LANGEVIN PISTON PRESSURE CONTROL ACTIVE
Info:        TARGET PRESSURE IS 1.01325 BAR
Info:     OSCILLATION PERIOD IS 50 FS
Info:             DECAY TIME IS 25 FS
Info:     PISTON TEMPERATURE IS 300 K
Info:       PRESSURE CONTROL IS GROUP-BASED
Info:    INITIAL STRAIN RATE IS 0 0 0
Info:       CELL FLUCTUATION IS ISOTROPIC
Info: PARTICLE MESH EWALD (PME) ACTIVE
Info: PME TOLERANCE               1e-06
Info: PME EWALD COEFFICIENT       0.348832
Info: PME INTERPOLATION ORDER     4
Info: PME GRID DIMENSIONS         36 36 36
Info: PME MAXIMUM GRID SPACING    1
Info: FULL ELECTROSTATIC EVALUATION FREQUENCY      2
Info: USING VERLET I (r-RESPA) MTS SCHEME.
Info: C1 SPLITTING OF LONG RANGE ELECTROSTATICS
Info: PLACING ATOMS IN PATCHES BY HYDROGEN GROUPS
Info: RIGID BONDS TO HYDROGEN : ALL
Info:         ERROR TOLERANCE : 1e-08
Info:          MAX ITERATIONS : 100
Info: RIGID WATER USING SETTLE ALGORITHM
Info: RANDOM NUMBER SEED     1743239239
Info: USE HYDROGEN BONDS?    NO
Info: Using AMBER format force field!
Info: AMBER PARM FILE        mobley_6854178.prmtop
Info: COORDINATE PDB         mobley_6854178.pdb
Info: Exclusions will be read from PARM file!
Info: SCNB (VDW SCALING)     2
Info: USING ARITHMETIC MEAN TO COMBINE L-J SIGMA PARAMETERS
Info: BINARY COORDINATES     mobley_6854178_min.coor
Info: SUMMARY OF PARAMETERS:
Info: 9 BONDS
Info: 10 ANGLES
Info:   10 HARMONIC
Info:   0 COSINE-BASED
Info: 10 DIHEDRAL
Info: 0 IMPROPER
Info: 0 CROSSTERM
Info: 0 VDW
Info: 45 VDW_PAIRS
Info: 0 NBTHOLE_PAIRS
Info: STRUCTURE SUMMARY:
Info: 2912 ATOMS
Info: 2911 BONDS
Info: 22 ANGLES
Info: 33 DIHEDRALS
Info: 0 IMPROPERS
Info: 0 CROSSTERMS
Info: 2956 EXCLUSIONS
Info: 2906 RIGID BONDS
Info: 5830 DEGREES OF FREEDOM
Info: 972 HYDROGEN GROUPS
Info: 4 ATOMS IN LARGEST HYDROGEN GROUP
Info: 972 MIGRATION GROUPS
Info: 4 ATOMS IN LARGEST MIGRATION GROUP
Info: TOTAL MASS = 17491.6 amu
Info: TOTAL CHARGE = 7.45058e-08 e
Info: MASS DENSITY = 0.66435 g/cm^3
Info: ATOM DENSITY = 0.066604 atoms/A^3
Info: ADDED 0 IMPLICIT EXCLUSIONS
Info: NONBONDED TABLE R-SQUARED SPACING: 0.0625
Info: NONBONDED TABLE SIZE: 705 POINTS
Info: REMOVING COM VELOCITY 0.210122 -0.0639167 0.00687269
TCL: Running for 100000 steps
ETITLE: TS BOND ANGLE DIHED IMPRP ELECT VDW BOUNDARY MISC KINETIC TOTAL TEMP POTENTIAL TOTAL3 TEMPAVG PRESSURE GPRESSURE VOLUME PRESSAVG GPRESSAVG
ENERGY: 0 0.1486 0.3547 4.7097 0.0000 -13527.0279 2399.4891 0.0000 0.0000 1739.9390 -9382.3868 300.3695 -11122.3258 -9382.0243 300.3695 478.7834 513.6917 43721.1030 478.7834 513.6917
ENERGY: 100000 0.4053 0.9284 4.2808 0.0000 -14050.4348 2435.7850 0.0000 0.0000 171.5085 -11437.5266 29.6079 -11609.0352 -11437.0829 30.9167 -170.5059 -108.8106 28602.0301 2.4243 2.4373
TCL: Running 100000 steps at 60 kelvin.
TCL: Setting parameter langevinTemp to 60
TCL: Running for 100000 steps
ETITLE: TS BOND ANGLE DIHED IMPRP ELECT VDW BOUNDARY MISC KINETIC TOTAL TEMP POTENTIAL TOTAL3 TEMPAVG PRESSURE GPRESSURE VOLUME PRESSAVG GPRESSAVG
ENERGY: 100000 0.4053 0.9284 4.2808 0.0000 -14050.4348 2435.7850 0.0000 0.0000 171.4227 -11437.6125 29.5931 -11609.0352 -11437.2382 29.5931 -169.9265 -108.8246 28602.0301 -169.9265 -108.8246
ENERGY: 200000 0.2065 2.7652 4.9764 0.0000 -13875.2199 2315.1204 0.0000 0.0000 352.8529 -11199.2986 60.9138 -11552.1515 -11198.2017 59.9521 -802.1212 -732.9587 28385.7525 1.8438 1.8194
TCL: Running 100000 steps at 90 kelvin.
TCL: Setting parameter langevinTemp to 90
TCL: Running for 100000 steps
ETITLE: TS BOND ANGLE DIHED IMPRP ELECT VDW BOUNDARY MISC KINETIC TOTAL TEMP POTENTIAL TOTAL3 TEMPAVG PRESSURE GPRESSURE VOLUME PRESSAVG GPRESSAVG
ENERGY: 200000 0.2065 2.7652 4.9764 0.0000 -13875.2199 2315.1204 0.0000 0.0000 352.6789 -11199.4726 60.8837 -11552.1515 -11198.6545 60.8837 -786.6158 -733.0598 28385.7525 -786.6158 -733.0598
ENERGY: 300000 0.7488 1.2385 3.9351 0.0000 -13820.9919 2355.3293 0.0000 0.0000 512.2912 -10947.4490 88.4380 -11459.7403 -10945.5257 89.8734 -172.3295 -84.0500 28275.4431 3.8020 3.6094
TCL: Running 100000 steps at 120 kelvin.
TCL: Setting parameter langevinTemp to 120
TCL: Running for 100000 steps
ETITLE: TS BOND ANGLE DIHED IMPRP ELECT VDW BOUNDARY MISC KINETIC TOTAL TEMP POTENTIAL TOTAL3 TEMPAVG PRESSURE GPRESSURE VOLUME PRESSAVG GPRESSAVG
ENERGY: 300000 0.7488 1.2385 3.9351 0.0000 -13820.9919 2355.3293 0.0000 0.0000 512.0254 -10947.7148 88.3921 -11459.7403 -10946.5482 88.3921 -147.1940 -83.4636 28275.4431 -147.1940 -83.4636
ENERGY: 400000 1.2681 2.5506 4.6234 0.0000 -13532.7319 2222.7784 0.0000 0.0000 707.7271 -10593.7843 122.1765 -11301.5114 -10591.6770 120.0208 -624.7977 -599.5766 28411.6095 4.8768 4.8555
TCL: Running 100000 steps at 150 kelvin.
TCL: Setting parameter langevinTemp to 150
TCL: Running for 100000 steps
ETITLE: TS BOND ANGLE DIHED IMPRP ELECT VDW BOUNDARY MISC KINETIC TOTAL TEMP POTENTIAL TOTAL3 TEMPAVG PRESSURE GPRESSURE VOLUME PRESSAVG GPRESSAVG
ENERGY: 400000 1.2681 2.5506 4.6234 0.0000 -13532.7319 2222.7784 0.0000 0.0000 707.3833 -10594.1281 122.1171 -11301.5114 -10592.7589 122.1171 -660.6323 -599.3217 28411.6095 -660.6323 -599.3217
ENERGY: 500000 0.5999 3.7364 4.2351 0.0000 -13286.2824 2188.6961 0.0000 0.0000 870.4293 -10218.5855 150.2641 -11089.0148 -10216.9096 149.7297 -293.7908 -261.4733 28854.2803 4.3410 4.4342
TCL: Running 100000 steps at 180 kelvin.
TCL: Setting parameter langevinTemp to 180
TCL: Running for 100000 steps
ETITLE: TS BOND ANGLE DIHED IMPRP ELECT VDW BOUNDARY MISC KINETIC TOTAL TEMP POTENTIAL TOTAL3 TEMPAVG PRESSURE GPRESSURE VOLUME PRESSAVG GPRESSAVG
ENERGY: 500000 0.5999 3.7364 4.2351 0.0000 -13286.2824 2188.6961 0.0000 0.0000 869.9869 -10219.0279 150.1878 -11089.0148 -10217.0261 150.1878 -309.8477 -261.7756 28854.2803 -309.8477 -261.7756
ENERGY: 600000 0.8744 5.5201 4.8322 0.0000 -13082.5119 2215.5023 0.0000 0.0000 1061.6661 -9794.1169 183.2778 -10855.7830 -9790.9851 179.8772 998.4319 1042.8316 28512.0222 4.2965 4.2638
TCL: Running 100000 steps at 210 kelvin.
TCL: Setting parameter langevinTemp to 210
TCL: Running for 100000 steps
ETITLE: TS BOND ANGLE DIHED IMPRP ELECT VDW BOUNDARY MISC KINETIC TOTAL TEMP POTENTIAL TOTAL3 TEMPAVG PRESSURE GPRESSURE VOLUME PRESSAVG GPRESSAVG
ENERGY: 600000 0.8744 5.5201 4.8322 0.0000 -13082.5119 2215.5023 0.0000 0.0000 1061.1684 -9794.6146 183.1918 -10855.7830 -9793.0962 183.1918 986.3853 1044.9510 28512.0222 986.3853 1044.9510
ENERGY: 700000 0.9626 3.5749 4.9918 0.0000 -12423.6259 1948.7029 0.0000 0.0000 1167.5681 -9297.8256 201.5599 -10465.3937 -9297.2492 210.1368 215.1504 279.7248 28344.8289 2.5693 2.6403
TCL: Running 100000 steps at 240 kelvin.
TCL: Setting parameter langevinTemp to 240
TCL: Running for 100000 steps
ETITLE: TS BOND ANGLE DIHED IMPRP ELECT VDW BOUNDARY MISC KINETIC TOTAL TEMP POTENTIAL TOTAL3 TEMPAVG PRESSURE GPRESSURE VOLUME PRESSAVG GPRESSAVG
ENERGY: 700000 0.9626 3.5749 4.9918 0.0000 -12423.6259 1948.7029 0.0000 0.0000 1166.9452 -9298.4485 201.4523 -10465.3937 -9295.7128 201.4523 199.8524 276.7330 28344.8289 199.8524 276.7330
ENERGY: 800000 0.0752 6.7383 5.2167 0.0000 -11810.9997 1861.5536 0.0000 0.0000 1391.1539 -8546.2621 240.1580 -9937.4160 -8544.7400 239.7017 1324.7408 1461.7640 28655.6781 4.7653 4.6633
TCL: Running 100000 steps at 270 kelvin.
TCL: Setting parameter langevinTemp to 270
TCL: Running for 100000 steps
ETITLE: TS BOND ANGLE DIHED IMPRP ELECT VDW BOUNDARY MISC KINETIC TOTAL TEMP POTENTIAL TOTAL3 TEMPAVG PRESSURE GPRESSURE VOLUME PRESSAVG GPRESSAVG
ENERGY: 800000 0.0752 6.7383 5.2167 0.0000 -11810.9997 1861.5536 0.0000 0.0000 1390.4821 -8546.9339 240.0420 -9937.4160 -8544.5616 240.0420 1386.3640 1461.3663 28655.6781 1386.3640 1461.3663
ENERGY: 900000 3.2839 5.2631 5.1383 0.0000 -10975.6418 1480.4771 0.0000 0.0000 1556.1753 -7925.3040 268.6460 -9481.4793 -7922.9302 269.9316 -428.3013 -286.7563 29137.5476 2.6911 2.5585
TCL: Running 1000000 steps at 300 kelvin.
TCL: Setting parameter langevinTemp to 300
TCL: Running for 1000000 steps
ETITLE: TS BOND ANGLE DIHED IMPRP ELECT VDW BOUNDARY MISC KINETIC TOTAL TEMP POTENTIAL TOTAL3 TEMPAVG PRESSURE GPRESSURE VOLUME PRESSAVG GPRESSAVG
ENERGY: 900000 3.2839 5.2631 5.1383 0.0000 -10975.6418 1480.4771 0.0000 0.0000 1555.3829 -7926.0964 268.5092 -9481.4793 -7923.6972 268.5092 -382.7155 -288.7019 29137.5476 -382.7155 -288.7019
ENERGY: 1100000 1.6885 4.6571 4.2917 0.0000 -10632.1850 1453.4038 0.0000 0.0000 1729.9190 -7438.2250 298.6397 -9168.1440 -7434.7456 300.2169 314.6546 456.9383 29442.9527 3.6727 3.5946
ENERGY: 1300000 1.0459 5.0950 5.6150 0.0000 -10732.6490 1447.8101 0.0000 0.0000 1682.2329 -7590.8501 290.4076 -9273.0830 -7587.6823 299.6217 -50.2304 -8.3483 29729.4751 2.8917 3.0154
ENERGY: 1500000 0.8428 8.1452 4.1564 0.0000 -10503.2336 1418.5308 0.0000 0.0000 1713.0876 -7358.4709 295.7341 -9071.5585 -7356.8022 300.4314 195.5952 227.0838 29909.5324 3.0866 2.9351
ENERGY: 1700000 2.3084 4.0033 5.9427 0.0000 -10499.0404 1337.6837 0.0000 0.0000 1688.7654 -7460.3369 291.5353 -9149.1023 -7456.4828 299.6039 -634.1585 -557.0067 29771.8103 2.9947 3.0690
ENERGY: 1900000 1.6554 5.9217 6.4274 0.0000 -10496.7314 1347.2268 0.0000 0.0000 1753.3385 -7382.1616 302.6827 -9135.5000 -7378.9718 300.1010 -661.4412 -601.0616 30111.5603 2.8089 3.0580
TCL: Exiting due to exit command.
