Info: SIMULATION PARAMETERS:
Info: TIMESTEP               2
Info: NUMBER OF STEPS        0
Info: STEPS PER CYCLE        10
Info: PERIODIC CELL BASIS 1  34.207 0 0
Info: PERIODIC CELL BASIS 2  0 33.542 0
Info: PERIODIC CELL BASIS 3  0 0 37.195
Info: PERIODIC CELL CENTER   0 0 0
Info: WRAPPING WATERS AROUND PERIODIC BOUNDARIES ON OUTPUT.
Info: WRAPPING ALL CLUSTERS AROUND PERIODIC BOUNDARIES ON OUTPUT.
Info: FIRST LDB TIMESTEP     50
Info: LAST LDB TIMESTEP     -1
Info: HOM BACKGROUND SCALING 1
Info: PME BACKGROUND SCALING 1
Info: MIN ATOMS PER PATCH    40
Info: EMPTY PATCH LOAD       40 ATOMS
Info: INITIAL TEMPERATURE    300
Info: CENTER OF MASS MOVING INITIALLY? NO
Info: DIELECTRIC             1
Info: EXCLUDE                SCALED ONE-FOUR
Info: 1-4 ELECTROSTATICS SCALED BY 0.833333
Info: MODIFIED 1-4 VDW PARAMETERS WILL BE USED
Info: DCD FILENAME           mobley_1046331_equil.dcd
Info: DCD FREQUENCY          100000
Info: DCD FIRST STEP         100000
Info: DCD FILE WILL CONTAIN UNIT CELL DATA
Info: XST FILENAME           mobley_1046331_equil.xst
Info: XST FREQUENCY          100000
Info: NO VELOCITY DCD OUTPUT
Info: NO FORCE DCD OUTPUT
Info: OUTPUT FILENAME        mobley_1046331_equil
Info: BINARY OUTPUT FILES WILL BE USED
Info: RESTART FILENAME       mobley_1046331_equil.restart
Info: RESTART FREQUENCY      100000
Info: BINARY RESTART FILES WILL BE USED
Info: CUTOFF                 9
Info: PAIRLIST DISTANCE      11
Info: PAIRLIST SHRINK RATE   0.01
Info: PAIRLIST GROW RATE     0.01
Info: PAIRLIST TRIGGER       0.3
Info: PAIRLISTS PER CYCLE    2
Info: PAIRLISTS ENABLED
Info: MARGIN                 8
Info: HYDROGEN GROUP CUTOFF  2.5
Info: PATCH DIMENSION        21.5
Info: ENERGY OUTPUT STEPS    100000
Info: ENERGY EVALUATION STEPS    100000
Info: OUTPUT ENERGY PRECISION 4
Info: CROSSTERM ENERGY INCLUDED IN DIHEDRAL
Info: TIMING OUTPUT STEPS    1000000
Info: PRESSURE OUTPUT STEPS  100000
Info: LANGEVIN DYNAMICS ACTIVE
Info: LANGEVIN TEMPERATURE   30
Info: LANGEVIN USING BBK INTEGRATOR
Info: LANGEVIN DAMPING COEFFICIENT IS 1 INVERSE PS
Info: LANGEVIN DYNAMICS APPLIED TO HYDROGENS
Info: LANGEVIN PISTON PRESSURE CONTROL ACTIVE
Info:        TARGET PRESSURE IS 1.01325 BAR
Info:     OSCILLATION PERIOD IS 50 FS
Info:             DECAY TIME IS 25 FS
Info:     PISTON TEMPERATURE IS 300 K
Info:       PRESSURE CONTROL IS GROUP-BASED
Info:    INITIAL STRAIN RATE IS 0 0 0
Info:       CELL FLUCTUATION IS ISOTROPIC
Info: PARTICLE MESH EWALD (PME) ACTIVE
Info: PME TOLERANCE               1e-06
Info: PME EWALD COEFFICIENT       0.348832
Info: PME INTERPOLATION ORDER     4
Info: PME GRID DIMENSIONS         36 36 40
Info: PME MAXIMUM GRID SPACING    1
Info: FULL ELECTROSTATIC EVALUATION FREQUENCY      2
Info: USING VERLET I (r-RESPA) MTS SCHEME.
Info: C1 SPLITTING OF LONG RANGE ELECTROSTATICS
Info: PLACING ATOMS IN PATCHES BY HYDROGEN GROUPS
Info: RIGID BONDS TO HYDROGEN : ALL
Info:         ERROR TOLERANCE : 1e-08
Info:          MAX ITERATIONS : 100
Info: RIGID WATER USING SETTLE ALGORITHM
Info: RANDOM NUMBER SEED     1743239857
Info: USE HYDROGEN BONDS?    NO
Info: Using AMBER format force field!
Info: AMBER PARM FILE        mobley_1046331.prmtop
Info: COORDINATE PDB         mobley_1046331.pdb
Info: Exclusions will be read from PARM file!
Info: SCNB (VDW SCALING)     2
Info: USING ARITHMETIC MEAN TO COMBINE L-J SIGMA PARAMETERS
Info: BINARY COORDINATES     mobley_1046331_min.coor
Info: SUMMARY OF PARAMETERS:
Info: 8 BONDS
Info: 7 ANGLES
Info:   7 HARMONIC
Info:   0 COSINE-BASED
Info: 4 DIHEDRAL
Info: 0 IMPROPER
Info: 0 CROSSTERM
Info: 0 VDW
Info: 28 VDW_PAIRS
Info: 0 NBTHOLE_PAIRS
Info: STRUCTURE SUMMARY:
Info: 2925 ATOMS
Info: 2925 BONDS
Info: 22 ANGLES
Info: 35 DIHEDRALS
Info: 0 IMPROPERS
Info: 0 CROSSTERMS
Info: 2972 EXCLUSIONS
Info: 2916 RIGID BONDS
Info: 5859 DEGREES OF FREEDOM
Info: 979 HYDROGEN GROUPS
Info: 3 ATOMS IN LARGEST HYDROGEN GROUP
Info: 979 MIGRATION GROUPS
Info: 3 ATOMS IN LARGEST MIGRATION GROUP
Info: TOTAL MASS = 17597.6 amu
Info: TOTAL CHARGE = 0.000100024 e
Info: MASS DENSITY = 0.684739 g/cm^3
Info: ATOM DENSITY = 0.0685389 atoms/A^3
Info: ADDED 0 IMPLICIT EXCLUSIONS
Info: NONBONDED TABLE R-SQUARED SPACING: 0.0625
Info: NONBONDED TABLE SIZE: 705 POINTS
Info: REMOVING COM VELOCITY 0.0312111 -0.052694 0.0672933
TCL: Running for 100000 steps
ETITLE: TS BOND ANGLE DIHED IMPRP ELECT VDW BOUNDARY MISC KINETIC TOTAL TEMP POTENTIAL TOTAL3 TEMPAVG PRESSURE GPRESSURE VOLUME PRESSAVG GPRESSAVG
ENERGY: 0 0.1632 0.2177 3.0395 0.0000 -13548.4418 2385.8663 0.0000 0.0000 1732.9713 -9426.1838 297.6859 -11159.1550 -9425.8549 297.6859 500.0921 544.6852 42676.4716 500.0921 544.6852
ENERGY: 100000 0.6978 0.9514 3.8367 0.0000 -13968.3935 2354.3997 0.0000 0.0000 174.8673 -11433.6406 30.0383 -11608.5079 -11433.2911 30.9553 -714.2028 -652.5980 29048.3836 2.7151 2.6283
TCL: Running 100000 steps at 60 kelvin.
TCL: Setting parameter langevinTemp to 60
TCL: Running for 100000 steps
ETITLE: TS BOND ANGLE DIHED IMPRP ELECT VDW BOUNDARY MISC KINETIC TOTAL TEMP POTENTIAL TOTAL3 TEMPAVG PRESSURE GPRESSURE VOLUME PRESSAVG GPRESSAVG
ENERGY: 100000 0.6978 0.9514 3.8367 0.0000 -13968.3935 2354.3997 0.0000 0.0000 174.7801 -11433.7278 30.0233 -11608.5079 -11433.3960 30.0233 -709.9926 -652.6568 29048.3836 -709.9926 -652.6568
ENERGY: 200000 0.6300 0.9852 3.1286 0.0000 -14023.3671 2467.1237 0.0000 0.0000 350.7065 -11200.7931 60.2436 -11551.4996 -11200.4093 59.8955 730.0670 801.9555 28284.9359 4.9573 4.9648
TCL: Running 100000 steps at 90 kelvin.
TCL: Setting parameter langevinTemp to 90
TCL: Running for 100000 steps
ETITLE: TS BOND ANGLE DIHED IMPRP ELECT VDW BOUNDARY MISC KINETIC TOTAL TEMP POTENTIAL TOTAL3 TEMPAVG PRESSURE GPRESSURE VOLUME PRESSAVG GPRESSAVG
ENERGY: 200000 0.6300 0.9852 3.1286 0.0000 -14023.3671 2467.1237 0.0000 0.0000 350.5321 -11200.9675 60.2136 -11551.4996 -11200.1943 60.2136 734.2089 801.0949 28284.9359 734.2089 801.0949
ENERGY: 300000 0.9593 1.0986 3.3535 0.0000 -13949.3531 2482.9173 0.0000 0.0000 520.2218 -10940.8026 89.3625 -11461.0243 -10938.9974 90.0757 1180.6391 1198.9526 28320.7659 4.4356 4.5075
TCL: Running 100000 steps at 120 kelvin.
TCL: Setting parameter langevinTemp to 120
TCL: Running for 100000 steps
ETITLE: TS BOND ANGLE DIHED IMPRP ELECT VDW BOUNDARY MISC KINETIC TOTAL TEMP POTENTIAL TOTAL3 TEMPAVG PRESSURE GPRESSURE VOLUME PRESSAVG GPRESSAVG
ENERGY: 300000 0.9593 1.0986 3.3535 0.0000 -13949.3531 2482.9173 0.0000 0.0000 519.9617 -10941.0626 89.3179 -11461.0243 -10939.8760 89.3179 1148.7456 1199.1777 28320.7659 1148.7456 1199.1777
ENERGY: 400000 0.9536 2.6245 2.4439 0.0000 -13603.9744 2267.0892 0.0000 0.0000 699.5429 -10631.3203 120.1659 -11330.8631 -10628.9833 120.1786 -503.0853 -410.2599 28693.8073 3.2863 3.2538
TCL: Running 100000 steps at 150 kelvin.
TCL: Setting parameter langevinTemp to 150
TCL: Running for 100000 steps
ETITLE: TS BOND ANGLE DIHED IMPRP ELECT VDW BOUNDARY MISC KINETIC TOTAL TEMP POTENTIAL TOTAL3 TEMPAVG PRESSURE GPRESSURE VOLUME PRESSAVG GPRESSAVG
ENERGY: 400000 0.9536 2.6245 2.4439 0.0000 -13603.9744 2267.0892 0.0000 0.0000 699.1991 -10631.6641 120.1068 -11330.8631 -10630.5716 120.1068 -460.7296 -409.6640 28693.8073 -460.7296 -409.6640
ENERGY: 500000 1.6865 2.0091 2.4436 0.0000 -13411.7187 2200.1046 0.0000 0.0000 907.7099 -10297.7650 155.9244 -11205.4749 -10295.8757 150.0544 -328.2102 -300.1275 28735.8758 4.5473 4.5617
TCL: Running 100000 steps at 180 kelvin.
TCL: Setting parameter langevinTemp to 180
TCL: Running for 100000 steps
ETITLE: TS BOND ANGLE DIHED IMPRP ELECT VDW BOUNDARY MISC KINETIC TOTAL TEMP POTENTIAL TOTAL3 TEMPAVG PRESSURE GPRESSURE VOLUME PRESSAVG GPRESSAVG
ENERGY: 500000 1.6865 2.0091 2.4436 0.0000 -13411.7187 2200.1046 0.0000 0.0000 907.2787 -10298.1962 155.8503 -11205.4749 -10296.4123 155.8503 -344.6138 -300.5971 28735.8758 -344.6138 -300.5971
ENERGY: 600000 1.1635 4.0449 2.7605 0.0000 -12907.8633 2033.0030 0.0000 0.0000 1069.2044 -9797.6869 183.6655 -10866.8913 -9794.3100 180.4627 -354.7617 -263.6902 28431.7707 3.6369 3.6634
TCL: Running 100000 steps at 210 kelvin.
TCL: Setting parameter langevinTemp to 210
TCL: Running for 100000 steps
ETITLE: TS BOND ANGLE DIHED IMPRP ELECT VDW BOUNDARY MISC KINETIC TOTAL TEMP POTENTIAL TOTAL3 TEMPAVG PRESSURE GPRESSURE VOLUME PRESSAVG GPRESSAVG
ENERGY: 600000 1.1635 4.0449 2.7605 0.0000 -12907.8633 2033.0030 0.0000 0.0000 1068.6844 -9798.2069 183.5762 -10866.8913 -9795.6826 183.5762 -324.2941 -261.7203 28431.7707 -324.2941 -261.7203
ENERGY: 700000 3.4186 5.0071 2.1027 0.0000 -12289.4341 1848.3757 0.0000 0.0000 1185.1915 -9245.3384 203.5895 -10430.5299 -9243.1659 209.9840 -620.8759 -491.5966 28779.1606 3.0991 3.1746
TCL: Running 100000 steps at 240 kelvin.
TCL: Setting parameter langevinTemp to 240
TCL: Running for 100000 steps
ETITLE: TS BOND ANGLE DIHED IMPRP ELECT VDW BOUNDARY MISC KINETIC TOTAL TEMP POTENTIAL TOTAL3 TEMPAVG PRESSURE GPRESSURE VOLUME PRESSAVG GPRESSAVG
ENERGY: 700000 3.4186 5.0071 2.1027 0.0000 -12289.4341 1848.3757 0.0000 0.0000 1184.5860 -9245.9439 203.4855 -10430.5299 -9243.8043 203.4855 -580.7933 -491.4686 28779.1606 -580.7933 -491.4686
ENERGY: 800000 3.0917 5.6481 3.0260 0.0000 -11732.8942 1755.7189 0.0000 0.0000 1395.2622 -8570.1472 239.6750 -9965.4094 -8567.9735 239.5515 357.6745 419.0740 28940.0926 1.9031 1.9536
TCL: Running 100000 steps at 270 kelvin.
TCL: Setting parameter langevinTemp to 270
TCL: Running for 100000 steps
ETITLE: TS BOND ANGLE DIHED IMPRP ELECT VDW BOUNDARY MISC KINETIC TOTAL TEMP POTENTIAL TOTAL3 TEMPAVG PRESSURE GPRESSURE VOLUME PRESSAVG GPRESSAVG
ENERGY: 800000 3.0917 5.6481 3.0260 0.0000 -11732.8942 1755.7189 0.0000 0.0000 1394.5895 -8570.8199 239.5594 -9965.4094 -8569.0382 239.5594 325.0831 419.8562 28940.0926 325.0831 419.8562
ENERGY: 900000 1.3796 5.1152 4.4513 0.0000 -11071.0578 1456.1994 0.0000 0.0000 1595.9641 -8007.9482 274.1511 -9603.9123 -8004.5561 270.3474 -743.6238 -675.8681 29178.7837 2.3901 2.3889
TCL: Running 1000000 steps at 300 kelvin.
TCL: Setting parameter langevinTemp to 300
TCL: Running for 1000000 steps
ETITLE: TS BOND ANGLE DIHED IMPRP ELECT VDW BOUNDARY MISC KINETIC TOTAL TEMP POTENTIAL TOTAL3 TEMPAVG PRESSURE GPRESSURE VOLUME PRESSAVG GPRESSAVG
ENERGY: 900000 1.3796 5.1152 4.4513 0.0000 -11071.0578 1456.1994 0.0000 0.0000 1595.1678 -8008.7444 274.0143 -9603.9123 -8005.9311 274.0143 -761.2744 -675.2184 29178.7837 -761.2744 -675.2184
ENERGY: 1100000 3.2869 5.6614 5.3479 0.0000 -10600.2232 1456.1622 0.0000 0.0000 1779.9058 -7349.8590 305.7482 -9129.7648 -7346.3390 300.1011 -80.6611 57.8663 30777.5762 1.8730 1.9615
ENERGY: 1300000 4.4634 3.8306 5.2782 0.0000 -10561.1456 1390.7162 0.0000 0.0000 1754.6247 -7402.2326 301.4055 -9156.8573 -7399.7911 300.2830 -88.9791 -71.1900 30156.8683 2.8818 2.7241
ENERGY: 1500000 5.1339 3.1333 6.5089 0.0000 -10564.3991 1406.7359 0.0000 0.0000 1742.7244 -7400.1628 299.3613 -9142.8872 -7396.4180 299.8168 -450.7955 -357.4304 30688.6800 2.9632 3.1207
ENERGY: 1700000 2.6921 2.6643 6.4674 0.0000 -10445.5089 1382.7214 0.0000 0.0000 1770.4144 -7280.5493 304.1178 -9050.9636 -7277.3785 300.5437 -53.7436 31.5725 30245.1060 3.6507 3.7736
ENERGY: 1900000 1.9824 1.4484 6.0935 0.0000 -10646.5691 1445.5510 0.0000 0.0000 1697.5301 -7493.9638 291.5979 -9191.4938 -7491.7679 299.7478 -52.0089 -3.8348 30275.2774 3.4335 3.4708
TCL: Exiting due to exit command.
