Info: SIMULATION PARAMETERS:
Info: TIMESTEP               2
Info: NUMBER OF STEPS        0
Info: STEPS PER CYCLE        10
Info: PERIODIC CELL BASIS 1  36.281 0 0
Info: PERIODIC CELL BASIS 2  0 34.26 0
Info: PERIODIC CELL BASIS 3  0 0 35.644
Info: PERIODIC CELL CENTER   0 0 0
Info: WRAPPING WATERS AROUND PERIODIC BOUNDARIES ON OUTPUT.
Info: WRAPPING ALL CLUSTERS AROUND PERIODIC BOUNDARIES ON OUTPUT.
Info: FIRST LDB TIMESTEP     50
Info: LAST LDB TIMESTEP     -1
Info: HOM BACKGROUND SCALING 1
Info: PME BACKGROUND SCALING 1
Info: MIN ATOMS PER PATCH    40
Info: EMPTY PATCH LOAD       40 ATOMS
Info: INITIAL TEMPERATURE    300
Info: CENTER OF MASS MOVING INITIALLY? NO
Info: DIELECTRIC             1
Info: EXCLUDE                SCALED ONE-FOUR
Info: 1-4 ELECTROSTATICS SCALED BY 0.833333
Info: MODIFIED 1-4 VDW PARAMETERS WILL BE USED
Info: DCD FILENAME           mobley_9838013_equil.dcd
Info: DCD FREQUENCY          100000
Info: DCD FIRST STEP         100000
Info: DCD FILE WILL CONTAIN UNIT CELL DATA
Info: XST FILENAME           mobley_9838013_equil.xst
Info: XST FREQUENCY          100000
Info: NO VELOCITY DCD OUTPUT
Info: NO FORCE DCD OUTPUT
Info: OUTPUT FILENAME        mobley_9838013_equil
Info: BINARY OUTPUT FILES WILL BE USED
Info: RESTART FILENAME       mobley_9838013_equil.restart
Info: RESTART FREQUENCY      100000
Info: BINARY RESTART FILES WILL BE USED
Info: CUTOFF                 9
Info: PAIRLIST DISTANCE      11
Info: PAIRLIST SHRINK RATE   0.01
Info: PAIRLIST GROW RATE     0.01
Info: PAIRLIST TRIGGER       0.3
Info: PAIRLISTS PER CYCLE    2
Info: PAIRLISTS ENABLED
Info: MARGIN                 8
Info: HYDROGEN GROUP CUTOFF  2.5
Info: PATCH DIMENSION        21.5
Info: ENERGY OUTPUT STEPS    100000
Info: ENERGY EVALUATION STEPS    100000
Info: OUTPUT ENERGY PRECISION 4
Info: CROSSTERM ENERGY INCLUDED IN DIHEDRAL
Info: TIMING OUTPUT STEPS    1000000
Info: PRESSURE OUTPUT STEPS  100000
Info: LANGEVIN DYNAMICS ACTIVE
Info: LANGEVIN TEMPERATURE   30
Info: LANGEVIN USING BBK INTEGRATOR
Info: LANGEVIN DAMPING COEFFICIENT IS 1 INVERSE PS
Info: LANGEVIN DYNAMICS APPLIED TO HYDROGENS
Info: LANGEVIN PISTON PRESSURE CONTROL ACTIVE
Info:        TARGET PRESSURE IS 1.01325 BAR
Info:     OSCILLATION PERIOD IS 50 FS
Info:             DECAY TIME IS 25 FS
Info:     PISTON TEMPERATURE IS 300 K
Info:       PRESSURE CONTROL IS GROUP-BASED
Info:    INITIAL STRAIN RATE IS 0 0 0
Info:       CELL FLUCTUATION IS ISOTROPIC
Info: PARTICLE MESH EWALD (PME) ACTIVE
Info: PME TOLERANCE               1e-06
Info: PME EWALD COEFFICIENT       0.348832
Info: PME INTERPOLATION ORDER     4
Info: PME GRID DIMENSIONS         40 36 36
Info: PME MAXIMUM GRID SPACING    1
Info: FULL ELECTROSTATIC EVALUATION FREQUENCY      2
Info: USING VERLET I (r-RESPA) MTS SCHEME.
Info: C1 SPLITTING OF LONG RANGE ELECTROSTATICS
Info: PLACING ATOMS IN PATCHES BY HYDROGEN GROUPS
Info: RIGID BONDS TO HYDROGEN : ALL
Info:         ERROR TOLERANCE : 1e-08
Info:          MAX ITERATIONS : 100
Info: RIGID WATER USING SETTLE ALGORITHM
Info: RANDOM NUMBER SEED     1743232503
Info: USE HYDROGEN BONDS?    NO
Info: Using AMBER format force field!
Info: AMBER PARM FILE        mobley_9838013.prmtop
Info: COORDINATE PDB         mobley_9838013.pdb
Info: Exclusions will be read from PARM file!
Info: SCNB (VDW SCALING)     2
Info: USING ARITHMETIC MEAN TO COMBINE L-J SIGMA PARAMETERS
Info: BINARY COORDINATES     mobley_9838013_min.coor
Info: SUMMARY OF PARAMETERS:
Info: 6 BONDS
Info: 5 ANGLES
Info:   5 HARMONIC
Info:   0 COSINE-BASED
Info: 8 DIHEDRAL
Info: 0 IMPROPER
Info: 0 CROSSTERM
Info: 0 VDW
Info: 15 VDW_PAIRS
Info: 0 NBTHOLE_PAIRS
Info: STRUCTURE SUMMARY:
Info: 2916 ATOMS
Info: 2915 BONDS
Info: 31 ANGLES
Info: 54 DIHEDRALS
Info: 0 IMPROPERS
Info: 0 CROSSTERMS
Info: 2985 EXCLUSIONS
Info: 2910 RIGID BONDS
Info: 5838 DEGREES OF FREEDOM
Info: 972 HYDROGEN GROUPS
Info: 4 ATOMS IN LARGEST HYDROGEN GROUP
Info: 972 MIGRATION GROUPS
Info: 4 ATOMS IN LARGEST MIGRATION GROUP
Info: TOTAL MASS = 17491.6 amu
Info: TOTAL CHARGE = 3.72529e-08 e
Info: MASS DENSITY = 0.655595 g/cm^3
Info: ATOM DENSITY = 0.0658165 atoms/A^3
Info: ADDED 0 IMPLICIT EXCLUSIONS
Info: NONBONDED TABLE R-SQUARED SPACING: 0.0625
Info: NONBONDED TABLE SIZE: 705 POINTS
Info: REMOVING COM VELOCITY 0.158896 0.130628 -0.17658
TCL: Running for 100000 steps
ETITLE: TS BOND ANGLE DIHED IMPRP ELECT VDW BOUNDARY MISC KINETIC TOTAL TEMP POTENTIAL TOTAL3 TEMPAVG PRESSURE GPRESSURE VOLUME PRESSAVG GPRESSAVG
ENERGY: 0 0.1334 1.1238 3.7648 0.0000 -13481.7280 2372.3804 0.0000 0.0000 1730.4573 -9373.8684 298.3233 -11104.3257 -9373.5123 298.3233 342.0014 371.0518 44305.0308 342.0014 371.0518
ENERGY: 100000 0.5756 1.5974 4.4607 0.0000 -14098.4337 2491.6856 0.0000 0.0000 173.4834 -11426.6310 29.9078 -11600.1145 -11426.1198 30.9226 419.0571 471.2669 28509.0859 3.5104 3.5012
TCL: Running 100000 steps at 60 kelvin.
TCL: Setting parameter langevinTemp to 60
TCL: Running for 100000 steps
ETITLE: TS BOND ANGLE DIHED IMPRP ELECT VDW BOUNDARY MISC KINETIC TOTAL TEMP POTENTIAL TOTAL3 TEMPAVG PRESSURE GPRESSURE VOLUME PRESSAVG GPRESSAVG
ENERGY: 100000 0.5756 1.5974 4.4607 0.0000 -14098.4337 2491.6856 0.0000 0.0000 173.3958 -11426.7187 29.8927 -11600.1145 -11426.3093 29.8927 426.0037 471.3603 28509.0859 426.0037 471.3603
ENERGY: 200000 0.3806 2.3845 4.3452 0.0000 -14041.2266 2486.5720 0.0000 0.0000 353.5314 -11194.0129 60.9473 -11547.5443 -11192.9596 60.0601 614.5308 701.0906 28260.5553 4.3708 4.3050
TCL: Running 100000 steps at 90 kelvin.
TCL: Setting parameter langevinTemp to 90
TCL: Running for 100000 steps
ETITLE: TS BOND ANGLE DIHED IMPRP ELECT VDW BOUNDARY MISC KINETIC TOTAL TEMP POTENTIAL TOTAL3 TEMPAVG PRESSURE GPRESSURE VOLUME PRESSAVG GPRESSAVG
ENERGY: 200000 0.3806 2.3845 4.3452 0.0000 -14041.2266 2486.5720 0.0000 0.0000 353.3570 -11194.1873 60.9172 -11547.5443 -11193.4681 60.9172 649.5803 701.4036 28260.5553 649.5803 701.4036
ENERGY: 300000 0.7217 1.9326 4.4040 0.0000 -13788.5132 2321.4858 0.0000 0.0000 522.7134 -10937.2557 90.1135 -11459.9691 -10936.1709 89.9604 -395.3093 -364.2805 28606.6012 3.8611 3.8455
TCL: Running 100000 steps at 120 kelvin.
TCL: Setting parameter langevinTemp to 120
TCL: Running for 100000 steps
ETITLE: TS BOND ANGLE DIHED IMPRP ELECT VDW BOUNDARY MISC KINETIC TOTAL TEMP POTENTIAL TOTAL3 TEMPAVG PRESSURE GPRESSURE VOLUME PRESSAVG GPRESSAVG
ENERGY: 300000 0.7217 1.9326 4.4040 0.0000 -13788.5132 2321.4858 0.0000 0.0000 522.4370 -10937.5322 90.0659 -11459.9691 -10936.5234 90.0659 -424.0032 -364.3817 28606.6012 -424.0032 -364.3817
ENERGY: 400000 0.6356 3.7287 4.9874 0.0000 -13607.8895 2267.3555 0.0000 0.0000 694.5200 -10636.6623 119.7322 -11331.1823 -10635.8415 120.0580 -713.2586 -673.8565 28993.2870 2.4870 2.4181
TCL: Running 100000 steps at 150 kelvin.
TCL: Setting parameter langevinTemp to 150
TCL: Running for 100000 steps
ETITLE: TS BOND ANGLE DIHED IMPRP ELECT VDW BOUNDARY MISC KINETIC TOTAL TEMP POTENTIAL TOTAL3 TEMPAVG PRESSURE GPRESSURE VOLUME PRESSAVG GPRESSAVG
ENERGY: 400000 0.6356 3.7287 4.9874 0.0000 -13607.8895 2267.3555 0.0000 0.0000 694.1643 -10637.0180 119.6709 -11331.1823 -10635.4371 119.6709 -709.9732 -674.2290 28993.2870 -709.9732 -674.2290
ENERGY: 500000 0.5961 3.5343 4.4529 0.0000 -13420.0542 2238.7436 0.0000 0.0000 868.0756 -10304.6517 149.6525 -11172.7273 -10301.4861 150.0846 -140.8876 -139.0021 28839.4239 3.8212 3.6826
TCL: Running 100000 steps at 180 kelvin.
TCL: Setting parameter langevinTemp to 180
TCL: Running for 100000 steps
ETITLE: TS BOND ANGLE DIHED IMPRP ELECT VDW BOUNDARY MISC KINETIC TOTAL TEMP POTENTIAL TOTAL3 TEMPAVG PRESSURE GPRESSURE VOLUME PRESSAVG GPRESSAVG
ENERGY: 500000 0.5961 3.5343 4.4529 0.0000 -13420.0542 2238.7436 0.0000 0.0000 867.6225 -10305.1049 149.5743 -11172.7273 -10303.3272 149.5743 -193.1994 -137.9056 28839.4239 -193.1994 -137.9056
ENERGY: 600000 1.6510 3.1428 3.8253 0.0000 -12933.5207 2036.5433 0.0000 0.0000 1074.0178 -9814.3406 185.1560 -10888.3584 -9812.0071 180.0331 -742.2648 -632.5959 28743.3962 3.8169 3.6925
TCL: Running 100000 steps at 210 kelvin.
TCL: Setting parameter langevinTemp to 210
TCL: Running for 100000 steps
ETITLE: TS BOND ANGLE DIHED IMPRP ELECT VDW BOUNDARY MISC KINETIC TOTAL TEMP POTENTIAL TOTAL3 TEMPAVG PRESSURE GPRESSURE VOLUME PRESSAVG GPRESSAVG
ENERGY: 600000 1.6510 3.1428 3.8253 0.0000 -12933.5207 2036.5433 0.0000 0.0000 1073.5269 -9814.8315 185.0714 -10888.3584 -9812.2147 185.0714 -702.3504 -634.4688 28743.3962 -702.3504 -634.4688
ENERGY: 700000 0.7067 7.2190 4.0744 0.0000 -12324.9748 1939.6707 0.0000 0.0000 1200.9776 -9172.3265 207.0433 -10373.3041 -9170.5881 210.3195 522.9964 564.8810 28526.1080 2.4509 2.2951
TCL: Running 100000 steps at 240 kelvin.
TCL: Setting parameter langevinTemp to 240
TCL: Running for 100000 steps
ETITLE: TS BOND ANGLE DIHED IMPRP ELECT VDW BOUNDARY MISC KINETIC TOTAL TEMP POTENTIAL TOTAL3 TEMPAVG PRESSURE GPRESSURE VOLUME PRESSAVG GPRESSAVG
ENERGY: 700000 0.7067 7.2190 4.0744 0.0000 -12324.9748 1939.6707 0.0000 0.0000 1200.3617 -9172.9424 206.9371 -10373.3041 -9171.7070 206.9371 497.5237 564.8859 28526.1080 497.5237 564.8859
ENERGY: 800000 0.5181 7.0902 4.6768 0.0000 -11733.1475 1721.3904 0.0000 0.0000 1398.2859 -8601.1860 241.0584 -9999.4719 -8597.9731 239.5176 123.3506 191.1063 28572.0133 4.8879 4.7834
TCL: Running 100000 steps at 270 kelvin.
TCL: Setting parameter langevinTemp to 270
TCL: Running for 100000 steps
ETITLE: TS BOND ANGLE DIHED IMPRP ELECT VDW BOUNDARY MISC KINETIC TOTAL TEMP POTENTIAL TOTAL3 TEMPAVG PRESSURE GPRESSURE VOLUME PRESSAVG GPRESSAVG
ENERGY: 800000 0.5181 7.0902 4.6768 0.0000 -11733.1475 1721.3904 0.0000 0.0000 1397.6032 -8601.8687 240.9407 -9999.4719 -8599.3193 240.9407 104.1830 188.1378 28572.0133 104.1830 188.1378
ENERGY: 900000 1.1731 6.7660 4.4091 0.0000 -11084.8804 1506.4503 0.0000 0.0000 1612.7971 -7953.2847 278.0392 -9566.0818 -7950.0113 270.3734 -236.8623 -150.3051 29203.8983 4.4716 4.3973
TCL: Running 1000000 steps at 300 kelvin.
TCL: Setting parameter langevinTemp to 300
TCL: Running for 1000000 steps
ETITLE: TS BOND ANGLE DIHED IMPRP ELECT VDW BOUNDARY MISC KINETIC TOTAL TEMP POTENTIAL TOTAL3 TEMPAVG PRESSURE GPRESSURE VOLUME PRESSAVG GPRESSAVG
ENERGY: 900000 1.1731 6.7660 4.4091 0.0000 -11084.8804 1506.4503 0.0000 0.0000 1612.0096 -7954.0722 277.9034 -9566.0818 -7951.3992 277.9034 -219.6206 -152.3789 29203.8983 -219.6206 -152.3789
ENERGY: 1100000 2.2933 7.2198 4.8110 0.0000 -10623.3959 1472.5590 0.0000 0.0000 1722.8227 -7413.6902 297.0071 -9136.5129 -7409.7912 300.1902 410.6578 546.7191 29895.8365 3.1310 3.2190
ENERGY: 1300000 1.0259 8.1401 4.6306 0.0000 -10303.0891 1234.8991 0.0000 0.0000 1783.8296 -7270.5638 307.5245 -9054.3934 -7266.3269 300.7957 -1135.7350 -1099.8074 30051.4423 2.2205 2.1861
ENERGY: 1500000 0.6624 4.8923 4.6543 0.0000 -10550.6852 1421.3778 0.0000 0.0000 1784.1648 -7334.9335 307.5823 -9119.0983 -7333.1867 299.4886 249.9073 270.7596 29864.3668 2.5468 2.5401
ENERGY: 1700000 1.7469 14.0655 3.9695 0.0000 -10605.0188 1430.6235 0.0000 0.0000 1749.4771 -7405.1363 301.6022 -9154.6134 -7400.1188 300.1761 -17.7375 94.7506 29808.7102 2.8724 2.9992
ENERGY: 1900000 1.5195 8.8425 4.8575 0.0000 -10638.7756 1485.8241 0.0000 0.0000 1710.3998 -7427.3322 294.8655 -9137.7320 -7424.2617 300.0803 369.1099 449.5078 30139.0739 4.2962 4.2939
TCL: Exiting due to exit command.
