Info: SIMULATION PARAMETERS:
Info: TIMESTEP               2
Info: NUMBER OF STEPS        0
Info: STEPS PER CYCLE        10
Info: PERIODIC CELL BASIS 1  34.207 0 0
Info: PERIODIC CELL BASIS 2  0 34.26 0
Info: PERIODIC CELL BASIS 3  0 0 37.451
Info: PERIODIC CELL CENTER   0 0 0
Info: WRAPPING WATERS AROUND PERIODIC BOUNDARIES ON OUTPUT.
Info: WRAPPING ALL CLUSTERS AROUND PERIODIC BOUNDARIES ON OUTPUT.
Info: FIRST LDB TIMESTEP     50
Info: LAST LDB TIMESTEP     -1
Info: HOM BACKGROUND SCALING 1
Info: PME BACKGROUND SCALING 1
Info: MIN ATOMS PER PATCH    40
Info: EMPTY PATCH LOAD       40 ATOMS
Info: INITIAL TEMPERATURE    300
Info: CENTER OF MASS MOVING INITIALLY? NO
Info: DIELECTRIC             1
Info: EXCLUDE                SCALED ONE-FOUR
Info: 1-4 ELECTROSTATICS SCALED BY 0.833333
Info: MODIFIED 1-4 VDW PARAMETERS WILL BE USED
Info: DCD FILENAME           mobley_6988468_equil.dcd
Info: DCD FREQUENCY          100000
Info: DCD FIRST STEP         100000
Info: DCD FILE WILL CONTAIN UNIT CELL DATA
Info: XST FILENAME           mobley_6988468_equil.xst
Info: XST FREQUENCY          100000
Info: NO VELOCITY DCD OUTPUT
Info: NO FORCE DCD OUTPUT
Info: OUTPUT FILENAME        mobley_6988468_equil
Info: BINARY OUTPUT FILES WILL BE USED
Info: RESTART FILENAME       mobley_6988468_equil.restart
Info: RESTART FREQUENCY      100000
Info: BINARY RESTART FILES WILL BE USED
Info: CUTOFF                 9
Info: PAIRLIST DISTANCE      11
Info: PAIRLIST SHRINK RATE   0.01
Info: PAIRLIST GROW RATE     0.01
Info: PAIRLIST TRIGGER       0.3
Info: PAIRLISTS PER CYCLE    2
Info: PAIRLISTS ENABLED
Info: MARGIN                 8
Info: HYDROGEN GROUP CUTOFF  2.5
Info: PATCH DIMENSION        21.5
Info: ENERGY OUTPUT STEPS    100000
Info: ENERGY EVALUATION STEPS    100000
Info: OUTPUT ENERGY PRECISION 4
Info: CROSSTERM ENERGY INCLUDED IN DIHEDRAL
Info: TIMING OUTPUT STEPS    1000000
Info: PRESSURE OUTPUT STEPS  100000
Info: LANGEVIN DYNAMICS ACTIVE
Info: LANGEVIN TEMPERATURE   30
Info: LANGEVIN USING BBK INTEGRATOR
Info: LANGEVIN DAMPING COEFFICIENT IS 1 INVERSE PS
Info: LANGEVIN DYNAMICS APPLIED TO HYDROGENS
Info: LANGEVIN PISTON PRESSURE CONTROL ACTIVE
Info:        TARGET PRESSURE IS 1.01325 BAR
Info:     OSCILLATION PERIOD IS 50 FS
Info:             DECAY TIME IS 25 FS
Info:     PISTON TEMPERATURE IS 300 K
Info:       PRESSURE CONTROL IS GROUP-BASED
Info:    INITIAL STRAIN RATE IS 0 0 0
Info:       CELL FLUCTUATION IS ISOTROPIC
Info: PARTICLE MESH EWALD (PME) ACTIVE
Info: PME TOLERANCE               1e-06
Info: PME EWALD COEFFICIENT       0.348832
Info: PME INTERPOLATION ORDER     4
Info: PME GRID DIMENSIONS         36 36 40
Info: PME MAXIMUM GRID SPACING    1
Info: FULL ELECTROSTATIC EVALUATION FREQUENCY      2
Info: USING VERLET I (r-RESPA) MTS SCHEME.
Info: C1 SPLITTING OF LONG RANGE ELECTROSTATICS
Info: PLACING ATOMS IN PATCHES BY HYDROGEN GROUPS
Info: RIGID BONDS TO HYDROGEN : ALL
Info:         ERROR TOLERANCE : 1e-08
Info:          MAX ITERATIONS : 100
Info: RIGID WATER USING SETTLE ALGORITHM
Info: RANDOM NUMBER SEED     1743231728
Info: USE HYDROGEN BONDS?    NO
Info: Using AMBER format force field!
Info: AMBER PARM FILE        mobley_6988468.prmtop
Info: COORDINATE PDB         mobley_6988468.pdb
Info: Exclusions will be read from PARM file!
Info: SCNB (VDW SCALING)     2
Info: USING ARITHMETIC MEAN TO COMBINE L-J SIGMA PARAMETERS
Info: BINARY COORDINATES     mobley_6988468_min.coor
Info: SUMMARY OF PARAMETERS:
Info: 9 BONDS
Info: 12 ANGLES
Info:   12 HARMONIC
Info:   0 COSINE-BASED
Info: 6 DIHEDRAL
Info: 0 IMPROPER
Info: 0 CROSSTERM
Info: 0 VDW
Info: 36 VDW_PAIRS
Info: 0 NBTHOLE_PAIRS
Info: STRUCTURE SUMMARY:
Info: 2963 ATOMS
Info: 2963 BONDS
Info: 28 ANGLES
Info: 40 DIHEDRALS
Info: 0 IMPROPERS
Info: 0 CROSSTERMS
Info: 3023 EXCLUSIONS
Info: 2955 RIGID BONDS
Info: 5934 DEGREES OF FREEDOM
Info: 990 HYDROGEN GROUPS
Info: 4 ATOMS IN LARGEST HYDROGEN GROUP
Info: 990 MIGRATION GROUPS
Info: 4 ATOMS IN LARGEST MIGRATION GROUP
Info: TOTAL MASS = 17798.9 amu
Info: TOTAL CHARGE = 0.000199962 e
Info: MASS DENSITY = 0.67342 g/cm^3
Info: ATOM DENSITY = 0.0675097 atoms/A^3
Info: ADDED 0 IMPLICIT EXCLUSIONS
Info: NONBONDED TABLE R-SQUARED SPACING: 0.0625
Info: NONBONDED TABLE SIZE: 705 POINTS
Info: REMOVING COM VELOCITY -0.051796 -0.0522921 0.10406
TCL: Running for 100000 steps
ETITLE: TS BOND ANGLE DIHED IMPRP ELECT VDW BOUNDARY MISC KINETIC TOTAL TEMP POTENTIAL TOTAL3 TEMPAVG PRESSURE GPRESSURE VOLUME PRESSAVG GPRESSAVG
ENERGY: 0 0.1865 0.4091 0.0967 0.0000 -13706.0759 2434.9064 0.0000 0.0000 1822.5964 -9447.8808 309.1245 -11270.4772 -9447.5131 309.1245 684.0388 725.6998 43890.0186 684.0388 725.6998
ENERGY: 100000 0.6773 0.8306 0.2093 0.0000 -14171.6391 2390.0172 0.0000 0.0000 181.8758 -11598.0289 30.8473 -11779.9047 -11597.5171 30.9671 -898.1408 -828.2180 29247.9348 4.4764 4.4817
TCL: Running 100000 steps at 60 kelvin.
TCL: Setting parameter langevinTemp to 60
TCL: Running for 100000 steps
ETITLE: TS BOND ANGLE DIHED IMPRP ELECT VDW BOUNDARY MISC KINETIC TOTAL TEMP POTENTIAL TOTAL3 TEMPAVG PRESSURE GPRESSURE VOLUME PRESSAVG GPRESSAVG
ENERGY: 100000 0.6773 0.8306 0.2093 0.0000 -14171.6391 2390.0172 0.0000 0.0000 181.7892 -11598.1155 30.8327 -11779.9047 -11597.7343 30.8327 -909.9964 -828.0947 29247.9348 -909.9964 -828.0947
ENERGY: 200000 0.2064 1.6757 0.1344 0.0000 -14251.5353 2510.5268 0.0000 0.0000 355.1816 -11383.8104 60.2412 -11738.9920 -11382.7943 60.0147 546.7782 589.4923 28562.3908 5.3415 5.3563
TCL: Running 100000 steps at 90 kelvin.
TCL: Setting parameter langevinTemp to 90
TCL: Running for 100000 steps
ETITLE: TS BOND ANGLE DIHED IMPRP ELECT VDW BOUNDARY MISC KINETIC TOTAL TEMP POTENTIAL TOTAL3 TEMPAVG PRESSURE GPRESSURE VOLUME PRESSAVG GPRESSAVG
ENERGY: 200000 0.2064 1.6757 0.1344 0.0000 -14251.5353 2510.5268 0.0000 0.0000 355.0161 -11383.9759 60.2131 -11738.9920 -11383.2356 60.2131 537.1274 589.7132 28562.3908 537.1274 589.7132
ENERGY: 300000 0.9281 3.0122 0.8360 0.0000 -13938.8945 2324.4134 0.0000 0.0000 526.5937 -11083.1112 89.3138 -11609.7048 -11081.8007 89.7221 -582.3484 -542.8610 28770.4001 5.6737 5.5003
TCL: Running 100000 steps at 120 kelvin.
TCL: Setting parameter langevinTemp to 120
TCL: Running for 100000 steps
ETITLE: TS BOND ANGLE DIHED IMPRP ELECT VDW BOUNDARY MISC KINETIC TOTAL TEMP POTENTIAL TOTAL3 TEMPAVG PRESSURE GPRESSURE VOLUME PRESSAVG GPRESSAVG
ENERGY: 300000 0.9281 3.0122 0.8360 0.0000 -13938.8945 2324.4134 0.0000 0.0000 526.3285 -11083.3764 89.2688 -11609.7048 -11082.1727 89.2688 -598.8450 -543.4346 28770.4001 -598.8450 -543.4346
ENERGY: 400000 0.7768 2.4388 0.4016 0.0000 -13884.6619 2392.2975 0.0000 0.0000 702.8564 -10785.8908 119.2091 -11488.7472 -10783.5992 120.0099 589.7501 655.1712 28609.4673 4.0917 4.1596
TCL: Running 100000 steps at 150 kelvin.
TCL: Setting parameter langevinTemp to 150
TCL: Running for 100000 steps
ETITLE: TS BOND ANGLE DIHED IMPRP ELECT VDW BOUNDARY MISC KINETIC TOTAL TEMP POTENTIAL TOTAL3 TEMPAVG PRESSURE GPRESSURE VOLUME PRESSAVG GPRESSAVG
ENERGY: 400000 0.7768 2.4388 0.4016 0.0000 -13884.6619 2392.2975 0.0000 0.0000 702.5128 -10786.2343 119.1508 -11488.7472 -10785.0418 119.1508 606.8997 655.7033 28609.4673 606.8997 655.7033
ENERGY: 500000 0.8739 1.7178 1.7719 0.0000 -13679.0107 2355.8360 0.0000 0.0000 897.1248 -10421.6863 152.1583 -11318.8111 -10419.3505 149.6773 852.8143 928.6416 28826.4656 3.0710 3.2239
TCL: Running 100000 steps at 180 kelvin.
TCL: Setting parameter langevinTemp to 180
TCL: Running for 100000 steps
ETITLE: TS BOND ANGLE DIHED IMPRP ELECT VDW BOUNDARY MISC KINETIC TOTAL TEMP POTENTIAL TOTAL3 TEMPAVG PRESSURE GPRESSURE VOLUME PRESSAVG GPRESSAVG
ENERGY: 500000 0.8739 1.7178 1.7719 0.0000 -13679.0107 2355.8360 0.0000 0.0000 896.6997 -10422.1114 152.0862 -11318.8111 -10420.5998 152.0862 876.8494 929.0188 28826.4656 876.8494 929.0188
ENERGY: 600000 1.1965 4.1148 0.6692 0.0000 -13132.7576 2084.5719 0.0000 0.0000 1077.5069 -9964.6983 182.7523 -11042.2052 -9962.6025 180.3045 -519.6994 -459.7596 29375.9419 3.6549 3.6079
TCL: Running 100000 steps at 210 kelvin.
TCL: Setting parameter langevinTemp to 210
TCL: Running for 100000 steps
ETITLE: TS BOND ANGLE DIHED IMPRP ELECT VDW BOUNDARY MISC KINETIC TOTAL TEMP POTENTIAL TOTAL3 TEMPAVG PRESSURE GPRESSURE VOLUME PRESSAVG GPRESSAVG
ENERGY: 600000 1.1965 4.1148 0.6692 0.0000 -13132.7576 2084.5719 0.0000 0.0000 1076.9805 -9965.2247 182.6630 -11042.2052 -9963.1978 182.6630 -549.5281 -459.2386 29375.9419 -549.5281 -459.2386
ENERGY: 700000 2.1058 5.4617 3.9260 0.0000 -12406.4762 1845.0716 0.0000 0.0000 1277.4897 -9272.4214 216.6707 -10549.9111 -9268.8048 209.5280 -424.1520 -442.9301 29010.0330 5.0645 5.0350
TCL: Running 100000 steps at 240 kelvin.
TCL: Setting parameter langevinTemp to 240
TCL: Running for 100000 steps
ETITLE: TS BOND ANGLE DIHED IMPRP ELECT VDW BOUNDARY MISC KINETIC TOTAL TEMP POTENTIAL TOTAL3 TEMPAVG PRESSURE GPRESSURE VOLUME PRESSAVG GPRESSAVG
ENERGY: 700000 2.1058 5.4617 3.9260 0.0000 -12406.4762 1845.0716 0.0000 0.0000 1276.8744 -9273.0367 216.5664 -10549.9111 -9270.4705 216.5664 -494.6701 -442.8003 29010.0330 -494.6701 -442.8003
ENERGY: 800000 0.7068 3.3889 4.1210 0.0000 -11804.0311 1684.1931 0.0000 0.0000 1385.5675 -8726.0537 235.0014 -10111.6212 -8722.5111 239.6632 -238.6872 -203.9257 29464.6445 3.4358 3.3065
TCL: Running 100000 steps at 270 kelvin.
TCL: Setting parameter langevinTemp to 270
TCL: Running for 100000 steps
ETITLE: TS BOND ANGLE DIHED IMPRP ELECT VDW BOUNDARY MISC KINETIC TOTAL TEMP POTENTIAL TOTAL3 TEMPAVG PRESSURE GPRESSURE VOLUME PRESSAVG GPRESSAVG
ENERGY: 800000 0.7068 3.3889 4.1210 0.0000 -11804.0311 1684.1931 0.0000 0.0000 1384.8480 -8726.7732 234.8794 -10111.6212 -8723.8489 234.8794 -284.3904 -204.9547 29464.6445 -284.3904 -204.9547
ENERGY: 900000 1.0914 6.8394 1.9690 0.0000 -11245.4429 1513.0145 0.0000 0.0000 1605.1708 -8117.3577 272.2476 -9722.5286 -8114.7446 269.6724 -255.1803 -207.0644 29459.9278 4.3501 4.3861
TCL: Running 1000000 steps at 300 kelvin.
TCL: Setting parameter langevinTemp to 300
TCL: Running for 1000000 steps
ETITLE: TS BOND ANGLE DIHED IMPRP ELECT VDW BOUNDARY MISC KINETIC TOTAL TEMP POTENTIAL TOTAL3 TEMPAVG PRESSURE GPRESSURE VOLUME PRESSAVG GPRESSAVG
ENERGY: 900000 1.0914 6.8394 1.9690 0.0000 -11245.4429 1513.0145 0.0000 0.0000 1604.3806 -8118.1480 272.1136 -9722.5286 -8115.1942 272.1136 -303.5895 -208.1556 29459.9278 -303.5895 -208.1556
ENERGY: 1100000 2.9030 9.5325 5.1611 0.0000 -10812.9877 1442.4954 0.0000 0.0000 1719.7999 -7633.0957 291.6895 -9352.8956 -7629.4966 300.3755 -509.1785 -395.2821 30834.0449 4.7875 4.7560
ENERGY: 1300000 4.2009 6.5697 3.6669 0.0000 -10836.5536 1476.7104 0.0000 0.0000 1789.8499 -7555.5559 303.5704 -9345.4058 -7554.3491 300.2742 178.8451 229.0565 30542.4545 3.9945 3.7898
ENERGY: 1500000 1.2789 4.9937 1.5431 0.0000 -10630.2775 1368.7239 0.0000 0.0000 1743.8438 -7509.8940 295.7675 -9253.7379 -7505.9329 300.3637 -708.6894 -610.7186 30854.9438 3.4888 3.4932
ENERGY: 1700000 2.1656 10.1682 0.9298 0.0000 -10688.0843 1429.2279 0.0000 0.0000 1722.8574 -7522.7353 292.2081 -9245.5927 -7520.0656 300.0169 -0.0165 69.7571 30669.7892 3.0077 3.0713
ENERGY: 1900000 0.4289 4.7454 2.3549 0.0000 -10742.0254 1418.3957 0.0000 0.0000 1811.5189 -7504.5817 307.2456 -9316.1006 -7500.2391 300.5295 69.2288 178.2332 30252.4161 3.1292 3.1170
TCL: Exiting due to exit command.
