Info: SIMULATION PARAMETERS:
Info: TIMESTEP               2
Info: NUMBER OF STEPS        0
Info: STEPS PER CYCLE        10
Info: PERIODIC CELL BASIS 1  35.01 0 0
Info: PERIODIC CELL BASIS 2  0 34.26 0
Info: PERIODIC CELL BASIS 3  0 0 36.199
Info: PERIODIC CELL CENTER   0 0 0
Info: WRAPPING WATERS AROUND PERIODIC BOUNDARIES ON OUTPUT.
Info: WRAPPING ALL CLUSTERS AROUND PERIODIC BOUNDARIES ON OUTPUT.
Info: FIRST LDB TIMESTEP     50
Info: LAST LDB TIMESTEP     -1
Info: HOM BACKGROUND SCALING 1
Info: PME BACKGROUND SCALING 1
Info: MIN ATOMS PER PATCH    40
Info: EMPTY PATCH LOAD       40 ATOMS
Info: INITIAL TEMPERATURE    300
Info: CENTER OF MASS MOVING INITIALLY? NO
Info: DIELECTRIC             1
Info: EXCLUDE                SCALED ONE-FOUR
Info: 1-4 ELECTROSTATICS SCALED BY 0.833333
Info: MODIFIED 1-4 VDW PARAMETERS WILL BE USED
Info: DCD FILENAME           mobley_6190089_equil.dcd
Info: DCD FREQUENCY          100000
Info: DCD FIRST STEP         100000
Info: DCD FILE WILL CONTAIN UNIT CELL DATA
Info: XST FILENAME           mobley_6190089_equil.xst
Info: XST FREQUENCY          100000
Info: NO VELOCITY DCD OUTPUT
Info: NO FORCE DCD OUTPUT
Info: OUTPUT FILENAME        mobley_6190089_equil
Info: BINARY OUTPUT FILES WILL BE USED
Info: RESTART FILENAME       mobley_6190089_equil.restart
Info: RESTART FREQUENCY      100000
Info: BINARY RESTART FILES WILL BE USED
Info: CUTOFF                 9
Info: PAIRLIST DISTANCE      11
Info: PAIRLIST SHRINK RATE   0.01
Info: PAIRLIST GROW RATE     0.01
Info: PAIRLIST TRIGGER       0.3
Info: PAIRLISTS PER CYCLE    2
Info: PAIRLISTS ENABLED
Info: MARGIN                 8
Info: HYDROGEN GROUP CUTOFF  2.5
Info: PATCH DIMENSION        21.5
Info: ENERGY OUTPUT STEPS    100000
Info: ENERGY EVALUATION STEPS    100000
Info: OUTPUT ENERGY PRECISION 4
Info: CROSSTERM ENERGY INCLUDED IN DIHEDRAL
Info: TIMING OUTPUT STEPS    1000000
Info: PRESSURE OUTPUT STEPS  100000
Info: LANGEVIN DYNAMICS ACTIVE
Info: LANGEVIN TEMPERATURE   30
Info: LANGEVIN USING BBK INTEGRATOR
Info: LANGEVIN DAMPING COEFFICIENT IS 1 INVERSE PS
Info: LANGEVIN DYNAMICS APPLIED TO HYDROGENS
Info: LANGEVIN PISTON PRESSURE CONTROL ACTIVE
Info:        TARGET PRESSURE IS 1.01325 BAR
Info:     OSCILLATION PERIOD IS 50 FS
Info:             DECAY TIME IS 25 FS
Info:     PISTON TEMPERATURE IS 300 K
Info:       PRESSURE CONTROL IS GROUP-BASED
Info:    INITIAL STRAIN RATE IS 0 0 0
Info:       CELL FLUCTUATION IS ISOTROPIC
Info: PARTICLE MESH EWALD (PME) ACTIVE
Info: PME TOLERANCE               1e-06
Info: PME EWALD COEFFICIENT       0.348832
Info: PME INTERPOLATION ORDER     4
Info: PME GRID DIMENSIONS         36 36 40
Info: PME MAXIMUM GRID SPACING    1
Info: FULL ELECTROSTATIC EVALUATION FREQUENCY      2
Info: USING VERLET I (r-RESPA) MTS SCHEME.
Info: C1 SPLITTING OF LONG RANGE ELECTROSTATICS
Info: PLACING ATOMS IN PATCHES BY HYDROGEN GROUPS
Info: RIGID BONDS TO HYDROGEN : ALL
Info:         ERROR TOLERANCE : 1e-08
Info:          MAX ITERATIONS : 100
Info: RIGID WATER USING SETTLE ALGORITHM
Info: RANDOM NUMBER SEED     1743223801
Info: USE HYDROGEN BONDS?    NO
Info: Using AMBER format force field!
Info: AMBER PARM FILE        mobley_6190089.prmtop
Info: COORDINATE PDB         mobley_6190089.pdb
Info: Exclusions will be read from PARM file!
Info: SCNB (VDW SCALING)     2
Info: USING ARITHMETIC MEAN TO COMBINE L-J SIGMA PARAMETERS
Info: BINARY COORDINATES     mobley_6190089_min.coor
Info: SUMMARY OF PARAMETERS:
Info: 5 BONDS
Info: 4 ANGLES
Info:   4 HARMONIC
Info:   0 COSINE-BASED
Info: 3 DIHEDRAL
Info: 0 IMPROPER
Info: 0 CROSSTERM
Info: 0 VDW
Info: 15 VDW_PAIRS
Info: 0 NBTHOLE_PAIRS
Info: STRUCTURE SUMMARY:
Info: 2978 ATOMS
Info: 2977 BONDS
Info: 12 ANGLES
Info: 13 DIHEDRALS
Info: 0 IMPROPERS
Info: 0 CROSSTERMS
Info: 2998 EXCLUSIONS
Info: 2972 RIGID BONDS
Info: 5962 DEGREES OF FREEDOM
Info: 996 HYDROGEN GROUPS
Info: 3 ATOMS IN LARGEST HYDROGEN GROUP
Info: 996 MIGRATION GROUPS
Info: 3 ATOMS IN LARGEST MIGRATION GROUP
Info: TOTAL MASS = 18003.7 amu
Info: TOTAL CHARGE = -0.000199974 e
Info: MASS DENSITY = 0.688564 g/cm^3
Info: ATOM DENSITY = 0.0685881 atoms/A^3
Info: ADDED 0 IMPLICIT EXCLUSIONS
Info: NONBONDED TABLE R-SQUARED SPACING: 0.0625
Info: NONBONDED TABLE SIZE: 705 POINTS
Info: REMOVING COM VELOCITY 0.0357618 -0.102334 -0.199247
TCL: Running for 100000 steps
ETITLE: TS BOND ANGLE DIHED IMPRP ELECT VDW BOUNDARY MISC KINETIC TOTAL TEMP POTENTIAL TOTAL3 TEMPAVG PRESSURE GPRESSURE VOLUME PRESSAVG GPRESSAVG
ENERGY: 0 0.0185 0.1418 1.5802 0.0000 -13815.1011 2407.2634 0.0000 0.0000 1768.2474 -9637.8498 298.4980 -11406.0972 -9637.5095 298.4980 326.6242 356.9745 43418.6227 326.6242 356.9745
ENERGY: 100000 0.1601 0.7505 1.8064 0.0000 -14444.2901 2601.4985 0.0000 0.0000 174.4870 -11665.5876 29.4552 -11840.0746 -11665.0631 30.9146 1199.3170 1264.3793 28866.2801 3.8688 3.8590
TCL: Running 100000 steps at 60 kelvin.
TCL: Setting parameter langevinTemp to 60
TCL: Running for 100000 steps
ETITLE: TS BOND ANGLE DIHED IMPRP ELECT VDW BOUNDARY MISC KINETIC TOTAL TEMP POTENTIAL TOTAL3 TEMPAVG PRESSURE GPRESSURE VOLUME PRESSAVG GPRESSAVG
ENERGY: 100000 0.1601 0.7505 1.8064 0.0000 -14444.2901 2601.4985 0.0000 0.0000 174.3997 -11665.6748 29.4404 -11840.0746 -11665.4368 29.4404 1203.2152 1264.3169 28866.2801 1203.2152 1264.3169
ENERGY: 200000 0.2047 0.9689 1.6875 0.0000 -14216.0930 2404.7329 0.0000 0.0000 355.9028 -11452.5962 60.0800 -11808.4991 -11452.0415 59.9533 -112.9436 -67.5375 28676.4334 4.8578 4.8751
TCL: Running 100000 steps at 90 kelvin.
TCL: Setting parameter langevinTemp to 90
TCL: Running for 100000 steps
ETITLE: TS BOND ANGLE DIHED IMPRP ELECT VDW BOUNDARY MISC KINETIC TOTAL TEMP POTENTIAL TOTAL3 TEMPAVG PRESSURE GPRESSURE VOLUME PRESSAVG GPRESSAVG
ENERGY: 200000 0.2047 0.9689 1.6875 0.0000 -14216.0930 2404.7329 0.0000 0.0000 355.7264 -11452.7726 60.0502 -11808.4991 -11452.0170 60.0502 -122.5313 -68.1244 28676.4334 -122.5313 -68.1244
ENERGY: 300000 0.5610 2.2391 1.7785 0.0000 -14000.0654 2306.5601 0.0000 0.0000 528.5706 -11160.3560 89.2281 -11688.9266 -11159.5797 89.8483 -724.4150 -661.7481 28746.2343 2.7877 2.8453
TCL: Running 100000 steps at 120 kelvin.
TCL: Setting parameter langevinTemp to 120
TCL: Running for 100000 steps
ETITLE: TS BOND ANGLE DIHED IMPRP ELECT VDW BOUNDARY MISC KINETIC TOTAL TEMP POTENTIAL TOTAL3 TEMPAVG PRESSURE GPRESSURE VOLUME PRESSAVG GPRESSAVG
ENERGY: 300000 0.5610 2.2391 1.7785 0.0000 -14000.0654 2306.5601 0.0000 0.0000 528.3069 -11160.6197 89.1835 -11688.9266 -11159.2588 89.1835 -713.6624 -662.9018 28746.2343 -713.6624 -662.9018
ENERGY: 400000 0.2148 2.3547 1.6032 0.0000 -14029.2989 2436.0867 0.0000 0.0000 720.4588 -10868.5807 121.6207 -11589.0394 -10866.0717 120.0848 565.9790 641.3326 28977.9379 5.5766 5.5033
TCL: Running 100000 steps at 150 kelvin.
TCL: Setting parameter langevinTemp to 150
TCL: Running for 100000 steps
ETITLE: TS BOND ANGLE DIHED IMPRP ELECT VDW BOUNDARY MISC KINETIC TOTAL TEMP POTENTIAL TOTAL3 TEMPAVG PRESSURE GPRESSURE VOLUME PRESSAVG GPRESSAVG
ENERGY: 400000 0.2148 2.3547 1.6032 0.0000 -14029.2989 2436.0867 0.0000 0.0000 720.1073 -10868.9321 121.5614 -11589.0394 -10867.8182 121.5614 592.6737 642.2710 28977.9379 592.6737 642.2710
ENERGY: 500000 0.8683 1.1205 1.6781 0.0000 -13810.0589 2356.6336 0.0000 0.0000 888.8068 -10560.9516 150.0396 -11449.7584 -10558.4585 149.9878 588.7762 640.6475 28906.6122 5.3634 5.3300
TCL: Running 100000 steps at 180 kelvin.
TCL: Setting parameter langevinTemp to 180
TCL: Running for 100000 steps
ETITLE: TS BOND ANGLE DIHED IMPRP ELECT VDW BOUNDARY MISC KINETIC TOTAL TEMP POTENTIAL TOTAL3 TEMPAVG PRESSURE GPRESSURE VOLUME PRESSAVG GPRESSAVG
ENERGY: 500000 0.8683 1.1205 1.6781 0.0000 -13810.0589 2356.6336 0.0000 0.0000 888.3596 -10561.3988 149.9641 -11449.7584 -10559.7636 149.9641 586.8785 641.7143 28906.6122 586.8785 641.7143
ENERGY: 600000 0.1982 0.7399 1.5891 0.0000 -13382.0209 2234.3186 0.0000 0.0000 1074.2799 -10070.8953 181.3493 -11145.1752 -10069.8887 180.1869 627.2882 637.7925 29336.7077 5.4673 5.4431
TCL: Running 100000 steps at 210 kelvin.
TCL: Setting parameter langevinTemp to 210
TCL: Running for 100000 steps
ETITLE: TS BOND ANGLE DIHED IMPRP ELECT VDW BOUNDARY MISC KINETIC TOTAL TEMP POTENTIAL TOTAL3 TEMPAVG PRESSURE GPRESSURE VOLUME PRESSAVG GPRESSAVG
ENERGY: 600000 0.1982 0.7399 1.5891 0.0000 -13382.0209 2234.3186 0.0000 0.0000 1073.7527 -10071.4225 181.2603 -11145.1752 -10069.4541 181.2603 587.2880 636.9699 29336.7077 587.2880 636.9699
ENERGY: 700000 1.7322 0.6472 1.5950 0.0000 -12680.4576 1993.8583 0.0000 0.0000 1235.3090 -9447.3158 208.5326 -10682.6248 -9445.2822 209.8381 476.6605 597.7036 28850.9508 3.4709 3.3337
TCL: Running 100000 steps at 240 kelvin.
TCL: Setting parameter langevinTemp to 240
TCL: Running for 100000 steps
ETITLE: TS BOND ANGLE DIHED IMPRP ELECT VDW BOUNDARY MISC KINETIC TOTAL TEMP POTENTIAL TOTAL3 TEMPAVG PRESSURE GPRESSURE VOLUME PRESSAVG GPRESSAVG
ENERGY: 700000 1.7322 0.6472 1.5950 0.0000 -12680.4576 1993.8583 0.0000 0.0000 1234.7103 -9447.9145 208.4316 -10682.6248 -9446.1171 208.4316 513.2003 597.7234 28850.9508 513.2003 597.7234
ENERGY: 800000 1.2732 3.7159 2.0276 0.0000 -11840.1147 1676.0961 0.0000 0.0000 1425.2560 -8731.7460 240.5976 -10157.0020 -8728.1803 240.1235 -497.1250 -381.9443 29527.5941 5.0154 4.8889
TCL: Running 100000 steps at 270 kelvin.
TCL: Setting parameter langevinTemp to 270
TCL: Running for 100000 steps
ETITLE: TS BOND ANGLE DIHED IMPRP ELECT VDW BOUNDARY MISC KINETIC TOTAL TEMP POTENTIAL TOTAL3 TEMPAVG PRESSURE GPRESSURE VOLUME PRESSAVG GPRESSAVG
ENERGY: 800000 1.2732 3.7159 2.0276 0.0000 -11840.1147 1676.0961 0.0000 0.0000 1424.5417 -8732.4603 240.4770 -10157.0020 -8729.9647 240.4770 -468.6979 -382.1424 29527.5941 -468.6979 -382.1424
ENERGY: 900000 0.1314 3.0961 1.6256 0.0000 -11438.0034 1566.1434 0.0000 0.0000 1622.2663 -8244.7405 273.8549 -9867.0069 -8242.9647 269.8924 -331.0425 -256.1173 29792.4762 4.4301 4.3808
TCL: Running 1000000 steps at 300 kelvin.
TCL: Setting parameter langevinTemp to 300
TCL: Running for 1000000 steps
ETITLE: TS BOND ANGLE DIHED IMPRP ELECT VDW BOUNDARY MISC KINETIC TOTAL TEMP POTENTIAL TOTAL3 TEMPAVG PRESSURE GPRESSURE VOLUME PRESSAVG GPRESSAVG
ENERGY: 900000 0.1314 3.0961 1.6256 0.0000 -11438.0034 1566.1434 0.0000 0.0000 1621.4778 -8245.5291 273.7218 -9867.0069 -8242.9093 273.7218 -349.2623 -258.5561 29792.4762 -349.2623 -258.5561
ENERGY: 1100000 0.9636 2.8282 2.5150 0.0000 -10838.6243 1452.9553 0.0000 0.0000 1837.6000 -7541.7622 310.2054 -9379.3623 -7539.0202 300.7513 221.6514 270.0370 30527.8678 2.2340 2.4405
ENERGY: 1300000 1.0787 2.8315 2.5913 0.0000 -10786.9998 1395.7679 0.0000 0.0000 1806.7603 -7577.9702 304.9994 -9384.7305 -7575.7734 300.2683 -419.8426 -274.7470 30574.8409 4.4037 4.5733
ENERGY: 1500000 1.6502 3.2712 2.7683 0.0000 -10606.5851 1319.5396 0.0000 0.0000 1790.6130 -7488.7429 302.2736 -9279.3559 -7486.6316 300.1738 -991.5039 -925.0257 31156.8909 2.8353 2.9718
ENERGY: 1700000 2.9133 5.1813 2.5694 0.0000 -10821.2399 1468.1175 0.0000 0.0000 1822.1868 -7520.2716 307.6035 -9342.4584 -7516.9226 299.7873 -31.0061 7.6672 31178.6869 3.5037 3.4815
ENERGY: 1900000 5.0142 4.9163 1.7537 0.0000 -10736.4654 1436.2956 0.0000 0.0000 1801.3091 -7487.1765 304.0792 -9288.4856 -7482.1042 299.7549 -208.4524 -101.2286 31048.1687 3.9017 3.9445
TCL: Exiting due to exit command.
