Info: SIMULATION PARAMETERS:
Info: TIMESTEP               2
Info: NUMBER OF STEPS        0
Info: STEPS PER CYCLE        10
Info: PERIODIC CELL BASIS 1  33.251 0 0
Info: PERIODIC CELL BASIS 2  0 39.013 0
Info: PERIODIC CELL BASIS 3  0 0 34.471
Info: PERIODIC CELL CENTER   0 0 0
Info: WRAPPING WATERS AROUND PERIODIC BOUNDARIES ON OUTPUT.
Info: WRAPPING ALL CLUSTERS AROUND PERIODIC BOUNDARIES ON OUTPUT.
Info: FIRST LDB TIMESTEP     50
Info: LAST LDB TIMESTEP     -1
Info: HOM BACKGROUND SCALING 1
Info: PME BACKGROUND SCALING 1
Info: MIN ATOMS PER PATCH    40
Info: EMPTY PATCH LOAD       40 ATOMS
Info: INITIAL TEMPERATURE    300
Info: CENTER OF MASS MOVING INITIALLY? NO
Info: DIELECTRIC             1
Info: EXCLUDE                SCALED ONE-FOUR
Info: 1-4 ELECTROSTATICS SCALED BY 0.833333
Info: MODIFIED 1-4 VDW PARAMETERS WILL BE USED
Info: DCD FILENAME           mobley_6935906_equil.dcd
Info: DCD FREQUENCY          100000
Info: DCD FIRST STEP         100000
Info: DCD FILE WILL CONTAIN UNIT CELL DATA
Info: XST FILENAME           mobley_6935906_equil.xst
Info: XST FREQUENCY          100000
Info: NO VELOCITY DCD OUTPUT
Info: NO FORCE DCD OUTPUT
Info: OUTPUT FILENAME        mobley_6935906_equil
Info: BINARY OUTPUT FILES WILL BE USED
Info: RESTART FILENAME       mobley_6935906_equil.restart
Info: RESTART FREQUENCY      100000
Info: BINARY RESTART FILES WILL BE USED
Info: CUTOFF                 9
Info: PAIRLIST DISTANCE      11
Info: PAIRLIST SHRINK RATE   0.01
Info: PAIRLIST GROW RATE     0.01
Info: PAIRLIST TRIGGER       0.3
Info: PAIRLISTS PER CYCLE    2
Info: PAIRLISTS ENABLED
Info: MARGIN                 8
Info: HYDROGEN GROUP CUTOFF  2.5
Info: PATCH DIMENSION        21.5
Info: ENERGY OUTPUT STEPS    100000
Info: ENERGY EVALUATION STEPS    100000
Info: OUTPUT ENERGY PRECISION 4
Info: CROSSTERM ENERGY INCLUDED IN DIHEDRAL
Info: TIMING OUTPUT STEPS    1000000
Info: PRESSURE OUTPUT STEPS  100000
Info: LANGEVIN DYNAMICS ACTIVE
Info: LANGEVIN TEMPERATURE   30
Info: LANGEVIN USING BBK INTEGRATOR
Info: LANGEVIN DAMPING COEFFICIENT IS 1 INVERSE PS
Info: LANGEVIN DYNAMICS APPLIED TO HYDROGENS
Info: LANGEVIN PISTON PRESSURE CONTROL ACTIVE
Info:        TARGET PRESSURE IS 1.01325 BAR
Info:     OSCILLATION PERIOD IS 50 FS
Info:             DECAY TIME IS 25 FS
Info:     PISTON TEMPERATURE IS 300 K
Info:       PRESSURE CONTROL IS GROUP-BASED
Info:    INITIAL STRAIN RATE IS 0 0 0
Info:       CELL FLUCTUATION IS ISOTROPIC
Info: PARTICLE MESH EWALD (PME) ACTIVE
Info: PME TOLERANCE               1e-06
Info: PME EWALD COEFFICIENT       0.348832
Info: PME INTERPOLATION ORDER     4
Info: PME GRID DIMENSIONS         36 40 36
Info: PME MAXIMUM GRID SPACING    1
Info: FULL ELECTROSTATIC EVALUATION FREQUENCY      2
Info: USING VERLET I (r-RESPA) MTS SCHEME.
Info: C1 SPLITTING OF LONG RANGE ELECTROSTATICS
Info: PLACING ATOMS IN PATCHES BY HYDROGEN GROUPS
Info: RIGID BONDS TO HYDROGEN : ALL
Info:         ERROR TOLERANCE : 1e-08
Info:          MAX ITERATIONS : 100
Info: RIGID WATER USING SETTLE ALGORITHM
Info: RANDOM NUMBER SEED     1743260801
Info: USE HYDROGEN BONDS?    NO
Info: Using AMBER format force field!
Info: AMBER PARM FILE        mobley_6935906.prmtop
Info: COORDINATE PDB         mobley_6935906.pdb
Info: Exclusions will be read from PARM file!
Info: SCNB (VDW SCALING)     2
Info: USING ARITHMETIC MEAN TO COMBINE L-J SIGMA PARAMETERS
Info: BINARY COORDINATES     mobley_6935906_min.coor
Info: SUMMARY OF PARAMETERS:
Info: 11 BONDS
Info: 17 ANGLES
Info:   17 HARMONIC
Info:   0 COSINE-BASED
Info: 24 DIHEDRAL
Info: 0 IMPROPER
Info: 0 CROSSTERM
Info: 0 VDW
Info: 36 VDW_PAIRS
Info: 0 NBTHOLE_PAIRS
Info: STRUCTURE SUMMARY:
Info: 2959 ATOMS
Info: 2958 BONDS
Info: 58 ANGLES
Info: 111 DIHEDRALS
Info: 0 IMPROPERS
Info: 0 CROSSTERMS
Info: 3086 EXCLUSIONS
Info: 2945 RIGID BONDS
Info: 5932 DEGREES OF FREEDOM
Info: 989 HYDROGEN GROUPS
Info: 4 ATOMS IN LARGEST HYDROGEN GROUP
Info: 989 MIGRATION GROUPS
Info: 4 ATOMS IN LARGEST MIGRATION GROUP
Info: TOTAL MASS = 17761.9 amu
Info: TOTAL CHARGE = -0.000100106 e
Info: MASS DENSITY = 0.659599 g/cm^3
Info: ATOM DENSITY = 0.0661724 atoms/A^3
Info: ADDED 0 IMPLICIT EXCLUSIONS
Info: NONBONDED TABLE R-SQUARED SPACING: 0.0625
Info: NONBONDED TABLE SIZE: 705 POINTS
Info: REMOVING COM VELOCITY -0.119772 -0.124955 0.00297322
TCL: Running for 100000 steps
ETITLE: TS BOND ANGLE DIHED IMPRP ELECT VDW BOUNDARY MISC KINETIC TOTAL TEMP POTENTIAL TOTAL3 TEMPAVG PRESSURE GPRESSURE VOLUME PRESSAVG GPRESSAVG
ENERGY: 0 0.5952 4.2794 20.4705 0.0000 -13689.0487 2414.0332 0.0000 0.0000 1802.4229 -9447.2476 305.8059 -11249.6704 -9446.8900 305.8059 471.4966 512.2194 44716.5142 471.4966 512.2194
ENERGY: 100000 2.1151 5.7547 20.7181 0.0000 -14058.6916 2313.1017 0.0000 0.0000 174.2022 -11542.7997 29.5558 -11717.0019 -11542.1882 30.9278 -1541.3136 -1478.6087 29634.3526 3.0202 3.0304
TCL: Running 100000 steps at 60 kelvin.
TCL: Setting parameter langevinTemp to 60
TCL: Running for 100000 steps
ETITLE: TS BOND ANGLE DIHED IMPRP ELECT VDW BOUNDARY MISC KINETIC TOTAL TEMP POTENTIAL TOTAL3 TEMPAVG PRESSURE GPRESSURE VOLUME PRESSAVG GPRESSAVG
ENERGY: 100000 2.1151 5.7547 20.7181 0.0000 -14058.6916 2313.1017 0.0000 0.0000 174.1180 -11542.8839 29.5415 -11717.0019 -11542.5119 29.5415 -1535.4147 -1478.2632 29634.3526 -1535.4147 -1478.2632
ENERGY: 200000 2.5074 8.5989 20.8569 0.0000 -13978.1965 2286.0772 0.0000 0.0000 355.5134 -11304.6426 60.3178 -11660.1560 -11303.3682 60.0133 -1338.6106 -1316.1985 29259.6016 4.3410 4.2983
TCL: Running 100000 steps at 90 kelvin.
TCL: Setting parameter langevinTemp to 90
TCL: Running for 100000 steps
ETITLE: TS BOND ANGLE DIHED IMPRP ELECT VDW BOUNDARY MISC KINETIC TOTAL TEMP POTENTIAL TOTAL3 TEMPAVG PRESSURE GPRESSURE VOLUME PRESSAVG GPRESSAVG
ENERGY: 200000 2.5074 8.5989 20.8569 0.0000 -13978.1965 2286.0772 0.0000 0.0000 355.3358 -11304.8202 60.2876 -11660.1560 -11304.0040 60.2876 -1365.5014 -1315.8373 29259.6016 -1365.5014 -1315.8373
ENERGY: 300000 1.8011 7.7570 21.7053 0.0000 -13864.5063 2284.9608 0.0000 0.0000 545.0017 -11003.2803 92.4671 -11548.2820 -11001.8310 89.9777 -775.9925 -742.0936 29100.2605 4.0800 4.0852
TCL: Running 100000 steps at 120 kelvin.
TCL: Setting parameter langevinTemp to 120
TCL: Running for 100000 steps
ETITLE: TS BOND ANGLE DIHED IMPRP ELECT VDW BOUNDARY MISC KINETIC TOTAL TEMP POTENTIAL TOTAL3 TEMPAVG PRESSURE GPRESSURE VOLUME PRESSAVG GPRESSAVG
ENERGY: 300000 1.8011 7.7570 21.7053 0.0000 -13864.5063 2284.9608 0.0000 0.0000 544.7440 -11003.5380 92.4233 -11548.2820 -11002.2124 92.4233 -791.8970 -741.8981 29100.2605 -791.8970 -741.8981
ENERGY: 400000 3.1914 7.1690 22.2249 0.0000 -13683.2768 2271.1714 0.0000 0.0000 715.7383 -10663.7817 121.4349 -11379.5200 -10661.0906 120.0645 -130.6773 -55.8425 28731.1403 4.7904 4.6929
TCL: Running 100000 steps at 150 kelvin.
TCL: Setting parameter langevinTemp to 150
TCL: Running for 100000 steps
ETITLE: TS BOND ANGLE DIHED IMPRP ELECT VDW BOUNDARY MISC KINETIC TOTAL TEMP POTENTIAL TOTAL3 TEMPAVG PRESSURE GPRESSURE VOLUME PRESSAVG GPRESSAVG
ENERGY: 400000 3.1914 7.1690 22.2249 0.0000 -13683.2768 2271.1714 0.0000 0.0000 715.3851 -10664.1350 121.3750 -11379.5200 -10662.7711 121.3750 -121.1975 -55.6237 28731.1403 -121.1975 -55.6237
ENERGY: 500000 2.2726 8.6889 22.7519 0.0000 -13443.7936 2176.0645 0.0000 0.0000 917.5209 -10316.4947 155.6701 -11234.0156 -10312.9084 149.8296 -295.1790 -290.3704 28720.9984 3.7843 3.6705
TCL: Running 100000 steps at 180 kelvin.
TCL: Setting parameter langevinTemp to 180
TCL: Running for 100000 steps
ETITLE: TS BOND ANGLE DIHED IMPRP ELECT VDW BOUNDARY MISC KINETIC TOTAL TEMP POTENTIAL TOTAL3 TEMPAVG PRESSURE GPRESSURE VOLUME PRESSAVG GPRESSAVG
ENERGY: 500000 2.2726 8.6889 22.7519 0.0000 -13443.7936 2176.0645 0.0000 0.0000 917.0911 -10316.9245 155.5972 -11234.0156 -10314.9285 155.5972 -343.7148 -289.7212 28720.9984 -343.7148 -289.7212
ENERGY: 600000 2.6005 10.5690 23.4934 0.0000 -13141.5137 2128.1699 0.0000 0.0000 1109.1826 -9867.4983 188.1882 -10976.6809 -9864.9682 179.7803 138.2534 301.8224 28616.9440 3.5688 3.6094
TCL: Running 100000 steps at 210 kelvin.
TCL: Setting parameter langevinTemp to 210
TCL: Running for 100000 steps
ETITLE: TS BOND ANGLE DIHED IMPRP ELECT VDW BOUNDARY MISC KINETIC TOTAL TEMP POTENTIAL TOTAL3 TEMPAVG PRESSURE GPRESSURE VOLUME PRESSAVG GPRESSAVG
ENERGY: 600000 2.6005 10.5690 23.4934 0.0000 -13141.5137 2128.1699 0.0000 0.0000 1108.6531 -9868.0277 188.0983 -10976.6809 -9865.9495 188.0983 228.1642 302.5536 28616.9440 228.1642 302.5536
ENERGY: 700000 2.8301 15.7197 22.9549 0.0000 -12482.0639 1917.1349 0.0000 0.0000 1213.8297 -9309.5947 205.9430 -10523.4243 -9306.3395 209.6401 312.4016 300.8716 28692.7656 4.2542 4.4168
TCL: Running 100000 steps at 240 kelvin.
TCL: Setting parameter langevinTemp to 240
TCL: Running for 100000 steps
ETITLE: TS BOND ANGLE DIHED IMPRP ELECT VDW BOUNDARY MISC KINETIC TOTAL TEMP POTENTIAL TOTAL3 TEMPAVG PRESSURE GPRESSURE VOLUME PRESSAVG GPRESSAVG
ENERGY: 700000 2.8301 15.7197 22.9549 0.0000 -12482.0639 1917.1349 0.0000 0.0000 1213.2030 -9310.2214 205.8367 -10523.4244 -9307.8330 205.8367 233.3791 301.7547 28692.7656 233.3791 301.7547
ENERGY: 800000 3.1209 14.9413 22.7780 0.0000 -11931.7374 1775.8199 0.0000 0.0000 1434.4006 -8680.6766 243.3659 -10115.0772 -8677.2697 240.0632 455.0763 571.0097 29005.8769 3.3373 3.5021
TCL: Running 100000 steps at 270 kelvin.
TCL: Setting parameter langevinTemp to 270
TCL: Running for 100000 steps
ETITLE: TS BOND ANGLE DIHED IMPRP ELECT VDW BOUNDARY MISC KINETIC TOTAL TEMP POTENTIAL TOTAL3 TEMPAVG PRESSURE GPRESSURE VOLUME PRESSAVG GPRESSAVG
ENERGY: 800000 3.1209 14.9413 22.7780 0.0000 -11931.7374 1775.8199 0.0000 0.0000 1433.7098 -8681.3674 243.2487 -10115.0772 -8678.7835 243.2487 477.5169 569.6025 29005.8769 477.5169 569.6025
ENERGY: 900000 5.0692 17.7028 25.8464 0.0000 -11220.8949 1570.4336 0.0000 0.0000 1529.5804 -8072.2624 259.5145 -9601.8429 -8067.4049 269.6772 -74.2888 9.0079 30024.1643 2.9293 2.8422
TCL: Running 1000000 steps at 300 kelvin.
TCL: Setting parameter langevinTemp to 300
TCL: Running for 1000000 steps
ETITLE: TS BOND ANGLE DIHED IMPRP ELECT VDW BOUNDARY MISC KINETIC TOTAL TEMP POTENTIAL TOTAL3 TEMPAVG PRESSURE GPRESSURE VOLUME PRESSAVG GPRESSAVG
ENERGY: 900000 5.0692 17.7028 25.8464 0.0000 -11220.8949 1570.4336 0.0000 0.0000 1528.7826 -8073.0602 259.3791 -9601.8429 -8070.2265 259.3791 -80.1162 9.7586 30024.1643 -80.1162 9.7586
ENERGY: 1100000 4.8143 13.7166 23.6643 0.0000 -10791.9406 1429.9214 0.0000 0.0000 1740.2755 -7579.5486 295.2618 -9319.8241 -7574.8294 300.1847 -181.8715 -118.8096 30494.9079 3.4392 3.3204
ENERGY: 1300000 2.9689 13.6497 26.3545 0.0000 -10577.1351 1361.0392 0.0000 0.0000 1845.4564 -7327.6664 313.1072 -9173.1228 -7326.9960 300.1103 -192.4710 -123.0632 30519.4816 4.8051 4.7495
ENERGY: 1500000 5.8162 24.0605 25.4165 0.0000 -10728.2330 1435.9681 0.0000 0.0000 1761.4366 -7475.5351 298.8521 -9236.9718 -7473.4755 299.6336 -74.8230 -65.3266 30725.6956 2.1115 2.1987
ENERGY: 1700000 4.5389 14.9706 24.1617 0.0000 -10797.2905 1513.9156 0.0000 0.0000 1797.9930 -7441.7107 305.0544 -9239.7037 -7435.7383 300.9290 420.8080 505.1767 30742.8532 3.6813 3.7660
ENERGY: 1900000 8.2360 21.9698 23.5787 0.0000 -10687.5153 1409.3758 0.0000 0.0000 1798.6164 -7425.7386 305.1601 -9224.3550 -7420.0660 300.2938 167.7832 214.2752 30133.6801 4.0797 3.7590
TCL: Exiting due to exit command.
