Info: SIMULATION PARAMETERS:
Info: TIMESTEP               2
Info: NUMBER OF STEPS        0
Info: STEPS PER CYCLE        10
Info: PERIODIC CELL BASIS 1  35.01 0 0
Info: PERIODIC CELL BASIS 2  0 34.26 0
Info: PERIODIC CELL BASIS 3  0 0 36.199
Info: PERIODIC CELL CENTER   0 0 0
Info: WRAPPING WATERS AROUND PERIODIC BOUNDARIES ON OUTPUT.
Info: WRAPPING ALL CLUSTERS AROUND PERIODIC BOUNDARIES ON OUTPUT.
Info: FIRST LDB TIMESTEP     50
Info: LAST LDB TIMESTEP     -1
Info: HOM BACKGROUND SCALING 1
Info: PME BACKGROUND SCALING 1
Info: MIN ATOMS PER PATCH    40
Info: EMPTY PATCH LOAD       40 ATOMS
Info: INITIAL TEMPERATURE    300
Info: CENTER OF MASS MOVING INITIALLY? NO
Info: DIELECTRIC             1
Info: EXCLUDE                SCALED ONE-FOUR
Info: 1-4 ELECTROSTATICS SCALED BY 0.833333
Info: MODIFIED 1-4 VDW PARAMETERS WILL BE USED
Info: DCD FILENAME           mobley_2422586_equil.dcd
Info: DCD FREQUENCY          100000
Info: DCD FIRST STEP         100000
Info: DCD FILE WILL CONTAIN UNIT CELL DATA
Info: XST FILENAME           mobley_2422586_equil.xst
Info: XST FREQUENCY          100000
Info: NO VELOCITY DCD OUTPUT
Info: NO FORCE DCD OUTPUT
Info: OUTPUT FILENAME        mobley_2422586_equil
Info: BINARY OUTPUT FILES WILL BE USED
Info: RESTART FILENAME       mobley_2422586_equil.restart
Info: RESTART FREQUENCY      100000
Info: BINARY RESTART FILES WILL BE USED
Info: CUTOFF                 9
Info: PAIRLIST DISTANCE      11
Info: PAIRLIST SHRINK RATE   0.01
Info: PAIRLIST GROW RATE     0.01
Info: PAIRLIST TRIGGER       0.3
Info: PAIRLISTS PER CYCLE    2
Info: PAIRLISTS ENABLED
Info: MARGIN                 8
Info: HYDROGEN GROUP CUTOFF  2.5
Info: PATCH DIMENSION        21.5
Info: ENERGY OUTPUT STEPS    100000
Info: ENERGY EVALUATION STEPS    100000
Info: OUTPUT ENERGY PRECISION 4
Info: CROSSTERM ENERGY INCLUDED IN DIHEDRAL
Info: TIMING OUTPUT STEPS    1000000
Info: PRESSURE OUTPUT STEPS  100000
Info: LANGEVIN DYNAMICS ACTIVE
Info: LANGEVIN TEMPERATURE   30
Info: LANGEVIN USING BBK INTEGRATOR
Info: LANGEVIN DAMPING COEFFICIENT IS 1 INVERSE PS
Info: LANGEVIN DYNAMICS APPLIED TO HYDROGENS
Info: LANGEVIN PISTON PRESSURE CONTROL ACTIVE
Info:        TARGET PRESSURE IS 1.01325 BAR
Info:     OSCILLATION PERIOD IS 50 FS
Info:             DECAY TIME IS 25 FS
Info:     PISTON TEMPERATURE IS 300 K
Info:       PRESSURE CONTROL IS GROUP-BASED
Info:    INITIAL STRAIN RATE IS 0 0 0
Info:       CELL FLUCTUATION IS ISOTROPIC
Info: PARTICLE MESH EWALD (PME) ACTIVE
Info: PME TOLERANCE               1e-06
Info: PME EWALD COEFFICIENT       0.348832
Info: PME INTERPOLATION ORDER     4
Info: PME GRID DIMENSIONS         36 36 40
Info: PME MAXIMUM GRID SPACING    1
Info: FULL ELECTROSTATIC EVALUATION FREQUENCY      2
Info: USING VERLET I (r-RESPA) MTS SCHEME.
Info: C1 SPLITTING OF LONG RANGE ELECTROSTATICS
Info: PLACING ATOMS IN PATCHES BY HYDROGEN GROUPS
Info: RIGID BONDS TO HYDROGEN : ALL
Info:         ERROR TOLERANCE : 1e-08
Info:          MAX ITERATIONS : 100
Info: RIGID WATER USING SETTLE ALGORITHM
Info: RANDOM NUMBER SEED     1743241024
Info: USE HYDROGEN BONDS?    NO
Info: Using AMBER format force field!
Info: AMBER PARM FILE        mobley_2422586.prmtop
Info: COORDINATE PDB         mobley_2422586.pdb
Info: Exclusions will be read from PARM file!
Info: SCNB (VDW SCALING)     2
Info: USING ARITHMETIC MEAN TO COMBINE L-J SIGMA PARAMETERS
Info: BINARY COORDINATES     mobley_2422586_min.coor
Info: SUMMARY OF PARAMETERS:
Info: 6 BONDS
Info: 8 ANGLES
Info:   8 HARMONIC
Info:   0 COSINE-BASED
Info: 8 DIHEDRAL
Info: 0 IMPROPER
Info: 0 CROSSTERM
Info: 0 VDW
Info: 21 VDW_PAIRS
Info: 0 NBTHOLE_PAIRS
Info: STRUCTURE SUMMARY:
Info: 2973 ATOMS
Info: 2972 BONDS
Info: 25 ANGLES
Info: 27 DIHEDRALS
Info: 0 IMPROPERS
Info: 0 CROSSTERMS
Info: 3021 EXCLUSIONS
Info: 2968 RIGID BONDS
Info: 5951 DEGREES OF FREEDOM
Info: 991 HYDROGEN GROUPS
Info: 4 ATOMS IN LARGEST HYDROGEN GROUP
Info: 991 MIGRATION GROUPS
Info: 4 ATOMS IN LARGEST MIGRATION GROUP
Info: TOTAL MASS = 17837.9 amu
Info: TOTAL CHARGE = 7.45058e-09 e
Info: MASS DENSITY = 0.682224 g/cm^3
Info: ATOM DENSITY = 0.0684729 atoms/A^3
Info: ADDED 0 IMPLICIT EXCLUSIONS
Info: NONBONDED TABLE R-SQUARED SPACING: 0.0625
Info: NONBONDED TABLE SIZE: 705 POINTS
Info: REMOVING COM VELOCITY 0.0502596 -0.0303315 -0.153659
TCL: Running for 100000 steps
ETITLE: TS BOND ANGLE DIHED IMPRP ELECT VDW BOUNDARY MISC KINETIC TOTAL TEMP POTENTIAL TOTAL3 TEMPAVG PRESSURE GPRESSURE VOLUME PRESSAVG GPRESSAVG
ENERGY: 0 0.0344 0.1412 0.7822 0.0000 -13797.4757 2435.0317 0.0000 0.0000 1757.7544 -9603.7318 297.2752 -11361.4862 -9603.4136 297.2752 500.9287 534.0663 43418.6227 500.9287 534.0663
ENERGY: 100000 0.2743 0.5309 1.1181 0.0000 -14407.9679 2600.0918 0.0000 0.0000 174.2699 -11631.6829 29.4729 -11805.9528 -11631.4313 30.9104 797.4616 852.9969 29431.5962 3.2762 3.2118
TCL: Running 100000 steps at 60 kelvin.
TCL: Setting parameter langevinTemp to 60
TCL: Running for 100000 steps
ETITLE: TS BOND ANGLE DIHED IMPRP ELECT VDW BOUNDARY MISC KINETIC TOTAL TEMP POTENTIAL TOTAL3 TEMPAVG PRESSURE GPRESSURE VOLUME PRESSAVG GPRESSAVG
ENERGY: 100000 0.2743 0.5309 1.1181 0.0000 -14407.9679 2600.0918 0.0000 0.0000 174.1854 -11631.7674 29.4586 -11805.9528 -11631.4530 29.4586 796.7505 852.7765 29431.5962 796.7505 852.7765
ENERGY: 200000 0.5758 1.4243 1.0954 0.0000 -14160.6959 2405.2631 0.0000 0.0000 350.9728 -11401.3645 59.3573 -11752.3373 -11400.2287 59.8652 -708.3773 -636.8445 29569.4106 3.9933 3.9986
TCL: Running 100000 steps at 90 kelvin.
TCL: Setting parameter langevinTemp to 90
TCL: Running for 100000 steps
ETITLE: TS BOND ANGLE DIHED IMPRP ELECT VDW BOUNDARY MISC KINETIC TOTAL TEMP POTENTIAL TOTAL3 TEMPAVG PRESSURE GPRESSURE VOLUME PRESSAVG GPRESSAVG
ENERGY: 200000 0.5758 1.4243 1.0954 0.0000 -14160.6959 2405.2631 0.0000 0.0000 350.8031 -11401.5342 59.3286 -11752.3373 -11400.6178 59.3286 -689.4657 -636.9106 29569.4106 -689.4657 -636.9106
ENERGY: 300000 0.3878 1.1508 1.0929 0.0000 -14029.8465 2371.6817 0.0000 0.0000 531.6520 -11123.8813 89.9141 -11655.5333 -11122.5554 89.8755 -440.7699 -385.3991 29304.4654 4.7291 4.6303
TCL: Running 100000 steps at 120 kelvin.
TCL: Setting parameter langevinTemp to 120
TCL: Running for 100000 steps
ETITLE: TS BOND ANGLE DIHED IMPRP ELECT VDW BOUNDARY MISC KINETIC TOTAL TEMP POTENTIAL TOTAL3 TEMPAVG PRESSURE GPRESSURE VOLUME PRESSAVG GPRESSAVG
ENERGY: 300000 0.3878 1.1508 1.0929 0.0000 -14029.8465 2371.6817 0.0000 0.0000 531.3948 -11124.1385 89.8706 -11655.5333 -11123.0283 89.8706 -427.0459 -385.6363 29304.4654 -427.0459 -385.6363
ENERGY: 400000 0.9293 2.0185 0.8632 0.0000 -13962.5105 2406.6214 0.0000 0.0000 714.1237 -10837.9545 120.7741 -11552.0782 -10835.8559 119.8035 224.1357 304.0474 29244.8769 3.2233 3.2939
TCL: Running 100000 steps at 150 kelvin.
TCL: Setting parameter langevinTemp to 150
TCL: Running for 100000 steps
ETITLE: TS BOND ANGLE DIHED IMPRP ELECT VDW BOUNDARY MISC KINETIC TOTAL TEMP POTENTIAL TOTAL3 TEMPAVG PRESSURE GPRESSURE VOLUME PRESSAVG GPRESSAVG
ENERGY: 400000 0.9293 2.0185 0.8632 0.0000 -13962.5105 2406.6214 0.0000 0.0000 713.7775 -10838.3007 120.7156 -11552.0782 -10836.8215 120.7156 242.8386 304.1950 29244.8769 242.8386 304.1950
ENERGY: 500000 0.9924 4.5593 1.0575 0.0000 -13738.9926 2327.1135 0.0000 0.0000 900.7979 -10504.4721 152.3449 -11405.2700 -10502.4476 149.8755 282.4657 334.4139 29085.2810 3.4649 3.5881
TCL: Running 100000 steps at 180 kelvin.
TCL: Setting parameter langevinTemp to 180
TCL: Running for 100000 steps
ETITLE: TS BOND ANGLE DIHED IMPRP ELECT VDW BOUNDARY MISC KINETIC TOTAL TEMP POTENTIAL TOTAL3 TEMPAVG PRESSURE GPRESSURE VOLUME PRESSAVG GPRESSAVG
ENERGY: 500000 0.9924 4.5593 1.0575 0.0000 -13738.9926 2327.1135 0.0000 0.0000 900.3532 -10504.9168 152.2696 -11405.2700 -10502.9671 152.2696 276.8197 334.2679 29085.2810 276.8197 334.2679
ENERGY: 600000 0.6534 6.1952 2.3005 0.0000 -13159.7243 2119.7890 0.0000 0.0000 1074.3966 -9956.3896 181.7042 -11030.7862 -9954.4520 180.2159 183.4181 237.0173 28761.0353 3.5939 3.6736
TCL: Running 100000 steps at 210 kelvin.
TCL: Setting parameter langevinTemp to 210
TCL: Running for 100000 steps
ETITLE: TS BOND ANGLE DIHED IMPRP ELECT VDW BOUNDARY MISC KINETIC TOTAL TEMP POTENTIAL TOTAL3 TEMPAVG PRESSURE GPRESSURE VOLUME PRESSAVG GPRESSAVG
ENERGY: 600000 0.6534 6.1952 2.3005 0.0000 -13159.7243 2119.7890 0.0000 0.0000 1073.8686 -9956.9176 181.6149 -11030.7862 -9954.7528 181.6149 178.2507 234.8720 28761.0353 178.2507 234.8720
ENERGY: 700000 0.4156 5.0991 0.8678 0.0000 -12455.5607 1888.7925 0.0000 0.0000 1207.5821 -9352.8037 204.2289 -10560.3858 -9349.6573 209.9903 -124.2946 -49.4275 29008.6931 4.1899 4.1769
TCL: Running 100000 steps at 240 kelvin.
TCL: Setting parameter langevinTemp to 240
TCL: Running for 100000 steps
ETITLE: TS BOND ANGLE DIHED IMPRP ELECT VDW BOUNDARY MISC KINETIC TOTAL TEMP POTENTIAL TOTAL3 TEMPAVG PRESSURE GPRESSURE VOLUME PRESSAVG GPRESSAVG
ENERGY: 700000 0.4156 5.0991 0.8678 0.0000 -12455.5607 1888.7925 0.0000 0.0000 1206.9527 -9353.4330 204.1224 -10560.3858 -9351.6687 204.1224 -131.2398 -48.0928 29008.6931 -131.2398 -48.0928
ENERGY: 800000 0.4544 2.5464 1.5034 0.0000 -11868.1844 1730.8905 0.0000 0.0000 1439.7645 -8693.0251 243.4960 -10132.7896 -8691.4089 239.7999 -159.3191 -24.4799 29464.0024 3.5882 3.6229
TCL: Running 100000 steps at 270 kelvin.
TCL: Setting parameter langevinTemp to 270
TCL: Running for 100000 steps
ETITLE: TS BOND ANGLE DIHED IMPRP ELECT VDW BOUNDARY MISC KINETIC TOTAL TEMP POTENTIAL TOTAL3 TEMPAVG PRESSURE GPRESSURE VOLUME PRESSAVG GPRESSAVG
ENERGY: 800000 0.4544 2.5464 1.5034 0.0000 -11868.1844 1730.8905 0.0000 0.0000 1439.0344 -8693.7552 243.3726 -10132.7896 -8690.8763 243.3726 -118.0273 -26.7761 29464.0024 -118.0273 -26.7761
ENERGY: 900000 0.2322 5.0076 1.5544 0.0000 -11176.5466 1457.4782 0.0000 0.0000 1593.7225 -8118.5517 269.5337 -9712.2742 -8116.8773 269.4496 -884.5894 -874.9754 30045.0465 4.2804 4.3453
TCL: Running 1000000 steps at 300 kelvin.
TCL: Setting parameter langevinTemp to 300
TCL: Running for 1000000 steps
ETITLE: TS BOND ANGLE DIHED IMPRP ELECT VDW BOUNDARY MISC KINETIC TOTAL TEMP POTENTIAL TOTAL3 TEMPAVG PRESSURE GPRESSURE VOLUME PRESSAVG GPRESSAVG
ENERGY: 900000 0.2322 5.0076 1.5544 0.0000 -11176.5466 1457.4782 0.0000 0.0000 1592.9268 -8119.3474 269.3992 -9712.2742 -8117.1317 269.3992 -954.0551 -875.5963 30045.0465 -954.0551 -875.5963
ENERGY: 1100000 0.7127 3.4940 0.9341 0.0000 -10970.0070 1580.9624 0.0000 0.0000 1779.3494 -7604.5545 300.9274 -9383.9039 -7601.5296 299.8625 894.3939 981.3565 30366.8674 2.4079 2.6312
ENERGY: 1300000 1.1283 5.6750 1.4497 0.0000 -10911.4668 1496.0975 0.0000 0.0000 1749.5549 -7657.5613 295.8885 -9407.1162 -7653.9181 300.4048 249.1032 248.4032 30650.8129 3.8146 3.7873
ENERGY: 1500000 1.8716 7.1951 1.1756 0.0000 -10835.9531 1446.8325 0.0000 0.0000 1791.0328 -7587.8455 302.9033 -9378.8784 -7584.8147 300.5730 -126.0964 -26.3701 30465.1394 3.5899 3.6006
ENERGY: 1700000 2.3666 5.5303 4.2133 0.0000 -10723.7958 1328.2716 0.0000 0.0000 1793.5268 -7589.8871 303.3251 -9383.4139 -7586.1465 300.6044 -1187.3452 -1159.0329 30582.7898 2.3368 2.3072
ENERGY: 1900000 1.5468 6.0851 1.5458 0.0000 -10823.6274 1481.9943 0.0000 0.0000 1805.6324 -7526.8231 305.3724 -9332.4555 -7525.5352 300.0567 158.8487 332.9351 30391.2431 2.8225 2.7760
TCL: Exiting due to exit command.
