Info: SIMULATION PARAMETERS:
Info: TIMESTEP               2
Info: NUMBER OF STEPS        0
Info: STEPS PER CYCLE        10
Info: PERIODIC CELL BASIS 1  35.01 0 0
Info: PERIODIC CELL BASIS 2  0 35.411 0
Info: PERIODIC CELL BASIS 3  0 0 35.723
Info: PERIODIC CELL CENTER   0 0 0
Info: WRAPPING WATERS AROUND PERIODIC BOUNDARIES ON OUTPUT.
Info: WRAPPING ALL CLUSTERS AROUND PERIODIC BOUNDARIES ON OUTPUT.
Info: FIRST LDB TIMESTEP     50
Info: LAST LDB TIMESTEP     -1
Info: HOM BACKGROUND SCALING 1
Info: PME BACKGROUND SCALING 1
Info: MIN ATOMS PER PATCH    40
Info: EMPTY PATCH LOAD       40 ATOMS
Info: INITIAL TEMPERATURE    300
Info: CENTER OF MASS MOVING INITIALLY? NO
Info: DIELECTRIC             1
Info: EXCLUDE                SCALED ONE-FOUR
Info: 1-4 ELECTROSTATICS SCALED BY 0.833333
Info: MODIFIED 1-4 VDW PARAMETERS WILL BE USED
Info: DCD FILENAME           mobley_3738859_equil.dcd
Info: DCD FREQUENCY          100000
Info: DCD FIRST STEP         100000
Info: DCD FILE WILL CONTAIN UNIT CELL DATA
Info: XST FILENAME           mobley_3738859_equil.xst
Info: XST FREQUENCY          100000
Info: NO VELOCITY DCD OUTPUT
Info: NO FORCE DCD OUTPUT
Info: OUTPUT FILENAME        mobley_3738859_equil
Info: BINARY OUTPUT FILES WILL BE USED
Info: RESTART FILENAME       mobley_3738859_equil.restart
Info: RESTART FREQUENCY      100000
Info: BINARY RESTART FILES WILL BE USED
Info: CUTOFF                 9
Info: PAIRLIST DISTANCE      11
Info: PAIRLIST SHRINK RATE   0.01
Info: PAIRLIST GROW RATE     0.01
Info: PAIRLIST TRIGGER       0.3
Info: PAIRLISTS PER CYCLE    2
Info: PAIRLISTS ENABLED
Info: MARGIN                 8
Info: HYDROGEN GROUP CUTOFF  2.5
Info: PATCH DIMENSION        21.5
Info: ENERGY OUTPUT STEPS    100000
Info: ENERGY EVALUATION STEPS    100000
Info: OUTPUT ENERGY PRECISION 4
Info: CROSSTERM ENERGY INCLUDED IN DIHEDRAL
Info: TIMING OUTPUT STEPS    1000000
Info: PRESSURE OUTPUT STEPS  100000
Info: LANGEVIN DYNAMICS ACTIVE
Info: LANGEVIN TEMPERATURE   30
Info: LANGEVIN USING BBK INTEGRATOR
Info: LANGEVIN DAMPING COEFFICIENT IS 1 INVERSE PS
Info: LANGEVIN DYNAMICS APPLIED TO HYDROGENS
Info: LANGEVIN PISTON PRESSURE CONTROL ACTIVE
Info:        TARGET PRESSURE IS 1.01325 BAR
Info:     OSCILLATION PERIOD IS 50 FS
Info:             DECAY TIME IS 25 FS
Info:     PISTON TEMPERATURE IS 300 K
Info:       PRESSURE CONTROL IS GROUP-BASED
Info:    INITIAL STRAIN RATE IS 0 0 0
Info:       CELL FLUCTUATION IS ISOTROPIC
Info: PARTICLE MESH EWALD (PME) ACTIVE
Info: PME TOLERANCE               1e-06
Info: PME EWALD COEFFICIENT       0.348832
Info: PME INTERPOLATION ORDER     4
Info: PME GRID DIMENSIONS         36 36 36
Info: PME MAXIMUM GRID SPACING    1
Info: FULL ELECTROSTATIC EVALUATION FREQUENCY      2
Info: USING VERLET I (r-RESPA) MTS SCHEME.
Info: C1 SPLITTING OF LONG RANGE ELECTROSTATICS
Info: PLACING ATOMS IN PATCHES BY HYDROGEN GROUPS
Info: RIGID BONDS TO HYDROGEN : ALL
Info:         ERROR TOLERANCE : 1e-08
Info:          MAX ITERATIONS : 100
Info: RIGID WATER USING SETTLE ALGORITHM
Info: RANDOM NUMBER SEED     1743249020
Info: USE HYDROGEN BONDS?    NO
Info: Using AMBER format force field!
Info: AMBER PARM FILE        mobley_3738859.prmtop
Info: COORDINATE PDB         mobley_3738859.pdb
Info: Exclusions will be read from PARM file!
Info: SCNB (VDW SCALING)     2
Info: USING ARITHMETIC MEAN TO COMBINE L-J SIGMA PARAMETERS
Info: BINARY COORDINATES     mobley_3738859_min.coor
Info: SUMMARY OF PARAMETERS:
Info: 6 BONDS
Info: 7 ANGLES
Info:   7 HARMONIC
Info:   0 COSINE-BASED
Info: 8 DIHEDRAL
Info: 0 IMPROPER
Info: 0 CROSSTERM
Info: 0 VDW
Info: 21 VDW_PAIRS
Info: 0 NBTHOLE_PAIRS
Info: STRUCTURE SUMMARY:
Info: 2960 ATOMS
Info: 2959 BONDS
Info: 30 ANGLES
Info: 42 DIHEDRALS
Info: 0 IMPROPERS
Info: 0 CROSSTERMS
Info: 3025 EXCLUSIONS
Info: 2954 RIGID BONDS
Info: 5926 DEGREES OF FREEDOM
Info: 987 HYDROGEN GROUPS
Info: 4 ATOMS IN LARGEST HYDROGEN GROUP
Info: 987 MIGRATION GROUPS
Info: 4 ATOMS IN LARGEST MIGRATION GROUP
Info: TOTAL MASS = 17824.7 amu
Info: TOTAL CHARGE = -0.000100002 e
Info: MASS DENSITY = 0.66835 g/cm^3
Info: ATOM DENSITY = 0.0668365 atoms/A^3
Info: ADDED 0 IMPLICIT EXCLUSIONS
Info: NONBONDED TABLE R-SQUARED SPACING: 0.0625
Info: NONBONDED TABLE SIZE: 705 POINTS
Info: REMOVING COM VELOCITY -0.158399 0.0121262 -0.0983987
TCL: Running for 100000 steps
ETITLE: TS BOND ANGLE DIHED IMPRP ELECT VDW BOUNDARY MISC KINETIC TOTAL TEMP POTENTIAL TOTAL3 TEMPAVG PRESSURE GPRESSURE VOLUME PRESSAVG GPRESSAVG
ENERGY: 0 0.0431 0.2904 2.4957 0.0000 -13670.8975 2414.5159 0.0000 0.0000 1773.2916 -9480.2608 301.1681 -11253.5524 -9479.9061 301.1681 490.4106 524.0257 44287.2002 490.4106 524.0257
ENERGY: 100000 0.2818 1.4198 2.5355 0.0000 -14261.7152 2446.2767 0.0000 0.0000 176.7933 -11634.4081 30.0258 -11811.2014 -11634.1085 30.8883 -367.3958 -316.9804 28597.7621 4.6925 4.6502
TCL: Running 100000 steps at 60 kelvin.
TCL: Setting parameter langevinTemp to 60
TCL: Running for 100000 steps
ETITLE: TS BOND ANGLE DIHED IMPRP ELECT VDW BOUNDARY MISC KINETIC TOTAL TEMP POTENTIAL TOTAL3 TEMPAVG PRESSURE GPRESSURE VOLUME PRESSAVG GPRESSAVG
ENERGY: 100000 0.2818 1.4198 2.5355 0.0000 -14261.7152 2446.2767 0.0000 0.0000 176.7056 -11634.4958 30.0109 -11811.2014 -11634.0682 30.0109 -365.2216 -317.1378 28597.7621 -365.2216 -317.1378
ENERGY: 200000 0.9485 1.6746 2.8927 0.0000 -14120.6877 2404.0695 0.0000 0.0000 356.4305 -11354.6720 60.5346 -11711.1024 -11354.1262 60.0075 -371.6783 -333.0702 28645.8033 2.6055 2.5731
TCL: Running 100000 steps at 90 kelvin.
TCL: Setting parameter langevinTemp to 90
TCL: Running for 100000 steps
ETITLE: TS BOND ANGLE DIHED IMPRP ELECT VDW BOUNDARY MISC KINETIC TOTAL TEMP POTENTIAL TOTAL3 TEMPAVG PRESSURE GPRESSURE VOLUME PRESSAVG GPRESSAVG
ENERGY: 200000 0.9485 1.6746 2.8927 0.0000 -14120.6877 2404.0695 0.0000 0.0000 356.2503 -11354.8521 60.5040 -11711.1024 -11354.1598 60.5040 -378.2035 -333.1769 28645.8033 -378.2035 -333.1769
ENERGY: 300000 0.2721 1.9840 3.4065 0.0000 -13969.9434 2348.1052 0.0000 0.0000 541.0143 -11075.1613 91.8835 -11616.1756 -11072.9599 89.7064 -393.4950 -301.4270 28651.3688 3.8554 3.7728
TCL: Running 100000 steps at 120 kelvin.
TCL: Setting parameter langevinTemp to 120
TCL: Running for 100000 steps
ETITLE: TS BOND ANGLE DIHED IMPRP ELECT VDW BOUNDARY MISC KINETIC TOTAL TEMP POTENTIAL TOTAL3 TEMPAVG PRESSURE GPRESSURE VOLUME PRESSAVG GPRESSAVG
ENERGY: 300000 0.2721 1.9840 3.4065 0.0000 -13969.9434 2348.1052 0.0000 0.0000 540.7426 -11075.4330 91.8373 -11616.1756 -11074.2882 91.8373 -352.2372 -300.9561 28651.3688 -352.2372 -300.9561
ENERGY: 400000 0.2332 3.5438 2.8073 0.0000 -13838.2290 2381.2213 0.0000 0.0000 700.6127 -10749.8107 118.9890 -11450.4234 -10747.5429 119.8628 601.0740 682.5465 28542.4057 3.6869 3.6643
TCL: Running 100000 steps at 150 kelvin.
TCL: Setting parameter langevinTemp to 150
TCL: Running for 100000 steps
ETITLE: TS BOND ANGLE DIHED IMPRP ELECT VDW BOUNDARY MISC KINETIC TOTAL TEMP POTENTIAL TOTAL3 TEMPAVG PRESSURE GPRESSURE VOLUME PRESSAVG GPRESSAVG
ENERGY: 400000 0.2332 3.5438 2.8073 0.0000 -13838.2290 2381.2213 0.0000 0.0000 700.2469 -10750.1765 118.9269 -11450.4234 -10748.9747 118.9269 627.4502 682.0205 28542.4057 627.4502 682.0205
ENERGY: 500000 0.9281 3.6969 2.7874 0.0000 -13612.8914 2303.8913 0.0000 0.0000 873.2001 -10428.3876 148.3005 -11301.5877 -10426.8660 149.9504 251.6232 312.7236 28907.6727 4.3983 4.4671
TCL: Running 100000 steps at 180 kelvin.
TCL: Setting parameter langevinTemp to 180
TCL: Running for 100000 steps
ETITLE: TS BOND ANGLE DIHED IMPRP ELECT VDW BOUNDARY MISC KINETIC TOTAL TEMP POTENTIAL TOTAL3 TEMPAVG PRESSURE GPRESSURE VOLUME PRESSAVG GPRESSAVG
ENERGY: 500000 0.9281 3.6969 2.7874 0.0000 -13612.8914 2303.8913 0.0000 0.0000 872.7674 -10428.8203 148.2270 -11301.5877 -10427.0480 148.2270 258.5141 311.7941 28907.6727 258.5141 311.7941
ENERGY: 600000 1.8988 3.8585 2.7193 0.0000 -13097.9143 2114.6078 0.0000 0.0000 1061.0077 -9913.8222 180.1969 -10974.8299 -9910.9992 179.9693 202.8641 267.2265 28681.4583 4.5012 4.5233
TCL: Running 100000 steps at 210 kelvin.
TCL: Setting parameter langevinTemp to 210
TCL: Running for 100000 steps
ETITLE: TS BOND ANGLE DIHED IMPRP ELECT VDW BOUNDARY MISC KINETIC TOTAL TEMP POTENTIAL TOTAL3 TEMPAVG PRESSURE GPRESSURE VOLUME PRESSAVG GPRESSAVG
ENERGY: 600000 1.8988 3.8585 2.7193 0.0000 -13097.9143 2114.6078 0.0000 0.0000 1060.4650 -9914.3649 180.1047 -10974.8299 -9912.3559 180.1047 198.6061 268.7113 28681.4583 198.6061 268.7113
ENERGY: 700000 3.1347 6.9975 4.2594 0.0000 -12307.9353 1792.2923 0.0000 0.0000 1258.2625 -9242.9890 213.6978 -10501.2514 -9238.4140 209.9490 -992.7705 -851.7699 29116.8601 3.7608 3.7246
TCL: Running 100000 steps at 240 kelvin.
TCL: Setting parameter langevinTemp to 240
TCL: Running for 100000 steps
ETITLE: TS BOND ANGLE DIHED IMPRP ELECT VDW BOUNDARY MISC KINETIC TOTAL TEMP POTENTIAL TOTAL3 TEMPAVG PRESSURE GPRESSURE VOLUME PRESSAVG GPRESSAVG
ENERGY: 700000 3.1347 6.9975 4.2594 0.0000 -12307.9353 1792.2923 0.0000 0.0000 1257.6313 -9243.6201 213.5906 -10501.2514 -9241.3859 213.5906 -943.4454 -851.2847 29116.8601 -943.4454 -851.2847
ENERGY: 800000 2.9106 8.2250 2.4533 0.0000 -11723.1297 1612.9815 0.0000 0.0000 1398.1008 -8698.4584 237.4473 -10096.5592 -8695.9571 240.8238 -1009.9286 -885.6377 29566.7296 4.9941 4.9515
TCL: Running 100000 steps at 270 kelvin.
TCL: Setting parameter langevinTemp to 270
TCL: Running for 100000 steps
ETITLE: TS BOND ANGLE DIHED IMPRP ELECT VDW BOUNDARY MISC KINETIC TOTAL TEMP POTENTIAL TOTAL3 TEMPAVG PRESSURE GPRESSURE VOLUME PRESSAVG GPRESSAVG
ENERGY: 800000 2.9106 8.2250 2.4533 0.0000 -11723.1297 1612.9815 0.0000 0.0000 1397.3743 -8699.1849 237.3239 -10096.5592 -8696.6087 237.3239 -975.0217 -886.5408 29566.7296 -975.0217 -886.5408
ENERGY: 900000 2.7427 12.6711 2.9808 0.0000 -11288.3818 1598.6639 0.0000 0.0000 1595.4375 -8075.8857 270.9621 -9671.3232 -8072.1150 269.8761 216.0177 301.0714 29657.3264 3.7206 3.7024
TCL: Running 1000000 steps at 300 kelvin.
TCL: Setting parameter langevinTemp to 300
TCL: Running for 1000000 steps
ETITLE: TS BOND ANGLE DIHED IMPRP ELECT VDW BOUNDARY MISC KINETIC TOTAL TEMP POTENTIAL TOTAL3 TEMPAVG PRESSURE GPRESSURE VOLUME PRESSAVG GPRESSAVG
ENERGY: 900000 2.7427 12.6711 2.9808 0.0000 -11288.3818 1598.6639 0.0000 0.0000 1594.6280 -8076.6952 270.8246 -9671.3232 -8074.5476 270.8246 223.1627 301.0883 29657.3264 223.1627 301.0883
ENERGY: 1100000 2.9154 6.5859 4.1157 0.0000 -10807.0798 1530.9290 0.0000 0.0000 1791.5565 -7470.9773 304.2701 -9262.5338 -7467.1732 299.4195 1114.1906 1152.3411 30080.4010 3.6652 3.7212
ENERGY: 1300000 0.4225 6.3754 3.2312 0.0000 -10718.1169 1452.7256 0.0000 0.0000 1755.2063 -7500.1560 298.0965 -9255.3622 -7495.5835 300.2303 190.4086 237.6235 30297.6359 4.0948 4.0760
ENERGY: 1500000 2.3295 4.7865 2.3025 0.0000 -10741.4912 1480.3469 0.0000 0.0000 1830.9958 -7420.7301 310.9683 -9251.7258 -7416.9869 300.4704 677.8323 695.7816 30194.2096 4.1474 3.9763
ENERGY: 1700000 2.1872 8.2426 2.4960 0.0000 -10717.2167 1416.2533 0.0000 0.0000 1777.0211 -7511.0165 301.8015 -9288.0377 -7507.4390 300.3302 8.2639 84.1041 30094.1657 3.4027 3.3470
ENERGY: 1900000 1.4607 9.5728 4.5703 0.0000 -10754.0359 1497.6172 0.0000 0.0000 1740.9735 -7499.8414 295.6793 -9240.8148 -7497.4429 300.1015 400.5003 555.5187 30426.1554 4.4544 4.6127
TCL: Exiting due to exit command.
