Info: SIMULATION PARAMETERS:
Info: TIMESTEP               2
Info: NUMBER OF STEPS        0
Info: STEPS PER CYCLE        10
Info: PERIODIC CELL BASIS 1  34.207 0 0
Info: PERIODIC CELL BASIS 2  0 33.399 0
Info: PERIODIC CELL BASIS 3  0 0 37.773
Info: PERIODIC CELL CENTER   0 0 0
Info: WRAPPING WATERS AROUND PERIODIC BOUNDARIES ON OUTPUT.
Info: WRAPPING ALL CLUSTERS AROUND PERIODIC BOUNDARIES ON OUTPUT.
Info: FIRST LDB TIMESTEP     50
Info: LAST LDB TIMESTEP     -1
Info: HOM BACKGROUND SCALING 1
Info: PME BACKGROUND SCALING 1
Info: MIN ATOMS PER PATCH    40
Info: EMPTY PATCH LOAD       40 ATOMS
Info: INITIAL TEMPERATURE    300
Info: CENTER OF MASS MOVING INITIALLY? NO
Info: DIELECTRIC             1
Info: EXCLUDE                SCALED ONE-FOUR
Info: 1-4 ELECTROSTATICS SCALED BY 0.833333
Info: MODIFIED 1-4 VDW PARAMETERS WILL BE USED
Info: DCD FILENAME           mobley_6430250_equil.dcd
Info: DCD FREQUENCY          100000
Info: DCD FIRST STEP         100000
Info: DCD FILE WILL CONTAIN UNIT CELL DATA
Info: XST FILENAME           mobley_6430250_equil.xst
Info: XST FREQUENCY          100000
Info: NO VELOCITY DCD OUTPUT
Info: NO FORCE DCD OUTPUT
Info: OUTPUT FILENAME        mobley_6430250_equil
Info: BINARY OUTPUT FILES WILL BE USED
Info: RESTART FILENAME       mobley_6430250_equil.restart
Info: RESTART FREQUENCY      100000
Info: BINARY RESTART FILES WILL BE USED
Info: CUTOFF                 9
Info: PAIRLIST DISTANCE      11
Info: PAIRLIST SHRINK RATE   0.01
Info: PAIRLIST GROW RATE     0.01
Info: PAIRLIST TRIGGER       0.3
Info: PAIRLISTS PER CYCLE    2
Info: PAIRLISTS ENABLED
Info: MARGIN                 8
Info: HYDROGEN GROUP CUTOFF  2.5
Info: PATCH DIMENSION        21.5
Info: ENERGY OUTPUT STEPS    100000
Info: ENERGY EVALUATION STEPS    100000
Info: OUTPUT ENERGY PRECISION 4
Info: CROSSTERM ENERGY INCLUDED IN DIHEDRAL
Info: TIMING OUTPUT STEPS    1000000
Info: PRESSURE OUTPUT STEPS  100000
Info: LANGEVIN DYNAMICS ACTIVE
Info: LANGEVIN TEMPERATURE   30
Info: LANGEVIN USING BBK INTEGRATOR
Info: LANGEVIN DAMPING COEFFICIENT IS 1 INVERSE PS
Info: LANGEVIN DYNAMICS APPLIED TO HYDROGENS
Info: LANGEVIN PISTON PRESSURE CONTROL ACTIVE
Info:        TARGET PRESSURE IS 1.01325 BAR
Info:     OSCILLATION PERIOD IS 50 FS
Info:             DECAY TIME IS 25 FS
Info:     PISTON TEMPERATURE IS 300 K
Info:       PRESSURE CONTROL IS GROUP-BASED
Info:    INITIAL STRAIN RATE IS 0 0 0
Info:       CELL FLUCTUATION IS ISOTROPIC
Info: PARTICLE MESH EWALD (PME) ACTIVE
Info: PME TOLERANCE               1e-06
Info: PME EWALD COEFFICIENT       0.348832
Info: PME INTERPOLATION ORDER     4
Info: PME GRID DIMENSIONS         36 36 40
Info: PME MAXIMUM GRID SPACING    1
Info: FULL ELECTROSTATIC EVALUATION FREQUENCY      2
Info: USING VERLET I (r-RESPA) MTS SCHEME.
Info: C1 SPLITTING OF LONG RANGE ELECTROSTATICS
Info: PLACING ATOMS IN PATCHES BY HYDROGEN GROUPS
Info: RIGID BONDS TO HYDROGEN : ALL
Info:         ERROR TOLERANCE : 1e-08
Info:          MAX ITERATIONS : 100
Info: RIGID WATER USING SETTLE ALGORITHM
Info: RANDOM NUMBER SEED     1743244008
Info: USE HYDROGEN BONDS?    NO
Info: Using AMBER format force field!
Info: AMBER PARM FILE        mobley_6430250.prmtop
Info: COORDINATE PDB         mobley_6430250.pdb
Info: Exclusions will be read from PARM file!
Info: SCNB (VDW SCALING)     2
Info: USING ARITHMETIC MEAN TO COMBINE L-J SIGMA PARAMETERS
Info: BINARY COORDINATES     mobley_6430250_min.coor
Info: SUMMARY OF PARAMETERS:
Info: 7 BONDS
Info: 8 ANGLES
Info: 6 DIHEDRAL
Info: 0 IMPROPER
Info: 0 CROSSTERM
Info: 0 VDW
Info: 21 VDW_PAIRS
Info: 0 NBTHOLE_PAIRS
Info: STRUCTURE SUMMARY:
Info: 2940 ATOMS
Info: 2940 BONDS
Info: 36 ANGLES
Info: 54 DIHEDRALS
Info: 0 IMPROPERS
Info: 0 CROSSTERMS
Info: 3021 EXCLUSIONS
Info: 2931 RIGID BONDS
Info: 5889 DEGREES OF FREEDOM
Info: 982 HYDROGEN GROUPS
Info: 4 ATOMS IN LARGEST HYDROGEN GROUP
Info: 982 MIGRATION GROUPS
Info: 4 ATOMS IN LARGEST MIGRATION GROUP
Info: TOTAL MASS = 17649.8 amu
Info: TOTAL CHARGE = -0.000200003 e
Info: MASS DENSITY = 0.679154 g/cm^3
Info: ATOM DENSITY = 0.0681267 atoms/A^3
Info: ADDED 0 IMPLICIT EXCLUSIONS
Info: NONBONDED TABLE R-SQUARED SPACING: 0.0625
Info: NONBONDED TABLE SIZE: 705 POINTS
Info: REMOVING COM VELOCITY -0.170894 -0.196724 0.0348812
TCL: Running for 100000 steps
ETITLE: TS BOND ANGLE DIHED IMPRP ELECT VDW BOUNDARY MISC KINETIC TOTAL TEMP POTENTIAL TOTAL3 TEMPAVG PRESSURE GPRESSURE VOLUME PRESSAVG GPRESSAVG
ENERGY: 0 0.1830 0.1565 0.0424 0.0000 -13540.4751 2360.0104 0.0000 0.0000 1790.2850 -9389.7978 305.9645 -11180.0828 -9389.4667 305.9645 424.7690 459.6540 43154.8817 424.7690 459.6540
ENERGY: 100000 0.6649 1.0558 0.3747 0.0000 -14119.0998 2467.4255 0.0000 0.0000 177.5409 -11472.0380 30.3422 -11649.5789 -11471.7840 30.9095 140.9851 198.9710 28763.6711 3.9100 3.9952
TCL: Running 100000 steps at 60 kelvin.
TCL: Setting parameter langevinTemp to 60
TCL: Running for 100000 steps
ETITLE: TS BOND ANGLE DIHED IMPRP ELECT VDW BOUNDARY MISC KINETIC TOTAL TEMP POTENTIAL TOTAL3 TEMPAVG PRESSURE GPRESSURE VOLUME PRESSAVG GPRESSAVG
ENERGY: 100000 0.6649 1.0558 0.3747 0.0000 -14119.0998 2467.4255 0.0000 0.0000 177.4559 -11472.1230 30.3277 -11649.5789 -11471.6985 30.3277 127.2498 198.6580 28763.6711 127.2498 198.6580
ENERGY: 200000 0.2760 0.9082 0.5879 0.0000 -14043.8400 2411.5173 0.0000 0.0000 350.6885 -11279.8621 59.9336 -11630.5506 -11278.9838 59.9485 71.4170 126.6862 28200.5166 4.6101 4.5738
TCL: Running 100000 steps at 90 kelvin.
TCL: Setting parameter langevinTemp to 90
TCL: Running for 100000 steps
ETITLE: TS BOND ANGLE DIHED IMPRP ELECT VDW BOUNDARY MISC KINETIC TOTAL TEMP POTENTIAL TOTAL3 TEMPAVG PRESSURE GPRESSURE VOLUME PRESSAVG GPRESSAVG
ENERGY: 200000 0.2760 0.9082 0.5879 0.0000 -14043.8400 2411.5173 0.0000 0.0000 350.5171 -11280.0334 59.9043 -11630.5506 -11279.2410 59.9043 74.8168 126.3828 28200.5166 74.8168 126.3828
ENERGY: 300000 0.4723 2.1161 0.9376 0.0000 -13895.1664 2388.2353 0.0000 0.0000 516.3783 -10987.0268 88.2504 -11503.4051 -10986.0654 90.0150 369.1047 447.3826 28139.8431 4.6539 4.6305
TCL: Running 100000 steps at 120 kelvin.
TCL: Setting parameter langevinTemp to 120
TCL: Running for 100000 steps
ETITLE: TS BOND ANGLE DIHED IMPRP ELECT VDW BOUNDARY MISC KINETIC TOTAL TEMP POTENTIAL TOTAL3 TEMPAVG PRESSURE GPRESSURE VOLUME PRESSAVG GPRESSAVG
ENERGY: 300000 0.4723 2.1161 0.9376 0.0000 -13895.1664 2388.2353 0.0000 0.0000 516.1168 -10987.2883 88.2057 -11503.4051 -10986.2611 88.2057 397.2960 447.8805 28139.8431 397.2960 447.8805
ENERGY: 400000 2.1833 2.4117 0.3514 0.0000 -13683.6422 2308.4434 0.0000 0.0000 701.9550 -10668.2974 119.9660 -11370.2523 -10666.4729 119.8503 128.1122 145.5533 28389.7475 4.2602 4.1446
TCL: Running 100000 steps at 150 kelvin.
TCL: Setting parameter langevinTemp to 150
TCL: Running for 100000 steps
ETITLE: TS BOND ANGLE DIHED IMPRP ELECT VDW BOUNDARY MISC KINETIC TOTAL TEMP POTENTIAL TOTAL3 TEMPAVG PRESSURE GPRESSURE VOLUME PRESSAVG GPRESSAVG
ENERGY: 400000 2.1833 2.4117 0.3514 0.0000 -13683.6422 2308.4434 0.0000 0.0000 701.6062 -10668.6462 119.9064 -11370.2523 -10667.2296 119.9064 84.1355 145.1236 28389.7475 84.1355 145.1236
ENERGY: 500000 2.6010 5.1673 1.9087 0.0000 -13347.9901 2152.9621 0.0000 0.0000 862.6737 -10322.6773 147.4332 -11185.3510 -10320.9667 150.3796 -621.6820 -593.1052 28746.2288 4.4086 4.1466
TCL: Running 100000 steps at 180 kelvin.
TCL: Setting parameter langevinTemp to 180
TCL: Running for 100000 steps
ETITLE: TS BOND ANGLE DIHED IMPRP ELECT VDW BOUNDARY MISC KINETIC TOTAL TEMP POTENTIAL TOTAL3 TEMPAVG PRESSURE GPRESSURE VOLUME PRESSAVG GPRESSAVG
ENERGY: 500000 2.6010 5.1673 1.9087 0.0000 -13347.9901 2152.9621 0.0000 0.0000 862.2468 -10323.1042 147.3603 -11185.3510 -10321.3484 147.3603 -656.5165 -592.9313 28746.2288 -656.5165 -592.9313
ENERGY: 600000 1.1247 6.4984 2.3700 0.0000 -13031.8567 2114.1831 0.0000 0.0000 1023.4838 -9884.1966 174.9161 -10907.6805 -9882.0768 179.8217 -11.1284 74.0705 28927.0454 4.6685 4.5858
TCL: Running 100000 steps at 210 kelvin.
TCL: Setting parameter langevinTemp to 210
TCL: Running for 100000 steps
ETITLE: TS BOND ANGLE DIHED IMPRP ELECT VDW BOUNDARY MISC KINETIC TOTAL TEMP POTENTIAL TOTAL3 TEMPAVG PRESSURE GPRESSURE VOLUME PRESSAVG GPRESSAVG
ENERGY: 600000 1.1247 6.4984 2.3700 0.0000 -13031.8567 2114.1831 0.0000 0.0000 1022.9753 -9884.7052 174.8292 -10907.6805 -9882.7222 174.8292 12.1345 72.9817 28927.0454 12.1345 72.9817
ENERGY: 700000 2.8768 3.1291 1.3961 0.0000 -12419.4997 1934.4005 0.0000 0.0000 1234.4250 -9243.2721 210.9665 -10477.6971 -9240.0279 210.1697 201.9574 250.7530 28740.4133 4.4915 4.3761
TCL: Running 100000 steps at 240 kelvin.
TCL: Setting parameter langevinTemp to 240
TCL: Running for 100000 steps
ETITLE: TS BOND ANGLE DIHED IMPRP ELECT VDW BOUNDARY MISC KINETIC TOTAL TEMP POTENTIAL TOTAL3 TEMPAVG PRESSURE GPRESSURE VOLUME PRESSAVG GPRESSAVG
ENERGY: 700000 2.8768 3.1291 1.3961 0.0000 -12419.4997 1934.4005 0.0000 0.0000 1233.8168 -9243.8803 210.8626 -10477.6971 -9241.7008 210.8626 173.3043 251.6976 28740.4133 173.3043 251.6976
ENERGY: 800000 1.6719 6.3002 3.0302 0.0000 -11637.5781 1657.4909 0.0000 0.0000 1388.9528 -8580.1322 237.3757 -9969.0850 -8577.7007 239.6813 -476.5854 -394.2309 29184.6421 3.5017 3.4237
TCL: Running 100000 steps at 270 kelvin.
TCL: Setting parameter langevinTemp to 270
TCL: Running for 100000 steps
ETITLE: TS BOND ANGLE DIHED IMPRP ELECT VDW BOUNDARY MISC KINETIC TOTAL TEMP POTENTIAL TOTAL3 TEMPAVG PRESSURE GPRESSURE VOLUME PRESSAVG GPRESSAVG
ENERGY: 800000 1.6719 6.3002 3.0302 0.0000 -11637.5781 1657.4909 0.0000 0.0000 1388.2660 -8580.8190 237.2584 -9969.0850 -8578.5970 237.2584 -479.8468 -396.2190 29184.6421 -479.8468 -396.2190
ENERGY: 900000 5.9333 5.3625 2.2871 0.0000 -11152.0137 1611.1578 0.0000 0.0000 1598.5830 -7928.6901 273.2021 -9527.2731 -7927.9999 269.5967 518.7260 580.3022 29606.5530 3.0719 3.0994
TCL: Running 1000000 steps at 300 kelvin.
TCL: Setting parameter langevinTemp to 300
TCL: Running for 1000000 steps
ETITLE: TS BOND ANGLE DIHED IMPRP ELECT VDW BOUNDARY MISC KINETIC TOTAL TEMP POTENTIAL TOTAL3 TEMPAVG PRESSURE GPRESSURE VOLUME PRESSAVG GPRESSAVG
ENERGY: 900000 5.9333 5.3625 2.2871 0.0000 -11152.0137 1611.1578 0.0000 0.0000 1597.7899 -7929.4832 273.0665 -9527.2731 -7926.9597 273.0665 494.7738 577.1492 29606.5530 494.7738 577.1492
ENERGY: 1100000 2.2865 4.1923 4.0286 0.0000 -10611.2224 1397.5946 0.0000 0.0000 1788.2693 -7414.8510 305.6200 -9203.1203 -7411.0588 300.8091 -81.3969 -75.8057 30338.5114 3.9887 4.0043
ENERGY: 1300000 4.0282 8.7394 2.9199 0.0000 -10730.4529 1487.2477 0.0000 0.0000 1751.8001 -7475.7176 299.3873 -9227.5177 -7470.2018 299.8399 46.0447 148.8161 30712.1749 4.2990 4.3107
ENERGY: 1500000 2.8988 5.5181 0.9516 0.0000 -10641.7772 1472.9332 0.0000 0.0000 1775.8374 -7383.6381 303.4953 -9159.4755 -7382.8039 300.3144 603.2971 719.0872 29664.4415 3.3927 3.5492
ENERGY: 1700000 3.0974 4.3966 3.2733 0.0000 -10517.8499 1311.0747 0.0000 0.0000 1732.9568 -7463.0511 296.1669 -9196.0079 -7459.7644 300.0058 -1159.3338 -1112.0354 30738.2068 4.7263 4.8528
ENERGY: 1900000 1.0426 7.5372 1.4923 0.0000 -10582.6971 1407.4251 0.0000 0.0000 1766.1416 -7399.0583 301.8383 -9165.1999 -7396.4931 299.6529 -125.9130 10.8901 30285.0796 3.3401 3.4412
TCL: Exiting due to exit command.
