Info: SIMULATION PARAMETERS:
Info: TIMESTEP               2
Info: NUMBER OF STEPS        0
Info: STEPS PER CYCLE        10
Info: PERIODIC CELL BASIS 1  34.986 0 0
Info: PERIODIC CELL BASIS 2  0 35.411 0
Info: PERIODIC CELL BASIS 3  0 0 35.644
Info: PERIODIC CELL CENTER   0 0 0
Info: WRAPPING WATERS AROUND PERIODIC BOUNDARIES ON OUTPUT.
Info: WRAPPING ALL CLUSTERS AROUND PERIODIC BOUNDARIES ON OUTPUT.
Info: FIRST LDB TIMESTEP     50
Info: LAST LDB TIMESTEP     -1
Info: HOM BACKGROUND SCALING 1
Info: PME BACKGROUND SCALING 1
Info: MIN ATOMS PER PATCH    40
Info: EMPTY PATCH LOAD       40 ATOMS
Info: INITIAL TEMPERATURE    300
Info: CENTER OF MASS MOVING INITIALLY? NO
Info: DIELECTRIC             1
Info: EXCLUDE                SCALED ONE-FOUR
Info: 1-4 ELECTROSTATICS SCALED BY 0.833333
Info: MODIFIED 1-4 VDW PARAMETERS WILL BE USED
Info: DCD FILENAME           mobley_9055303_equil.dcd
Info: DCD FREQUENCY          100000
Info: DCD FIRST STEP         100000
Info: DCD FILE WILL CONTAIN UNIT CELL DATA
Info: XST FILENAME           mobley_9055303_equil.xst
Info: XST FREQUENCY          100000
Info: NO VELOCITY DCD OUTPUT
Info: NO FORCE DCD OUTPUT
Info: OUTPUT FILENAME        mobley_9055303_equil
Info: BINARY OUTPUT FILES WILL BE USED
Info: RESTART FILENAME       mobley_9055303_equil.restart
Info: RESTART FREQUENCY      100000
Info: BINARY RESTART FILES WILL BE USED
Info: CUTOFF                 9
Info: PAIRLIST DISTANCE      11
Info: PAIRLIST SHRINK RATE   0.01
Info: PAIRLIST GROW RATE     0.01
Info: PAIRLIST TRIGGER       0.3
Info: PAIRLISTS PER CYCLE    2
Info: PAIRLISTS ENABLED
Info: MARGIN                 8
Info: HYDROGEN GROUP CUTOFF  2.5
Info: PATCH DIMENSION        21.5
Info: ENERGY OUTPUT STEPS    100000
Info: ENERGY EVALUATION STEPS    100000
Info: OUTPUT ENERGY PRECISION 4
Info: CROSSTERM ENERGY INCLUDED IN DIHEDRAL
Info: TIMING OUTPUT STEPS    1000000
Info: PRESSURE OUTPUT STEPS  100000
Info: LANGEVIN DYNAMICS ACTIVE
Info: LANGEVIN TEMPERATURE   30
Info: LANGEVIN USING BBK INTEGRATOR
Info: LANGEVIN DAMPING COEFFICIENT IS 1 INVERSE PS
Info: LANGEVIN DYNAMICS APPLIED TO HYDROGENS
Info: LANGEVIN PISTON PRESSURE CONTROL ACTIVE
Info:        TARGET PRESSURE IS 1.01325 BAR
Info:     OSCILLATION PERIOD IS 50 FS
Info:             DECAY TIME IS 25 FS
Info:     PISTON TEMPERATURE IS 300 K
Info:       PRESSURE CONTROL IS GROUP-BASED
Info:    INITIAL STRAIN RATE IS 0 0 0
Info:       CELL FLUCTUATION IS ISOTROPIC
Info: PARTICLE MESH EWALD (PME) ACTIVE
Info: PME TOLERANCE               1e-06
Info: PME EWALD COEFFICIENT       0.348832
Info: PME INTERPOLATION ORDER     4
Info: PME GRID DIMENSIONS         36 36 36
Info: PME MAXIMUM GRID SPACING    1
Info: FULL ELECTROSTATIC EVALUATION FREQUENCY      2
Info: USING VERLET I (r-RESPA) MTS SCHEME.
Info: C1 SPLITTING OF LONG RANGE ELECTROSTATICS
Info: PLACING ATOMS IN PATCHES BY HYDROGEN GROUPS
Info: RIGID BONDS TO HYDROGEN : ALL
Info:         ERROR TOLERANCE : 1e-08
Info:          MAX ITERATIONS : 100
Info: RIGID WATER USING SETTLE ALGORITHM
Info: RANDOM NUMBER SEED     1743154921
Info: USE HYDROGEN BONDS?    NO
Info: Using AMBER format force field!
Info: AMBER PARM FILE        mobley_9055303.prmtop
Info: COORDINATE PDB         mobley_9055303.pdb
Info: Exclusions will be read from PARM file!
Info: SCNB (VDW SCALING)     2
Info: USING ARITHMETIC MEAN TO COMBINE L-J SIGMA PARAMETERS
Info: BINARY COORDINATES     mobley_9055303_min.coor
Info: SUMMARY OF PARAMETERS:
Info: 3 BONDS
Info: 1 ANGLES
Info:   1 HARMONIC
Info:   0 COSINE-BASED
Info: 0 DIHEDRAL
Info: 0 IMPROPER
Info: 0 CROSSTERM
Info: 0 VDW
Info: 10 VDW_PAIRS
Info: 0 NBTHOLE_PAIRS
Info: STRUCTURE SUMMARY:
Info: 2960 ATOMS
Info: 2959 BONDS
Info: 6 ANGLES
Info: 0 DIHEDRALS
Info: 0 IMPROPERS
Info: 0 CROSSTERMS
Info: 2965 EXCLUSIONS
Info: 2959 RIGID BONDS
Info: 5921 DEGREES OF FREEDOM
Info: 986 HYDROGEN GROUPS
Info: 5 ATOMS IN LARGEST HYDROGEN GROUP
Info: 986 MIGRATION GROUPS
Info: 5 ATOMS IN LARGEST MIGRATION GROUP
Info: TOTAL MASS = 17761.8 amu
Info: TOTAL CHARGE = 0.000100002 e
Info: MASS DENSITY = 0.667924 g/cm^3
Info: ATOM DENSITY = 0.0670306 atoms/A^3
Info: ADDED 0 IMPLICIT EXCLUSIONS
Info: NONBONDED TABLE R-SQUARED SPACING: 0.0625
Info: NONBONDED TABLE SIZE: 705 POINTS
Info: REMOVING COM VELOCITY -0.170157 -0.172024 -0.00472424
TCL: Running for 100000 steps
ETITLE: TS BOND ANGLE DIHED IMPRP ELECT VDW BOUNDARY MISC KINETIC TOTAL TEMP POTENTIAL TOTAL3 TEMPAVG PRESSURE GPRESSURE VOLUME PRESSAVG GPRESSAVG
ENERGY: 0 0.0000 0.2577 0.0000 0.0000 -13717.9769 2427.1338 0.0000 0.0000 1850.3227 -9440.2627 314.5160 -11290.5854 -9439.8612 314.5160 659.8431 695.3788 44158.9683 659.8431 695.3788
ENERGY: 100000 0.0000 0.5073 0.0000 0.0000 -14194.2678 2414.2547 0.0000 0.0000 170.1870 -11609.3188 28.9282 -11779.5058 -11608.7294 30.9636 -689.1388 -641.5065 29312.4671 4.0412 4.0221
TCL: Running 100000 steps at 60 kelvin.
TCL: Setting parameter langevinTemp to 60
TCL: Running for 100000 steps
ETITLE: TS BOND ANGLE DIHED IMPRP ELECT VDW BOUNDARY MISC KINETIC TOTAL TEMP POTENTIAL TOTAL3 TEMPAVG PRESSURE GPRESSURE VOLUME PRESSAVG GPRESSAVG
ENERGY: 100000 0.0000 0.5073 0.0000 0.0000 -14194.2678 2414.2547 0.0000 0.0000 170.0983 -11609.4076 28.9131 -11779.5058 -11609.0172 28.9131 -692.5658 -641.4236 29312.4671 -692.5658 -641.4236
ENERGY: 200000 0.0000 0.5425 0.0000 0.0000 -14136.3650 2378.1183 0.0000 0.0000 354.4952 -11403.2089 60.2568 -11757.7042 -11402.7618 59.9803 -759.5766 -719.6692 29136.2048 6.0239 5.9738
TCL: Running 100000 steps at 90 kelvin.
TCL: Setting parameter langevinTemp to 90
TCL: Running for 100000 steps
ETITLE: TS BOND ANGLE DIHED IMPRP ELECT VDW BOUNDARY MISC KINETIC TOTAL TEMP POTENTIAL TOTAL3 TEMPAVG PRESSURE GPRESSURE VOLUME PRESSAVG GPRESSAVG
ENERGY: 200000 0.0000 0.5425 0.0000 0.0000 -14136.3650 2378.1183 0.0000 0.0000 354.3172 -11403.3869 60.2265 -11757.7042 -11402.6294 60.2265 -755.2318 -720.1403 29136.2048 -755.2318 -720.1403
ENERGY: 300000 0.0000 0.7915 0.0000 0.0000 -14121.4281 2517.3155 0.0000 0.0000 523.4476 -11079.8735 88.9751 -11603.3212 -11079.0024 89.8205 1141.6347 1178.6850 28773.2099 3.5630 3.5222
TCL: Running 100000 steps at 120 kelvin.
TCL: Setting parameter langevinTemp to 120
TCL: Running for 100000 steps
ETITLE: TS BOND ANGLE DIHED IMPRP ELECT VDW BOUNDARY MISC KINETIC TOTAL TEMP POTENTIAL TOTAL3 TEMPAVG PRESSURE GPRESSURE VOLUME PRESSAVG GPRESSAVG
ENERGY: 300000 0.0000 0.7915 0.0000 0.0000 -14121.4281 2517.3155 0.0000 0.0000 523.1891 -11080.1321 88.9312 -11603.3212 -11079.2922 88.9312 1145.8000 1177.7777 28773.2099 1145.8000 1177.7777
ENERGY: 400000 0.0000 1.2172 0.0000 0.0000 -13713.2126 2203.3938 0.0000 0.0000 692.4853 -10816.1162 117.7080 -11508.6015 -10813.7757 120.1560 -1152.9401 -1121.5669 29025.2948 3.5051 3.5445
TCL: Running 100000 steps at 150 kelvin.
TCL: Setting parameter langevinTemp to 150
TCL: Running for 100000 steps
ETITLE: TS BOND ANGLE DIHED IMPRP ELECT VDW BOUNDARY MISC KINETIC TOTAL TEMP POTENTIAL TOTAL3 TEMPAVG PRESSURE GPRESSURE VOLUME PRESSAVG GPRESSAVG
ENERGY: 400000 0.0000 1.2172 0.0000 0.0000 -13713.2126 2203.3938 0.0000 0.0000 692.1350 -10816.4666 117.6484 -11508.6015 -10814.9666 117.6484 -1163.6110 -1120.3512 29025.2948 -1163.6110 -1120.3512
ENERGY: 500000 0.0000 0.8603 0.0000 0.0000 -13716.1788 2336.5930 0.0000 0.0000 888.4877 -10490.2378 151.0243 -11378.7255 -10488.6420 149.8308 473.0619 562.6118 28690.4795 3.3049 3.3676
TCL: Running 100000 steps at 180 kelvin.
TCL: Setting parameter langevinTemp to 180
TCL: Running for 100000 steps
ETITLE: TS BOND ANGLE DIHED IMPRP ELECT VDW BOUNDARY MISC KINETIC TOTAL TEMP POTENTIAL TOTAL3 TEMPAVG PRESSURE GPRESSURE VOLUME PRESSAVG GPRESSAVG
ENERGY: 500000 0.0000 0.8603 0.0000 0.0000 -13716.1788 2336.5930 0.0000 0.0000 888.0414 -10490.6841 150.9484 -11378.7255 -10488.9096 150.9484 502.2348 561.9437 28690.4795 502.2348 561.9437
ENERGY: 600000 0.0000 0.4676 0.0000 0.0000 -13196.0722 2125.8119 0.0000 0.0000 1035.3131 -10034.4795 175.9815 -11069.7926 -10032.3207 179.7637 -33.1345 100.9057 28652.4568 4.1312 4.0005
TCL: Running 100000 steps at 210 kelvin.
TCL: Setting parameter langevinTemp to 210
TCL: Running for 100000 steps
ETITLE: TS BOND ANGLE DIHED IMPRP ELECT VDW BOUNDARY MISC KINETIC TOTAL TEMP POTENTIAL TOTAL3 TEMPAVG PRESSURE GPRESSURE VOLUME PRESSAVG GPRESSAVG
ENERGY: 600000 0.0000 0.4676 0.0000 0.0000 -13196.0722 2125.8119 0.0000 0.0000 1034.7960 -10034.9966 175.8936 -11069.7926 -10032.7137 175.8936 28.3062 99.4926 28652.4568 28.3062 99.4926
ENERGY: 700000 0.0000 0.3797 0.0000 0.0000 -12550.3105 1935.0195 0.0000 0.0000 1240.4114 -9374.4999 210.8439 -10614.9113 -9372.9496 210.2468 95.0145 115.7717 28882.5953 2.7797 2.7652
TCL: Running 100000 steps at 240 kelvin.
TCL: Setting parameter langevinTemp to 240
TCL: Running for 100000 steps
ETITLE: TS BOND ANGLE DIHED IMPRP ELECT VDW BOUNDARY MISC KINETIC TOTAL TEMP POTENTIAL TOTAL3 TEMPAVG PRESSURE GPRESSURE VOLUME PRESSAVG GPRESSAVG
ENERGY: 700000 0.0000 0.3797 0.0000 0.0000 -12550.3105 1935.0195 0.0000 0.0000 1239.8007 -9375.1106 210.7401 -10614.9113 -9372.9479 210.7401 41.2656 114.2819 28882.5953 41.2656 114.2819
ENERGY: 800000 0.0000 0.8049 0.0000 0.0000 -11708.5618 1622.2797 0.0000 0.0000 1381.7101 -8703.7671 234.8617 -10085.4771 -8701.3311 240.2571 -848.5537 -827.2738 29576.4989 4.1319 4.1796
TCL: Running 100000 steps at 270 kelvin.
TCL: Setting parameter langevinTemp to 270
TCL: Running for 100000 steps
ETITLE: TS BOND ANGLE DIHED IMPRP ELECT VDW BOUNDARY MISC KINETIC TOTAL TEMP POTENTIAL TOTAL3 TEMPAVG PRESSURE GPRESSURE VOLUME PRESSAVG GPRESSAVG
ENERGY: 800000 0.0000 0.8049 0.0000 0.0000 -11708.5618 1622.2797 0.0000 0.0000 1381.0065 -8704.4706 234.7421 -10085.4771 -8701.5777 234.7421 -906.8244 -828.1204 29576.4989 -906.8244 -828.1204
ENERGY: 900000 0.0000 1.3418 0.0000 0.0000 -11223.7813 1495.6782 0.0000 0.0000 1606.9059 -8119.8554 273.1403 -9726.7613 -8117.9594 270.0397 -663.1885 -601.3615 29882.1057 4.1155 3.9693
TCL: Running 1000000 steps at 300 kelvin.
TCL: Setting parameter langevinTemp to 300
TCL: Running for 1000000 steps
ETITLE: TS BOND ANGLE DIHED IMPRP ELECT VDW BOUNDARY MISC KINETIC TOTAL TEMP POTENTIAL TOTAL3 TEMPAVG PRESSURE GPRESSURE VOLUME PRESSAVG GPRESSAVG
ENERGY: 900000 0.0000 1.3418 0.0000 0.0000 -11223.7813 1495.6782 0.0000 0.0000 1606.1387 -8120.6225 273.0099 -9726.7613 -8117.9212 273.0099 -679.5459 -604.0444 29882.1057 -679.5459 -604.0444
ENERGY: 1100000 0.0000 0.9979 0.0000 0.0000 -10735.7818 1490.9415 0.0000 0.0000 1755.3367 -7488.5056 298.3704 -9243.8424 -7486.8878 300.2038 429.1758 475.8083 30598.4992 2.1878 2.2676
ENERGY: 1300000 0.0000 1.3435 0.0000 0.0000 -10759.1650 1403.0760 0.0000 0.0000 1719.4215 -7635.3240 292.2656 -9354.7455 -7633.3416 300.0965 -415.4094 -337.9199 30264.8435 4.5178 4.3404
ENERGY: 1500000 0.0000 0.5588 0.0000 0.0000 -10736.6783 1466.4012 0.0000 0.0000 1732.6541 -7537.0642 294.5149 -9269.7184 -7534.8660 301.0316 259.6219 376.0435 30374.4638 3.3803 3.2671
ENERGY: 1700000 0.0000 2.0574 0.0000 0.0000 -10725.5316 1432.2395 0.0000 0.0000 1758.8421 -7532.3926 298.9663 -9291.2346 -7530.9110 300.2070 -327.8619 -196.4466 30700.5909 3.2096 3.2545
ENERGY: 1900000 0.0000 2.1617 0.0000 0.0000 -10668.2659 1402.2536 0.0000 0.0000 1759.1830 -7504.6676 299.0242 -9263.8506 -7501.0403 300.3618 -358.1370 -283.4830 30529.2419 3.4110 3.3954
TCL: Exiting due to exit command.
