Info: SIMULATION PARAMETERS:
Info: TIMESTEP               2
Info: NUMBER OF STEPS        0
Info: STEPS PER CYCLE        10
Info: PERIODIC CELL BASIS 1  35.436 0 0
Info: PERIODIC CELL BASIS 2  0 33.542 0
Info: PERIODIC CELL BASIS 3  0 0 36.488
Info: PERIODIC CELL CENTER   0 0 0
Info: WRAPPING WATERS AROUND PERIODIC BOUNDARIES ON OUTPUT.
Info: WRAPPING ALL CLUSTERS AROUND PERIODIC BOUNDARIES ON OUTPUT.
Info: FIRST LDB TIMESTEP     50
Info: LAST LDB TIMESTEP     -1
Info: HOM BACKGROUND SCALING 1
Info: PME BACKGROUND SCALING 1
Info: MIN ATOMS PER PATCH    40
Info: EMPTY PATCH LOAD       40 ATOMS
Info: INITIAL TEMPERATURE    300
Info: CENTER OF MASS MOVING INITIALLY? NO
Info: DIELECTRIC             1
Info: EXCLUDE                SCALED ONE-FOUR
Info: 1-4 ELECTROSTATICS SCALED BY 0.833333
Info: MODIFIED 1-4 VDW PARAMETERS WILL BE USED
Info: DCD FILENAME           mobley_1760914_equil.dcd
Info: DCD FREQUENCY          100000
Info: DCD FIRST STEP         100000
Info: DCD FILE WILL CONTAIN UNIT CELL DATA
Info: XST FILENAME           mobley_1760914_equil.xst
Info: XST FREQUENCY          100000
Info: NO VELOCITY DCD OUTPUT
Info: NO FORCE DCD OUTPUT
Info: OUTPUT FILENAME        mobley_1760914_equil
Info: BINARY OUTPUT FILES WILL BE USED
Info: RESTART FILENAME       mobley_1760914_equil.restart
Info: RESTART FREQUENCY      100000
Info: BINARY RESTART FILES WILL BE USED
Info: CUTOFF                 9
Info: PAIRLIST DISTANCE      11
Info: PAIRLIST SHRINK RATE   0.01
Info: PAIRLIST GROW RATE     0.01
Info: PAIRLIST TRIGGER       0.3
Info: PAIRLISTS PER CYCLE    2
Info: PAIRLISTS ENABLED
Info: MARGIN                 8
Info: HYDROGEN GROUP CUTOFF  2.5
Info: PATCH DIMENSION        21.5
Info: ENERGY OUTPUT STEPS    100000
Info: ENERGY EVALUATION STEPS    100000
Info: OUTPUT ENERGY PRECISION 4
Info: CROSSTERM ENERGY INCLUDED IN DIHEDRAL
Info: TIMING OUTPUT STEPS    1000000
Info: PRESSURE OUTPUT STEPS  100000
Info: LANGEVIN DYNAMICS ACTIVE
Info: LANGEVIN TEMPERATURE   30
Info: LANGEVIN USING BBK INTEGRATOR
Info: LANGEVIN DAMPING COEFFICIENT IS 1 INVERSE PS
Info: LANGEVIN DYNAMICS APPLIED TO HYDROGENS
Info: LANGEVIN PISTON PRESSURE CONTROL ACTIVE
Info:        TARGET PRESSURE IS 1.01325 BAR
Info:     OSCILLATION PERIOD IS 50 FS
Info:             DECAY TIME IS 25 FS
Info:     PISTON TEMPERATURE IS 300 K
Info:       PRESSURE CONTROL IS GROUP-BASED
Info:    INITIAL STRAIN RATE IS 0 0 0
Info:       CELL FLUCTUATION IS ISOTROPIC
Info: PARTICLE MESH EWALD (PME) ACTIVE
Info: PME TOLERANCE               1e-06
Info: PME EWALD COEFFICIENT       0.348832
Info: PME INTERPOLATION ORDER     4
Info: PME GRID DIMENSIONS         36 36 40
Info: PME MAXIMUM GRID SPACING    1
Info: FULL ELECTROSTATIC EVALUATION FREQUENCY      2
Info: USING VERLET I (r-RESPA) MTS SCHEME.
Info: C1 SPLITTING OF LONG RANGE ELECTROSTATICS
Info: PLACING ATOMS IN PATCHES BY HYDROGEN GROUPS
Info: RIGID BONDS TO HYDROGEN : ALL
Info:         ERROR TOLERANCE : 1e-08
Info:          MAX ITERATIONS : 100
Info: RIGID WATER USING SETTLE ALGORITHM
Info: RANDOM NUMBER SEED     1743211277
Info: USE HYDROGEN BONDS?    NO
Info: Using AMBER format force field!
Info: AMBER PARM FILE        mobley_1760914.prmtop
Info: COORDINATE PDB         mobley_1760914.pdb
Info: Exclusions will be read from PARM file!
Info: SCNB (VDW SCALING)     2
Info: USING ARITHMETIC MEAN TO COMBINE L-J SIGMA PARAMETERS
Info: BINARY COORDINATES     mobley_1760914_min.coor
Info: SUMMARY OF PARAMETERS:
Info: 7 BONDS
Info: 6 ANGLES
Info:   6 HARMONIC
Info:   0 COSINE-BASED
Info: 3 DIHEDRAL
Info: 0 IMPROPER
Info: 0 CROSSTERM
Info: 0 VDW
Info: 28 VDW_PAIRS
Info: 0 NBTHOLE_PAIRS
Info: STRUCTURE SUMMARY:
Info: 2922 ATOMS
Info: 2922 BONDS
Info: 24 ANGLES
Info: 36 DIHEDRALS
Info: 0 IMPROPERS
Info: 0 CROSSTERMS
Info: 2973 EXCLUSIONS
Info: 2914 RIGID BONDS
Info: 5852 DEGREES OF FREEDOM
Info: 977 HYDROGEN GROUPS
Info: 4 ATOMS IN LARGEST HYDROGEN GROUP
Info: 977 MIGRATION GROUPS
Info: 4 ATOMS IN LARGEST MIGRATION GROUP
Info: TOTAL MASS = 17584.1 amu
Info: TOTAL CHARGE = 1.49012e-08 e
Info: MASS DENSITY = 0.673279 g/cm^3
Info: ATOM DENSITY = 0.0673746 atoms/A^3
Info: ADDED 0 IMPLICIT EXCLUSIONS
Info: NONBONDED TABLE R-SQUARED SPACING: 0.0625
Info: NONBONDED TABLE SIZE: 705 POINTS
Info: REMOVING COM VELOCITY 0.113237 0.143073 0.0760217
TCL: Running for 100000 steps
ETITLE: TS BOND ANGLE DIHED IMPRP ELECT VDW BOUNDARY MISC KINETIC TOTAL TEMP POTENTIAL TOTAL3 TEMPAVG PRESSURE GPRESSURE VOLUME PRESSAVG GPRESSAVG
ENERGY: 0 0.2122 0.1802 0.0383 0.0000 -13503.1593 2367.2984 0.0000 0.0000 1711.7726 -9423.6575 294.3962 -11135.4301 -9423.3149 294.3962 293.6011 329.1370 43369.4293 293.6011 329.1370
ENERGY: 100000 0.2505 0.5565 0.6307 0.0000 -14141.4020 2494.5347 0.0000 0.0000 177.5881 -11467.8415 30.5422 -11645.4297 -11467.3226 30.9570 548.6080 597.9335 27949.8284 5.0266 5.0148
TCL: Running 100000 steps at 60 kelvin.
TCL: Setting parameter langevinTemp to 60
TCL: Running for 100000 steps
ETITLE: TS BOND ANGLE DIHED IMPRP ELECT VDW BOUNDARY MISC KINETIC TOTAL TEMP POTENTIAL TOTAL3 TEMPAVG PRESSURE GPRESSURE VOLUME PRESSAVG GPRESSAVG
ENERGY: 100000 0.2505 0.5565 0.6307 0.0000 -14141.4020 2494.5347 0.0000 0.0000 177.5038 -11467.9258 30.5277 -11645.4297 -11467.5779 30.5277 546.4469 598.0116 27949.8284 546.4469 598.0116
ENERGY: 200000 0.6585 0.6741 0.8014 0.0000 -14033.9107 2473.6334 0.0000 0.0000 351.8391 -11206.3042 60.5104 -11558.1433 -11205.0873 59.9518 623.8966 667.5643 28142.3562 5.5121 5.5243
TCL: Running 100000 steps at 90 kelvin.
TCL: Setting parameter langevinTemp to 90
TCL: Running for 100000 steps
ETITLE: TS BOND ANGLE DIHED IMPRP ELECT VDW BOUNDARY MISC KINETIC TOTAL TEMP POTENTIAL TOTAL3 TEMPAVG PRESSURE GPRESSURE VOLUME PRESSAVG GPRESSAVG
ENERGY: 200000 0.6585 0.6741 0.8014 0.0000 -14033.9107 2473.6334 0.0000 0.0000 351.6641 -11206.4791 60.4803 -11558.1433 -11205.7679 60.4803 623.7791 667.6980 28142.3562 623.7791 667.6980
ENERGY: 300000 0.3850 1.8445 1.6692 0.0000 -13700.6177 2251.1387 0.0000 0.0000 515.7532 -10929.8272 88.7009 -11445.5804 -10927.8563 89.7241 -1061.5299 -991.3298 28697.8127 4.4887 4.4873
TCL: Running 100000 steps at 120 kelvin.
TCL: Setting parameter langevinTemp to 120
TCL: Running for 100000 steps
ETITLE: TS BOND ANGLE DIHED IMPRP ELECT VDW BOUNDARY MISC KINETIC TOTAL TEMP POTENTIAL TOTAL3 TEMPAVG PRESSURE GPRESSURE VOLUME PRESSAVG GPRESSAVG
ENERGY: 300000 0.3850 1.8445 1.6692 0.0000 -13700.6177 2251.1387 0.0000 0.0000 515.4947 -10930.0856 88.6564 -11445.5804 -10928.7748 88.6564 -1034.9602 -991.3588 28697.8127 -1034.9602 -991.3588
ENERGY: 400000 0.8946 2.4100 0.6676 0.0000 -13761.2863 2423.3763 0.0000 0.0000 690.6558 -10643.2819 118.7812 -11333.9378 -10641.5512 120.0110 884.3373 909.2133 28504.7196 3.5757 3.4810
TCL: Running 100000 steps at 150 kelvin.
TCL: Setting parameter langevinTemp to 150
TCL: Running for 100000 steps
ETITLE: TS BOND ANGLE DIHED IMPRP ELECT VDW BOUNDARY MISC KINETIC TOTAL TEMP POTENTIAL TOTAL3 TEMPAVG PRESSURE GPRESSURE VOLUME PRESSAVG GPRESSAVG
ENERGY: 400000 0.8946 2.4100 0.6676 0.0000 -13761.2863 2423.3763 0.0000 0.0000 690.3106 -10643.6272 118.7218 -11333.9378 -10642.3180 118.7218 863.1250 908.8727 28504.7196 863.1250 908.8727
ENERGY: 500000 1.1285 1.7898 2.0529 0.0000 -13318.3629 2166.8022 0.0000 0.0000 851.0912 -10295.4982 146.3734 -11146.5894 -10292.6643 150.0612 -535.3430 -479.9918 28646.4237 4.7143 4.6151
TCL: Running 100000 steps at 180 kelvin.
TCL: Setting parameter langevinTemp to 180
TCL: Running for 100000 steps
ETITLE: TS BOND ANGLE DIHED IMPRP ELECT VDW BOUNDARY MISC KINETIC TOTAL TEMP POTENTIAL TOTAL3 TEMPAVG PRESSURE GPRESSURE VOLUME PRESSAVG GPRESSAVG
ENERGY: 500000 1.1285 1.7898 2.0529 0.0000 -13318.3629 2166.8022 0.0000 0.0000 850.6508 -10295.9386 146.2977 -11146.5894 -10293.9610 146.2977 -541.2569 -479.8334 28646.4237 -541.2569 -479.8334
ENERGY: 600000 2.7579 3.5103 2.3125 0.0000 -12960.3131 2087.7081 0.0000 0.0000 1032.9390 -9831.0854 177.6482 -10864.0244 -9828.6594 179.7001 -89.0475 -48.4861 28592.2184 3.0107 3.0388
TCL: Running 100000 steps at 210 kelvin.
TCL: Setting parameter langevinTemp to 210
TCL: Running for 100000 steps
ETITLE: TS BOND ANGLE DIHED IMPRP ELECT VDW BOUNDARY MISC KINETIC TOTAL TEMP POTENTIAL TOTAL3 TEMPAVG PRESSURE GPRESSURE VOLUME PRESSAVG GPRESSAVG
ENERGY: 600000 2.7579 3.5103 2.3125 0.0000 -12960.3131 2087.7081 0.0000 0.0000 1032.4177 -9831.6068 177.5585 -10864.0244 -9829.6311 177.5585 -99.4485 -47.8485 28592.2184 -99.4485 -47.8485
ENERGY: 700000 1.6833 2.9218 3.3579 0.0000 -12323.7715 1943.3224 0.0000 0.0000 1259.0295 -9113.4566 216.5319 -10372.4861 -9110.7242 209.2809 642.5192 738.6353 28529.8249 4.6359 4.5277
TCL: Running 100000 steps at 240 kelvin.
TCL: Setting parameter langevinTemp to 240
TCL: Running for 100000 steps
ETITLE: TS BOND ANGLE DIHED IMPRP ELECT VDW BOUNDARY MISC KINETIC TOTAL TEMP POTENTIAL TOTAL3 TEMPAVG PRESSURE GPRESSURE VOLUME PRESSAVG GPRESSAVG
ENERGY: 700000 1.6833 2.9218 3.3579 0.0000 -12323.7715 1943.3224 0.0000 0.0000 1258.3938 -9114.0922 216.4226 -10372.4861 -9111.8533 216.4226 663.7952 737.1063 28529.8249 663.7952 737.1063
ENERGY: 800000 1.9600 6.1305 2.5281 0.0000 -11643.1432 1656.5331 0.0000 0.0000 1340.2729 -8635.7186 230.5044 -9975.9915 -8633.1826 240.2243 -380.4520 -358.6684 28653.9476 3.5620 3.5907
TCL: Running 100000 steps at 270 kelvin.
TCL: Setting parameter langevinTemp to 270
TCL: Running for 100000 steps
ETITLE: TS BOND ANGLE DIHED IMPRP ELECT VDW BOUNDARY MISC KINETIC TOTAL TEMP POTENTIAL TOTAL3 TEMPAVG PRESSURE GPRESSURE VOLUME PRESSAVG GPRESSAVG
ENERGY: 800000 1.9600 6.1305 2.5281 0.0000 -11643.1432 1656.5331 0.0000 0.0000 1339.6066 -8636.3849 230.3899 -9975.9915 -8633.9511 230.3899 -437.8219 -358.3180 28653.9476 -437.8219 -358.3180
ENERGY: 900000 1.8920 3.7259 3.3341 0.0000 -11127.4698 1571.8886 0.0000 0.0000 1618.6531 -7927.9763 278.3812 -9546.6294 -7925.7689 269.9555 233.4650 321.5228 29363.3747 2.8084 2.7715
TCL: Running 1000000 steps at 300 kelvin.
TCL: Setting parameter langevinTemp to 300
TCL: Running for 1000000 steps
ETITLE: TS BOND ANGLE DIHED IMPRP ELECT VDW BOUNDARY MISC KINETIC TOTAL TEMP POTENTIAL TOTAL3 TEMPAVG PRESSURE GPRESSURE VOLUME PRESSAVG GPRESSAVG
ENERGY: 900000 1.8920 3.7259 3.3341 0.0000 -11127.4698 1571.8886 0.0000 0.0000 1617.8949 -7928.7345 278.2508 -9546.6294 -7925.7848 278.2508 238.5182 317.5162 29363.3747 238.5182 317.5162
ENERGY: 1100000 3.8322 4.7050 0.7040 0.0000 -10559.9474 1384.3130 0.0000 0.0000 1729.3011 -7437.0922 297.4108 -9166.3933 -7434.6428 300.6690 -418.0031 -332.8576 30143.6536 2.5674 2.4675
ENERGY: 1300000 5.8603 3.2469 1.1478 0.0000 -10517.1790 1367.0722 0.0000 0.0000 1819.8805 -7319.9714 312.9889 -9139.8518 -7315.0146 300.4684 -492.2240 -374.7219 30277.7167 2.6178 2.6338
ENERGY: 1500000 3.0839 2.9872 3.2173 0.0000 -10628.8801 1484.0259 0.0000 0.0000 1793.6718 -7341.8939 308.4815 -9135.5658 -7339.3869 299.8035 648.1663 722.5837 29878.9593 2.2835 2.1438
ENERGY: 1700000 2.0335 4.2671 3.0987 0.0000 -10645.9131 1498.0921 0.0000 0.0000 1743.1448 -7395.2768 299.7916 -9138.4216 -7391.0383 300.9984 610.4242 686.3776 30119.6404 3.2571 3.1465
ENERGY: 1900000 0.7641 7.3812 3.1503 0.0000 -10537.9276 1471.4903 0.0000 0.0000 1739.8994 -7315.2423 299.2335 -9055.1417 -7310.1290 300.6707 760.4892 822.3756 30044.2563 3.2922 3.4814
TCL: Exiting due to exit command.
