Info: SIMULATION PARAMETERS:
Info: TIMESTEP               2
Info: NUMBER OF STEPS        0
Info: STEPS PER CYCLE        10
Info: PERIODIC CELL BASIS 1  36.005 0 0
Info: PERIODIC CELL BASIS 2  0 33.542 0
Info: PERIODIC CELL BASIS 3  0 0 36.199
Info: PERIODIC CELL CENTER   0 0 0
Info: WRAPPING WATERS AROUND PERIODIC BOUNDARIES ON OUTPUT.
Info: WRAPPING ALL CLUSTERS AROUND PERIODIC BOUNDARIES ON OUTPUT.
Info: FIRST LDB TIMESTEP     50
Info: LAST LDB TIMESTEP     -1
Info: HOM BACKGROUND SCALING 1
Info: PME BACKGROUND SCALING 1
Info: MIN ATOMS PER PATCH    40
Info: EMPTY PATCH LOAD       40 ATOMS
Info: INITIAL TEMPERATURE    300
Info: CENTER OF MASS MOVING INITIALLY? NO
Info: DIELECTRIC             1
Info: EXCLUDE                SCALED ONE-FOUR
Info: 1-4 ELECTROSTATICS SCALED BY 0.833333
Info: MODIFIED 1-4 VDW PARAMETERS WILL BE USED
Info: DCD FILENAME           mobley_2850833_equil.dcd
Info: DCD FREQUENCY          100000
Info: DCD FIRST STEP         100000
Info: DCD FILE WILL CONTAIN UNIT CELL DATA
Info: XST FILENAME           mobley_2850833_equil.xst
Info: XST FREQUENCY          100000
Info: NO VELOCITY DCD OUTPUT
Info: NO FORCE DCD OUTPUT
Info: OUTPUT FILENAME        mobley_2850833_equil
Info: BINARY OUTPUT FILES WILL BE USED
Info: RESTART FILENAME       mobley_2850833_equil.restart
Info: RESTART FREQUENCY      100000
Info: BINARY RESTART FILES WILL BE USED
Info: CUTOFF                 9
Info: PAIRLIST DISTANCE      11
Info: PAIRLIST SHRINK RATE   0.01
Info: PAIRLIST GROW RATE     0.01
Info: PAIRLIST TRIGGER       0.3
Info: PAIRLISTS PER CYCLE    2
Info: PAIRLISTS ENABLED
Info: MARGIN                 8
Info: HYDROGEN GROUP CUTOFF  2.5
Info: PATCH DIMENSION        21.5
Info: ENERGY OUTPUT STEPS    100000
Info: ENERGY EVALUATION STEPS    100000
Info: OUTPUT ENERGY PRECISION 4
Info: CROSSTERM ENERGY INCLUDED IN DIHEDRAL
Info: TIMING OUTPUT STEPS    1000000
Info: PRESSURE OUTPUT STEPS  100000
Info: LANGEVIN DYNAMICS ACTIVE
Info: LANGEVIN TEMPERATURE   30
Info: LANGEVIN USING BBK INTEGRATOR
Info: LANGEVIN DAMPING COEFFICIENT IS 1 INVERSE PS
Info: LANGEVIN DYNAMICS APPLIED TO HYDROGENS
Info: LANGEVIN PISTON PRESSURE CONTROL ACTIVE
Info:        TARGET PRESSURE IS 1.01325 BAR
Info:     OSCILLATION PERIOD IS 50 FS
Info:             DECAY TIME IS 25 FS
Info:     PISTON TEMPERATURE IS 300 K
Info:       PRESSURE CONTROL IS GROUP-BASED
Info:    INITIAL STRAIN RATE IS 0 0 0
Info:       CELL FLUCTUATION IS ISOTROPIC
Info: PARTICLE MESH EWALD (PME) ACTIVE
Info: PME TOLERANCE               1e-06
Info: PME EWALD COEFFICIENT       0.348832
Info: PME INTERPOLATION ORDER     4
Info: PME GRID DIMENSIONS         40 36 40
Info: PME MAXIMUM GRID SPACING    1
Info: FULL ELECTROSTATIC EVALUATION FREQUENCY      2
Info: USING VERLET I (r-RESPA) MTS SCHEME.
Info: C1 SPLITTING OF LONG RANGE ELECTROSTATICS
Info: PLACING ATOMS IN PATCHES BY HYDROGEN GROUPS
Info: RIGID BONDS TO HYDROGEN : ALL
Info:         ERROR TOLERANCE : 1e-08
Info:          MAX ITERATIONS : 100
Info: RIGID WATER USING SETTLE ALGORITHM
Info: RANDOM NUMBER SEED     1743228820
Info: USE HYDROGEN BONDS?    NO
Info: Using AMBER format force field!
Info: AMBER PARM FILE        mobley_2850833.prmtop
Info: COORDINATE PDB         mobley_2850833.pdb
Info: Exclusions will be read from PARM file!
Info: SCNB (VDW SCALING)     2
Info: USING ARITHMETIC MEAN TO COMBINE L-J SIGMA PARAMETERS
Info: BINARY COORDINATES     mobley_2850833_min.coor
Info: SUMMARY OF PARAMETERS:
Info: 9 BONDS
Info: 8 ANGLES
Info:   8 HARMONIC
Info:   0 COSINE-BASED
Info: 5 DIHEDRAL
Info: 0 IMPROPER
Info: 0 CROSSTERM
Info: 0 VDW
Info: 28 VDW_PAIRS
Info: 0 NBTHOLE_PAIRS
Info: STRUCTURE SUMMARY:
Info: 2931 ATOMS
Info: 2931 BONDS
Info: 22 ANGLES
Info: 37 DIHEDRALS
Info: 0 IMPROPERS
Info: 0 CROSSTERMS
Info: 2980 EXCLUSIONS
Info: 2922 RIGID BONDS
Info: 5871 DEGREES OF FREEDOM
Info: 981 HYDROGEN GROUPS
Info: 3 ATOMS IN LARGEST HYDROGEN GROUP
Info: 981 MIGRATION GROUPS
Info: 3 ATOMS IN LARGEST MIGRATION GROUP
Info: TOTAL MASS = 17633.7 amu
Info: TOTAL CHARGE = -0.000199957 e
Info: MASS DENSITY = 0.669813 g/cm^3
Info: ATOM DENSITY = 0.0670452 atoms/A^3
Info: ADDED 0 IMPLICIT EXCLUSIONS
Info: NONBONDED TABLE R-SQUARED SPACING: 0.0625
Info: NONBONDED TABLE SIZE: 705 POINTS
Info: REMOVING COM VELOCITY -0.145955 0.140421 -0.102166
TCL: Running for 100000 steps
ETITLE: TS BOND ANGLE DIHED IMPRP ELECT VDW BOUNDARY MISC KINETIC TOTAL TEMP POTENTIAL TOTAL3 TEMPAVG PRESSURE GPRESSURE VOLUME PRESSAVG GPRESSAVG
ENERGY: 0 0.2316 0.1040 0.1168 0.0000 -13559.1542 2390.9788 0.0000 0.0000 1785.1884 -9382.5347 306.0288 -11167.7230 -9382.1879 306.0288 535.0090 570.0999 43716.7978 535.0090 570.0999
ENERGY: 100000 0.8805 0.8397 1.7025 0.0000 -14022.1503 2334.0038 0.0000 0.0000 177.3857 -11507.3381 30.4086 -11684.7238 -11506.8481 30.9579 -1244.6350 -1164.0516 29002.3613 3.9300 3.9390
TCL: Running 100000 steps at 60 kelvin.
TCL: Setting parameter langevinTemp to 60
TCL: Running for 100000 steps
ETITLE: TS BOND ANGLE DIHED IMPRP ELECT VDW BOUNDARY MISC KINETIC TOTAL TEMP POTENTIAL TOTAL3 TEMPAVG PRESSURE GPRESSURE VOLUME PRESSAVG GPRESSAVG
ENERGY: 100000 0.8805 0.8397 1.7025 0.0000 -14022.1503 2334.0038 0.0000 0.0000 177.2970 -11507.4268 30.3934 -11684.7238 -11507.0843 30.3934 -1228.6561 -1164.0238 29002.3613 -1228.6561 -1164.0238
ENERGY: 200000 0.5484 1.8396 0.7894 0.0000 -14053.5194 2424.0276 0.0000 0.0000 350.8355 -11275.4790 60.1425 -11626.3144 -11273.8781 59.8753 -8.3758 66.2898 28692.6167 3.8548 3.8508
TCL: Running 100000 steps at 90 kelvin.
TCL: Setting parameter langevinTemp to 90
TCL: Running for 100000 steps
ETITLE: TS BOND ANGLE DIHED IMPRP ELECT VDW BOUNDARY MISC KINETIC TOTAL TEMP POTENTIAL TOTAL3 TEMPAVG PRESSURE GPRESSURE VOLUME PRESSAVG GPRESSAVG
ENERGY: 200000 0.5484 1.8396 0.7894 0.0000 -14053.5194 2424.0276 0.0000 0.0000 350.6634 -11275.6510 60.1131 -11626.3144 -11274.6313 60.1131 2.4826 66.4895 28692.6167 2.4826 66.4895
ENERGY: 300000 0.5457 1.0099 2.0929 0.0000 -13927.8714 2405.3063 0.0000 0.0000 529.1672 -10989.7493 90.7134 -11518.9165 -10988.9153 90.0281 144.1945 204.3626 28881.6396 4.6843 4.6844
TCL: Running 100000 steps at 120 kelvin.
TCL: Setting parameter langevinTemp to 120
TCL: Running for 100000 steps
ETITLE: TS BOND ANGLE DIHED IMPRP ELECT VDW BOUNDARY MISC KINETIC TOTAL TEMP POTENTIAL TOTAL3 TEMPAVG PRESSURE GPRESSURE VOLUME PRESSAVG GPRESSAVG
ENERGY: 300000 0.5457 1.0099 2.0929 0.0000 -13927.8714 2405.3063 0.0000 0.0000 528.9032 -10990.0133 90.6681 -11518.9165 -10988.6981 90.6681 153.7395 203.9638 28881.6396 153.7395 203.9638
ENERGY: 400000 0.9161 1.0341 1.1733 0.0000 -13720.9013 2339.1561 0.0000 0.0000 693.6645 -10684.9573 118.9126 -11378.6218 -10682.7506 120.0818 129.4965 178.3782 28704.3877 4.7826 4.6920
TCL: Running 100000 steps at 150 kelvin.
TCL: Setting parameter langevinTemp to 150
TCL: Running for 100000 steps
ETITLE: TS BOND ANGLE DIHED IMPRP ELECT VDW BOUNDARY MISC KINETIC TOTAL TEMP POTENTIAL TOTAL3 TEMPAVG PRESSURE GPRESSURE VOLUME PRESSAVG GPRESSAVG
ENERGY: 400000 0.9161 1.0341 1.1733 0.0000 -13720.9013 2339.1561 0.0000 0.0000 693.3316 -10685.2902 118.8555 -11378.6218 -10684.0400 118.8555 106.0849 178.7029 28704.3877 106.0849 178.7029
ENERGY: 500000 1.6804 2.4576 2.4266 0.0000 -13385.2479 2153.8436 0.0000 0.0000 870.3889 -10354.4509 149.2078 -11224.8398 -10352.8494 149.8064 -941.4365 -901.0845 29220.1283 4.2979 4.3325
TCL: Running 100000 steps at 180 kelvin.
TCL: Setting parameter langevinTemp to 180
TCL: Running for 100000 steps
ETITLE: TS BOND ANGLE DIHED IMPRP ELECT VDW BOUNDARY MISC KINETIC TOTAL TEMP POTENTIAL TOTAL3 TEMPAVG PRESSURE GPRESSURE VOLUME PRESSAVG GPRESSAVG
ENERGY: 500000 1.6804 2.4576 2.4266 0.0000 -13385.2479 2153.8436 0.0000 0.0000 869.9574 -10354.8823 149.1339 -11224.8398 -10353.1090 149.1339 -956.8097 -901.7936 29220.1283 -956.8097 -901.7936
ENERGY: 600000 1.9286 1.2951 1.7592 0.0000 -13049.9291 2100.1708 0.0000 0.0000 1095.1660 -9849.6094 187.7406 -10944.7754 -9846.7327 180.0915 0.7054 39.0544 28550.1998 2.8223 2.9250
TCL: Running 100000 steps at 210 kelvin.
TCL: Setting parameter langevinTemp to 210
TCL: Running for 100000 steps
ETITLE: TS BOND ANGLE DIHED IMPRP ELECT VDW BOUNDARY MISC KINETIC TOTAL TEMP POTENTIAL TOTAL3 TEMPAVG PRESSURE GPRESSURE VOLUME PRESSAVG GPRESSAVG
ENERGY: 600000 1.9286 1.2951 1.7592 0.0000 -13049.9291 2100.1708 0.0000 0.0000 1094.6476 -9850.1278 187.6518 -10944.7754 -9848.0709 187.6518 -30.2763 38.2606 28550.1998 -30.2763 38.2606
ENERGY: 700000 1.9600 4.2297 4.4359 0.0000 -12430.9995 1949.2710 0.0000 0.0000 1218.3399 -9252.7631 208.8559 -10471.1030 -9247.7162 210.2597 768.5162 770.8103 28068.0245 4.1387 4.0044
TCL: Running 100000 steps at 240 kelvin.
TCL: Setting parameter langevinTemp to 240
TCL: Running for 100000 steps
ETITLE: TS BOND ANGLE DIHED IMPRP ELECT VDW BOUNDARY MISC KINETIC TOTAL TEMP POTENTIAL TOTAL3 TEMPAVG PRESSURE GPRESSURE VOLUME PRESSAVG GPRESSAVG
ENERGY: 700000 1.9600 4.2297 4.4359 0.0000 -12430.9995 1949.2710 0.0000 0.0000 1217.7374 -9253.3656 208.7526 -10471.1030 -9251.5605 208.7526 696.6128 772.5653 28068.0245 696.6128 772.5653
ENERGY: 800000 3.7012 4.5865 5.5218 0.0000 -11724.1789 1723.4212 0.0000 0.0000 1435.9250 -8551.0232 246.1558 -9986.9482 -8546.0538 240.1420 47.1827 139.0803 29111.0181 3.7988 3.8740
TCL: Running 100000 steps at 270 kelvin.
TCL: Setting parameter langevinTemp to 270
TCL: Running for 100000 steps
ETITLE: TS BOND ANGLE DIHED IMPRP ELECT VDW BOUNDARY MISC KINETIC TOTAL TEMP POTENTIAL TOTAL3 TEMPAVG PRESSURE GPRESSURE VOLUME PRESSAVG GPRESSAVG
ENERGY: 800000 3.7012 4.5865 5.5218 0.0000 -11724.1789 1723.4212 0.0000 0.0000 1435.2286 -8551.7196 246.0364 -9986.9482 -8549.1078 246.0364 50.4356 139.6079 29111.0181 50.4356 139.6079
ENERGY: 900000 5.8554 2.8526 4.2099 0.0000 -11131.4187 1537.6633 0.0000 0.0000 1599.8216 -7981.0159 274.2520 -9580.8375 -7975.7993 269.8160 136.5631 161.6512 29240.3424 2.4818 2.5202
TCL: Running 1000000 steps at 300 kelvin.
TCL: Setting parameter langevinTemp to 300
TCL: Running for 1000000 steps
ETITLE: TS BOND ANGLE DIHED IMPRP ELECT VDW BOUNDARY MISC KINETIC TOTAL TEMP POTENTIAL TOTAL3 TEMPAVG PRESSURE GPRESSURE VOLUME PRESSAVG GPRESSAVG
ENERGY: 900000 5.8554 2.8526 4.2099 0.0000 -11131.4187 1537.6633 0.0000 0.0000 1599.0218 -7981.8157 274.1149 -9580.8375 -7979.4749 274.1149 89.9471 164.9598 29240.3424 89.9471 164.9598
ENERGY: 1100000 4.0964 3.6094 2.8553 0.0000 -10737.6187 1423.0413 0.0000 0.0000 1719.0510 -7584.9654 294.6911 -9304.0164 -7581.5513 300.5055 -380.5680 -312.8553 30291.8107 4.3716 4.1383
ENERGY: 1300000 1.3270 2.8282 2.9985 0.0000 -10583.3653 1357.9426 0.0000 0.0000 1757.0252 -7461.2439 301.2009 -9218.2691 -7458.0434 299.8361 -513.3942 -410.4225 30105.7120 3.9899 3.8725
ENERGY: 1500000 1.2686 2.7724 2.7250 0.0000 -10569.5283 1430.7173 0.0000 0.0000 1743.0968 -7388.9482 298.8132 -9132.0450 -7386.0742 299.6732 64.6510 241.5036 30480.5545 3.1732 3.3538
ENERGY: 1700000 2.9311 3.9975 3.9329 0.0000 -10658.5447 1429.3314 0.0000 0.0000 1726.3096 -7492.0423 295.9354 -9218.3519 -7490.0881 300.2420 -357.7649 -201.5075 30504.1250 2.2908 2.1322
ENERGY: 1900000 5.1591 2.1596 1.2143 0.0000 -10615.9077 1428.8991 0.0000 0.0000 1736.4237 -7442.0518 297.6693 -9178.4756 -7438.7956 299.6636 80.2105 173.5814 29883.6672 3.8163 3.7686
TCL: Exiting due to exit command.
