Info: SIMULATION PARAMETERS:
Info: TIMESTEP               2
Info: NUMBER OF STEPS        0
Info: STEPS PER CYCLE        10
Info: PERIODIC CELL BASIS 1  30.955 0 0
Info: PERIODIC CELL BASIS 2  0 31.0629 0
Info: PERIODIC CELL BASIS 3  0 0 31.5854
Info: PERIODIC CELL CENTER   0 0 0
Info: WRAPPING WATERS AROUND PERIODIC BOUNDARIES ON OUTPUT.
Info: WRAPPING ALL CLUSTERS AROUND PERIODIC BOUNDARIES ON OUTPUT.
Info: FIRST LDB TIMESTEP     50
Info: LAST LDB TIMESTEP     -1
Info: HOM BACKGROUND SCALING 1
Info: PME BACKGROUND SCALING 1
Info: MIN ATOMS PER PATCH    40
Info: EMPTY PATCH LOAD       40 ATOMS
Info: VELOCITY FILE          mobley_6359135_equil.vel
Info: CENTER OF MASS MOVING INITIALLY? NO
Info: DIELECTRIC             1
Info: EXCLUDE                SCALED ONE-FOUR
Info: 1-4 ELECTROSTATICS SCALED BY 0.833333
Info: MODIFIED 1-4 VDW PARAMETERS WILL BE USED
Info: DCD FILENAME           mobley_6359135_prod.dcd
Info: DCD FREQUENCY          100000
Info: DCD FIRST STEP         100000
Info: DCD FILE WILL CONTAIN UNIT CELL DATA
Info: XST FILENAME           mobley_6359135_prod.xst
Info: XST FREQUENCY          100000
Info: NO VELOCITY DCD OUTPUT
Info: NO FORCE DCD OUTPUT
Info: OUTPUT FILENAME        mobley_6359135_prod
Info: BINARY OUTPUT FILES WILL BE USED
Info: RESTART FILENAME       mobley_6359135_prod.restart
Info: RESTART FREQUENCY      100000
Info: BINARY RESTART FILES WILL BE USED
Info: CUTOFF                 9
Info: PAIRLIST DISTANCE      11
Info: PAIRLIST SHRINK RATE   0.01
Info: PAIRLIST GROW RATE     0.01
Info: PAIRLIST TRIGGER       0.3
Info: PAIRLISTS PER CYCLE    2
Info: PAIRLISTS ENABLED
Info: MARGIN                 2
Info: HYDROGEN GROUP CUTOFF  2.5
Info: PATCH DIMENSION        15.5
Info: ENERGY OUTPUT STEPS    100000
Info: ENERGY EVALUATION STEPS    100000
Info: OUTPUT ENERGY PRECISION 4
Info: CROSSTERM ENERGY INCLUDED IN DIHEDRAL
Info: TIMING OUTPUT STEPS    1000000
Info: PRESSURE OUTPUT STEPS  100000
Info: ALCHEMICAL FEP ON
Info: FEP CURRENT LAMBDA VALUE     0
Info: FEP COMPARISON LAMBDA VALUE  0.05
Info: FEP INTRA-ALCHEMICAL NON-BONDED INTERACTIONS WILL BE RETAINED
Info: FEP INTRA-ALCHEMICAL BONDED INTERACTIONS WILL BE RETAINED
Info: FEP VDW SHIFTING COEFFICIENT 5
Info: FEP ELEC. ACTIVE FOR ANNIHILATED PARTICLES BETWEEN LAMBDA = 0 AND LAMBDA = 0.5
Info: FEP ELEC. ACTIVE FOR EXNIHILATED PARTICLES BETWEEN LAMBDA = 0.5 AND LAMBDA = 1
Info: FEP VDW ACTIVE FOR ANNIHILATED PARTICLES BETWEEN LAMBDA = 0 AND LAMBDA = 1
Info: FEP VDW ACTIVE FOR EXNIHILATED PARTICLES BETWEEN LAMBDA = 0 AND LAMBDA = 1
Info: FEP BOND ACTIVE FOR ANNIHILATED PARTICLES BETWEEN LAMBDA = 1 AND LAMBDA = 1
Info: FEP BOND ACTIVE FOR EXNIHILATED PARTICLES BETWEEN LAMBDA = 0 AND LAMBDA = 0
Info: LANGEVIN DYNAMICS ACTIVE
Info: LANGEVIN TEMPERATURE   300
Info: LANGEVIN USING BBK INTEGRATOR
Info: LANGEVIN DAMPING COEFFICIENT IS 1 INVERSE PS
Info: LANGEVIN DYNAMICS APPLIED TO HYDROGENS
Info: LANGEVIN PISTON PRESSURE CONTROL ACTIVE
Info:        TARGET PRESSURE IS 1.01325 BAR
Info:     OSCILLATION PERIOD IS 50 FS
Info:             DECAY TIME IS 25 FS
Info:     PISTON TEMPERATURE IS 300 K
Info:       PRESSURE CONTROL IS GROUP-BASED
Info:    INITIAL STRAIN RATE IS -0.00024459 -0.00024459 -0.00024459
Info:       CELL FLUCTUATION IS ISOTROPIC
Info: PARTICLE MESH EWALD (PME) ACTIVE
Info: PME TOLERANCE               1e-06
Info: PME EWALD COEFFICIENT       0.348832
Info: PME INTERPOLATION ORDER     4
Info: PME GRID DIMENSIONS         32 32 32
Info: PME MAXIMUM GRID SPACING    1
Info: PME CALCULATION WILL BE PERFORMED ON GPU
Info: FULL ELECTROSTATIC EVALUATION FREQUENCY      2
Info: USING VERLET I (r-RESPA) MTS SCHEME.
Info: C1 SPLITTING OF LONG RANGE ELECTROSTATICS
Info: PLACING ATOMS IN PATCHES BY HYDROGEN GROUPS
Info: RIGID BONDS TO HYDROGEN : ALL
Info:         ERROR TOLERANCE : 1e-08
Info:          MAX ITERATIONS : 100
Info: RIGID WATER USING SETTLE ALGORITHM
Info: RANDOM NUMBER SEED     1743390729
Info: USE HYDROGEN BONDS?    NO
Info: Using AMBER format force field!
Info: AMBER PARM FILE        mobley_6359135.prmtop
Info: COORDINATE PDB         mobley_6359135.pdb
Info: Exclusions will be read from PARM file!
Info: SCNB (VDW SCALING)     2
Info: USING ARITHMETIC MEAN TO COMBINE L-J SIGMA PARAMETERS
Info: BINARY COORDINATES     mobley_6359135_equil.coor
Info: SUMMARY OF PARAMETERS:
Info: 3 BONDS
Info: 1 ANGLES
Info:   1 HARMONIC
Info:   0 COSINE-BASED
Info: 0 DIHEDRAL
Info: 0 IMPROPER
Info: 0 CROSSTERM
Info: 0 VDW
Info: 10 VDW_PAIRS
Info: 0 NBTHOLE_PAIRS
Info: To read alchdata from file: mobley_6359135.pdb
Info: To read alchflag data from column: 5
Info: STRUCTURE SUMMARY:
Info: 2942 ATOMS
Info: 2941 BONDS
Info: 6 ANGLES
Info: 0 DIHEDRALS
Info: 0 IMPROPERS
Info: 0 CROSSTERMS
Info: 2947 EXCLUSIONS
Info: 2937 RIGID BONDS
Info: ALCH: 0 ATOMS TO DISAPPEAR IN FINAL STATE
Info: ALCH: 5 ATOMS TO APPEAR IN FINAL STATE
Info: 5889 DEGREES OF FREEDOM
Info: 984 HYDROGEN GROUPS
Info: 3 ATOMS IN LARGEST HYDROGEN GROUP
Info: 984 MIGRATION GROUPS
Info: 3 ATOMS IN LARGEST MIGRATION GROUP
Info: TOTAL MASS = 17791.5 amu
Info: TOTAL CHARGE = -9.99868e-05 e
Info: MASS DENSITY = 0.972775 g/cm^3
Info: ATOM DENSITY = 0.0968688 atoms/A^3
Info: ADDED 0 IMPLICIT EXCLUSIONS
Info: NONBONDED TABLE R-SQUARED SPACING: 0.0625
Info: NONBONDED TABLE SIZE: 705 POINTS
Info: REMOVING COM VELOCITY 0.0689473 -0.0337768 -0.300343
Info: Use 3D box decompostion in PME FFT.
Info: Updated CUDA force table with 4096 elements.
Info: Updated CUDA LJ table with 4 x 4 elements.
Info: Found 8 unique exclusion lists needing 8 bytes
TCL: Running for 1500000 steps
ETITLE: TS BOND ANGLE DIHED IMPRP ELECT VDW BOUNDARY MISC KINETIC TOTAL TEMP POTENTIAL TOTALAVG TEMPAVG PRESSURE GPRESSURE VOLUME PRESSAVG GPRESSAVG
ENERGY: 0 0.6993 2.5375 0.0000 0.0000 -10664.7170 1433.4449 0.0000 0.0000 1730.3254 -7497.7099 295.7172 -9228.0352 -7497.7099 295.7172 -180.1080 -99.0044 30370.9678 -180.1080 -99.0044
ENERGY: 300000 1.7727 3.4919 0.0000 0.0000 -10695.6547 1451.6273 0.0000 0.0000 1801.6370 -7437.1258 307.9046 -9238.7628 -7502.7543 300.5783 -104.6752 -46.1714 30626.5947 -36.0119 35.4072
ENERGY: 600000 1.5069 3.5263 0.0000 0.0000 -10586.9042 1380.6612 0.0000 0.0000 1711.8023 -7489.4075 292.5516 -9201.2098 -7495.2429 298.8201 -303.3263 -231.4132 30259.4460 -35.2396 48.1106
ENERGY: 900000 0.6631 0.7755 0.0000 0.0000 -10631.7449 1386.3189 0.0000 0.0000 1756.3018 -7487.6857 300.1566 -9243.9874 -7496.2756 298.9964 -483.3045 -374.8501 30293.1468 -146.3690 -60.7427
ENERGY: 1200000 1.0728 0.7576 0.0000 0.0000 -10688.7330 1428.6062 0.0000 0.0000 1713.8394 -7544.4569 292.8997 -9258.2963 -7499.8881 298.7717 -191.2013 -149.6643 30218.0571 -113.0719 -29.8780
ENERGY: 1500000 1.3071 1.3291 0.0000 0.0000 -10601.4118 1433.4110 0.0000 0.0000 1767.6352 -7397.7293 302.0936 -9165.3646 -7487.9316 299.5961 244.1366 326.5749 30120.4487 -28.1702 54.0515
TCL: Running FEP window   2: Lambda1 0.05   Lambda2 0.1    [dLambda 0.05  ]
TCL: Setting parameter firsttimestep to 0
TCL: Setting parameter alchLambda to 0.05
Info: NONBONDED TABLE R-SQUARED SPACING: 0.0625
Info: NONBONDED TABLE SIZE: 705 POINTS
TCL: Setting parameter alchLambda2 to 0.1
Info: NONBONDED TABLE R-SQUARED SPACING: 0.0625
Info: NONBONDED TABLE SIZE: 705 POINTS
TCL: Running for 1500000 steps
ETITLE: TS BOND ANGLE DIHED IMPRP ELECT VDW BOUNDARY MISC KINETIC TOTAL TEMP POTENTIAL TOTALAVG TEMPAVG PRESSURE GPRESSURE VOLUME PRESSAVG GPRESSAVG
ENERGY: 0 1.3071 1.3291 0.0000 0.0000 -10601.4103 1438.8986 0.0000 0.0000 1766.7683 -7393.1072 301.9454 -9159.8755 -7393.1072 301.9454 255.0020 336.4996 30120.4487 255.0020 336.4996
ENERGY: 300000 0.2797 0.8748 0.0000 0.0000 -10644.2562 1390.1416 0.0000 0.0000 1674.5142 -7578.4459 286.1789 -9252.9600 -7505.7818 298.0055 -512.9736 -426.2899 30180.6817 -134.6210 -64.1183
ENERGY: 600000 0.9819 1.6317 0.0000 0.0000 -10709.4304 1460.6316 0.0000 0.0000 1764.6182 -7481.5670 301.5779 -9246.1852 -7509.6432 299.0985 319.0046 400.2236 29820.7891 167.4354 215.8670
ENERGY: 900000 0.6224 0.1554 0.0000 0.0000 -10738.9636 1555.3265 0.0000 0.0000 1775.7907 -7407.0687 303.4874 -9182.8594 -7497.9031 299.4677 991.6796 1080.7348 30364.7659 222.8418 280.9884
ENERGY: 1200000 0.5163 1.9261 0.0000 0.0000 -10842.8611 1516.9039 0.0000 0.0000 1807.9079 -7515.6070 308.9763 -9323.5149 -7498.3806 300.1310 384.5095 423.5610 30137.3291 207.1435 262.3826
ENERGY: 1500000 1.3929 2.5343 0.0000 0.0000 -10933.7200 1543.4297 0.0000 0.0000 1752.4241 -7633.9390 299.4940 -9386.3631 -7509.6406 300.7876 386.9591 489.4685 30034.2916 212.1902 268.5620
TCL: Running FEP window   3: Lambda1 0.1    Lambda2 0.15000000000000002 [dLambda 0.05000000000000002]
TCL: Setting parameter firsttimestep to 0
TCL: Setting parameter alchLambda to 0.1
Info: NONBONDED TABLE R-SQUARED SPACING: 0.0625
Info: NONBONDED TABLE SIZE: 705 POINTS
TCL: Setting parameter alchLambda2 to 0.15000000000000002
Info: NONBONDED TABLE R-SQUARED SPACING: 0.0625
Info: NONBONDED TABLE SIZE: 705 POINTS
TCL: Running for 1500000 steps
ETITLE: TS BOND ANGLE DIHED IMPRP ELECT VDW BOUNDARY MISC KINETIC TOTAL TEMP POTENTIAL TOTALAVG TEMPAVG PRESSURE GPRESSURE VOLUME PRESSAVG GPRESSAVG
ENERGY: 0 1.3929 2.5343 0.0000 0.0000 -10933.7199 1545.0947 0.0000 0.0000 1751.5684 -7633.1297 299.3477 -9384.6980 -7633.1297 299.3477 411.9654 497.4106 30034.2916 411.9654 497.4106
ENERGY: 300000 0.7896 1.3471 0.0000 0.0000 -10677.2918 1434.1667 0.0000 0.0000 1800.2298 -7440.7586 307.6641 -9240.9884 -7502.9665 302.8194 -296.3969 -231.3176 30811.4552 -346.9908 -273.6510
ENERGY: 600000 1.1671 1.6647 0.0000 0.0000 -10613.7273 1414.3322 0.0000 0.0000 1758.0899 -7438.4734 300.4622 -9196.5633 -7490.3345 301.7684 -50.7012 9.9560 30090.7258 -183.1287 -123.4177
ENERGY: 900000 0.9546 1.9206 0.0000 0.0000 -10554.5543 1415.4808 0.0000 0.0000 1739.5533 -7396.6449 297.2943 -9136.1982 -7474.8127 300.6521 -194.1096 -133.9684 31086.2581 -29.7013 22.5820
ENERGY: 1200000 1.4901 1.7301 0.0000 0.0000 -10592.1973 1384.5645 0.0000 0.0000 1741.6318 -7462.7809 297.6495 -9204.4126 -7486.5657 299.7425 -373.1783 -244.4457 30216.7033 -100.1035 -41.0269
ENERGY: 1500000 1.0862 0.2892 0.0000 0.0000 -10725.6452 1519.7579 0.0000 0.0000 1742.7464 -7461.7654 297.8400 -9204.5118 -7493.5240 299.5092 454.4510 541.2263 30954.5022 -9.2036 49.2843
TCL: Running FEP window   4: Lambda1 0.15000000000000002 Lambda2 0.2    [dLambda 0.04999999999999999]
TCL: Setting parameter firsttimestep to 0
TCL: Setting parameter alchLambda to 0.15000000000000002
Info: NONBONDED TABLE R-SQUARED SPACING: 0.0625
Info: NONBONDED TABLE SIZE: 705 POINTS
TCL: Setting parameter alchLambda2 to 0.2
Info: NONBONDED TABLE R-SQUARED SPACING: 0.0625
Info: NONBONDED TABLE SIZE: 705 POINTS
TCL: Running for 1500000 steps
ETITLE: TS BOND ANGLE DIHED IMPRP ELECT VDW BOUNDARY MISC KINETIC TOTAL TEMP POTENTIAL TOTALAVG TEMPAVG PRESSURE GPRESSURE VOLUME PRESSAVG GPRESSAVG
ENERGY: 0 1.0862 0.2892 0.0000 0.0000 -10725.6463 1519.9384 0.0000 0.0000 1741.8941 -7462.4384 297.6943 -9204.3325 -7462.4384 297.6943 470.6393 543.6122 30954.5022 470.6393 543.6122
ENERGY: 300000 0.3873 2.4534 0.0000 0.0000 -10674.0525 1395.5886 0.0000 0.0000 1732.9553 -7542.6680 296.1667 -9275.6233 -7493.3359 300.4942 -289.9220 -224.1192 29930.2897 252.4056 341.4219
ENERGY: 600000 0.2530 2.5562 0.0000 0.0000 -10583.3622 1410.8098 0.0000 0.0000 1722.7641 -7446.9791 294.4250 -9169.7432 -7478.3472 299.7167 -29.0996 45.4627 30180.0771 79.3961 156.7332
ENERGY: 900000 0.7659 1.6412 0.0000 0.0000 -10683.3246 1480.0213 0.0000 0.0000 1748.7087 -7452.1875 298.8590 -9200.8962 -7484.2992 299.5877 412.8005 465.3601 30238.6399 57.8576 132.7378
ENERGY: 1200000 0.6554 0.3145 0.0000 0.0000 -10725.6240 1485.0591 0.0000 0.0000 1675.8622 -7563.7328 286.4093 -9239.5950 -7493.3892 298.2521 477.1973 501.3470 30047.5520 -70.0855 2.9603
ENERGY: 1500000 1.0385 1.1980 0.0000 0.0000 -10705.9278 1401.0496 0.0000 0.0000 1738.3473 -7564.2944 297.0882 -9302.6417 -7491.0329 298.9150 -524.5298 -506.2734 30405.5807 -144.5565 -77.6088
TCL: Running FEP window   5: Lambda1 0.2    Lambda2 0.25   [dLambda 0.04999999999999999]
TCL: Setting parameter firsttimestep to 0
TCL: Setting parameter alchLambda to 0.2
Info: NONBONDED TABLE R-SQUARED SPACING: 0.0625
Info: NONBONDED TABLE SIZE: 705 POINTS
TCL: Setting parameter alchLambda2 to 0.25
Info: NONBONDED TABLE R-SQUARED SPACING: 0.0625
Info: NONBONDED TABLE SIZE: 705 POINTS
TCL: Running for 1500000 steps
ETITLE: TS BOND ANGLE DIHED IMPRP ELECT VDW BOUNDARY MISC KINETIC TOTAL TEMP POTENTIAL TOTALAVG TEMPAVG PRESSURE GPRESSURE VOLUME PRESSAVG GPRESSAVG
ENERGY: 0 1.0385 1.1980 0.0000 0.0000 -10705.9281 1401.5019 0.0000 0.0000 1737.4358 -7564.7539 296.9324 -9302.1897 -7564.7539 296.9324 -586.0308 -504.6277 30405.5807 -586.0308 -504.6277
ENERGY: 300000 0.3487 2.1423 0.0000 0.0000 -10796.8569 1477.6146 0.0000 0.0000 1745.6097 -7571.1416 298.3294 -9316.7513 -7510.7032 299.6619 -96.6766 -19.0921 30512.4001 -122.2797 -28.9565
ENERGY: 600000 1.1864 1.4664 0.0000 0.0000 -10715.6655 1423.0520 0.0000 0.0000 1794.1183 -7495.8423 306.6196 -9289.9607 -7504.5488 300.0951 -340.0255 -248.0213 30059.4386 -137.2064 -41.2530
ENERGY: 900000 0.4512 2.4955 0.0000 0.0000 -10632.4479 1351.2912 0.0000 0.0000 1748.5316 -7529.6784 298.8287 -9278.2100 -7486.4017 300.8664 -715.1290 -711.5097 30430.5860 -170.8349 -91.3486
ENERGY: 1200000 0.5729 1.3674 0.0000 0.0000 -10584.1705 1352.7726 0.0000 0.0000 1749.1024 -7480.3552 298.9263 -9229.4576 -7490.9136 301.4867 -884.1374 -810.2613 30599.9139 -158.2261 -76.4657
ENERGY: 1500000 3.6329 0.2781 0.0000 0.0000 -10761.0532 1472.2108 0.0000 0.0000 1714.5772 -7570.3541 293.0258 -9284.9313 -7496.3196 300.7194 257.0506 293.2141 30351.5480 -172.3545 -100.9559
TCL: Running FEP window   6: Lambda1 0.25   Lambda2 0.3    [dLambda 0.04999999999999999]
TCL: Setting parameter firsttimestep to 0
TCL: Setting parameter alchLambda to 0.25
Info: NONBONDED TABLE R-SQUARED SPACING: 0.0625
Info: NONBONDED TABLE SIZE: 705 POINTS
TCL: Setting parameter alchLambda2 to 0.3
Info: NONBONDED TABLE R-SQUARED SPACING: 0.0625
Info: NONBONDED TABLE SIZE: 705 POINTS
TCL: Running for 1500000 steps
ETITLE: TS BOND ANGLE DIHED IMPRP ELECT VDW BOUNDARY MISC KINETIC TOTAL TEMP POTENTIAL TOTALAVG TEMPAVG PRESSURE GPRESSURE VOLUME PRESSAVG GPRESSAVG
ENERGY: 0 3.6329 0.2781 0.0000 0.0000 -10761.0547 1472.0769 0.0000 0.0000 1713.7058 -7571.3609 292.8769 -9285.0667 -7571.3609 292.8769 222.4287 297.6241 30351.5480 222.4287 297.6241
ENERGY: 300000 1.2304 2.3569 0.0000 0.0000 -10643.8200 1468.8450 0.0000 0.0000 1786.1719 -7385.2158 305.2615 -9171.3877 -7458.2327 302.1632 405.5107 443.9468 30327.5918 458.1293 484.4279
ENERGY: 600000 0.6897 2.6323 0.0000 0.0000 -10731.1477 1495.2334 0.0000 0.0000 1723.1483 -7509.4439 294.4906 -9232.5922 -7466.0668 303.1277 297.8966 380.7699 30433.1463 339.1788 380.3063
ENERGY: 900000 1.7584 1.6273 0.0000 0.0000 -10708.0309 1440.7800 0.0000 0.0000 1763.8731 -7499.9921 301.4506 -9263.8653 -7475.2761 303.0676 -399.8394 -392.2352 30896.5280 115.2117 153.5546
ENERGY: 1200000 2.0187 1.9176 0.0000 0.0000 -10754.2209 1491.2668 0.0000 0.0000 1797.0225 -7461.9953 307.1159 -9259.0178 -7470.6607 303.1863 560.2089 606.8129 30207.1783 159.2218 202.8524
ENERGY: 1500000 4.0167 2.1720 0.0000 0.0000 -10608.0718 1382.2750 0.0000 0.0000 1730.6694 -7488.9386 295.7760 -9219.6080 -7463.7647 302.5255 -214.4659 -60.8818 29958.0680 83.2680 129.6413
TCL: Running FEP window   7: Lambda1 0.3    Lambda2 0.35   [dLambda 0.04999999999999999]
TCL: Setting parameter firsttimestep to 0
TCL: Setting parameter alchLambda to 0.3
Info: NONBONDED TABLE R-SQUARED SPACING: 0.0625
Info: NONBONDED TABLE SIZE: 705 POINTS
TCL: Setting parameter alchLambda2 to 0.35
Info: NONBONDED TABLE R-SQUARED SPACING: 0.0625
Info: NONBONDED TABLE SIZE: 705 POINTS
TCL: Running for 1500000 steps
ETITLE: TS BOND ANGLE DIHED IMPRP ELECT VDW BOUNDARY MISC KINETIC TOTAL TEMP POTENTIAL TOTALAVG TEMPAVG PRESSURE GPRESSURE VOLUME PRESSAVG GPRESSAVG
ENERGY: 0 4.0167 2.1720 0.0000 0.0000 -10608.0706 1383.1635 0.0000 0.0000 1729.8059 -7488.9123 295.6284 -9218.7183 -7488.9123 295.6284 -134.2970 -50.5286 29958.0680 -134.2970 -50.5286
ENERGY: 300000 2.5034 0.7898 0.0000 0.0000 -10661.2128 1436.9456 0.0000 0.0000 1736.2359 -7484.7381 296.7273 -9220.9740 -7531.5296 294.6105 -4.4033 93.7062 30383.5437 89.9863 171.6596
ENERGY: 600000 0.5286 1.7802 0.0000 0.0000 -10667.7219 1377.5394 0.0000 0.0000 1759.9275 -7527.9461 300.7763 -9287.8737 -7537.2594 295.2741 -551.6884 -500.7590 30231.2297 -33.2642 41.6850
ENERGY: 900000 0.4715 2.6939 0.0000 0.0000 -10776.1173 1494.7021 0.0000 0.0000 1702.4958 -7575.7540 290.9611 -9278.2498 -7519.9782 294.8744 465.2393 442.1163 30228.7705 44.8073 110.3151
ENERGY: 1200000 2.2460 0.8233 0.0000 0.0000 -10645.4089 1373.4563 0.0000 0.0000 1824.1694 -7444.7139 311.7554 -9268.8833 -7513.2318 296.8393 -544.1281 -451.8008 30382.5393 -37.7424 29.0333
ENERGY: 1500000 0.4821 0.5915 0.0000 0.0000 -10791.0910 1439.2820 0.0000 0.0000 1797.5119 -7553.2236 307.1996 -9350.7355 -7504.0807 298.6857 -165.8543 -92.3151 30172.1530 -62.7133 1.5133
TCL: Running FEP window   8: Lambda1 0.35   Lambda2 0.39999999999999997 [dLambda 0.04999999999999999]
TCL: Setting parameter firsttimestep to 0
TCL: Setting parameter alchLambda to 0.35
Info: NONBONDED TABLE R-SQUARED SPACING: 0.0625
Info: NONBONDED TABLE SIZE: 705 POINTS
TCL: Setting parameter alchLambda2 to 0.39999999999999997
Info: NONBONDED TABLE R-SQUARED SPACING: 0.0625
Info: NONBONDED TABLE SIZE: 705 POINTS
TCL: Running for 1500000 steps
ETITLE: TS BOND ANGLE DIHED IMPRP ELECT VDW BOUNDARY MISC KINETIC TOTAL TEMP POTENTIAL TOTALAVG TEMPAVG PRESSURE GPRESSURE VOLUME PRESSAVG GPRESSAVG
ENERGY: 0 0.4821 0.5915 0.0000 0.0000 -10791.0906 1439.1670 0.0000 0.0000 1796.6404 -7554.2097 307.0506 -9350.8501 -7554.2097 307.0506 -170.3411 -90.5676 30172.1530 -170.3411 -90.5676
ENERGY: 300000 2.0131 0.3425 0.0000 0.0000 -10735.2274 1464.3167 0.0000 0.0000 1711.1473 -7557.4079 292.4396 -9268.5552 -7487.1705 303.3521 -21.7170 -4.1457 30438.2635 -452.7365 -379.8040
ENERGY: 600000 3.0076 1.1773 0.0000 0.0000 -10574.3697 1425.8543 0.0000 0.0000 1744.1809 -7400.1496 298.0852 -9144.3304 -7458.9940 303.5317 80.5811 84.4060 30562.7078 -316.5946 -248.5759
ENERGY: 900000 0.3934 0.8552 0.0000 0.0000 -10632.2958 1400.5866 0.0000 0.0000 1747.8717 -7482.5889 298.7159 -9230.4606 -7476.7554 301.4426 -320.7668 -258.8984 30731.4104 -292.6483 -232.1229
ENERGY: 1200000 1.7436 0.9057 0.0000 0.0000 -10729.2458 1453.8500 0.0000 0.0000 1786.4598 -7486.2866 305.3107 -9272.7465 -7470.4844 301.9697 -12.7477 137.5754 30459.6309 -205.4717 -140.1138
ENERGY: 1500000 0.4437 1.1530 0.0000 0.0000 -10684.0370 1439.6515 0.0000 0.0000 1711.7771 -7531.0118 292.5473 -9242.7888 -7477.6346 300.7252 -131.3078 -60.7866 30529.7861 -217.5780 -152.5127
TCL: Running FEP window   9: Lambda1 0.39999999999999997 Lambda2 0.44999999999999996 [dLambda 0.04999999999999999]
TCL: Setting parameter firsttimestep to 0
TCL: Setting parameter alchLambda to 0.39999999999999997
Info: NONBONDED TABLE R-SQUARED SPACING: 0.0625
Info: NONBONDED TABLE SIZE: 705 POINTS
TCL: Setting parameter alchLambda2 to 0.44999999999999996
Info: NONBONDED TABLE R-SQUARED SPACING: 0.0625
Info: NONBONDED TABLE SIZE: 705 POINTS
TCL: Running for 1500000 steps
ETITLE: TS BOND ANGLE DIHED IMPRP ELECT VDW BOUNDARY MISC KINETIC TOTAL TEMP POTENTIAL TOTALAVG TEMPAVG PRESSURE GPRESSURE VOLUME PRESSAVG GPRESSAVG
ENERGY: 0 0.4437 1.1530 0.0000 0.0000 -10684.0380 1439.5486 0.0000 0.0000 1710.8845 -7532.0082 292.3947 -9242.8927 -7532.0082 292.3947 -156.6898 -54.5271 30529.7861 -156.6898 -54.5271
ENERGY: 300000 0.8096 0.9830 0.0000 0.0000 -10606.3532 1343.0021 0.0000 0.0000 1749.2452 -7512.3133 298.9507 -9261.5585 -7503.8365 300.0620 -867.5085 -788.7942 30399.0422 -334.5634 -269.0973
ENERGY: 600000 2.5161 1.7721 0.0000 0.0000 -10752.0136 1457.7557 0.0000 0.0000 1787.7029 -7502.2668 305.5232 -9289.9697 -7504.0276 299.4593 167.3368 100.1414 30333.0241 -148.9982 -95.2442
ENERGY: 900000 0.7742 2.9156 0.0000 0.0000 -10727.4341 1428.4329 0.0000 0.0000 1743.4392 -7551.8723 297.9584 -9295.3115 -7506.2029 299.7535 -187.1732 -158.2715 30397.0713 -155.4188 -104.5570
ENERGY: 1200000 0.2436 1.3720 0.0000 0.0000 -10691.0045 1442.3337 0.0000 0.0000 1718.3569 -7528.6983 293.6718 -9247.0552 -7502.8108 299.8938 21.5560 113.1163 30176.4719 -94.7071 -40.9925
ENERGY: 1500000 0.6588 3.3293 0.0000 0.0000 -10658.9444 1436.0041 0.0000 0.0000 1771.8690 -7447.0831 302.8171 -9218.9521 -7496.7362 300.2162 -107.5326 -35.6976 30559.5861 -91.1982 -30.8084
TCL: Running FEP window  10: Lambda1 0.44999999999999996 Lambda2 0.49999999999999994 [dLambda 0.04999999999999999]
TCL: Setting parameter firsttimestep to 0
TCL: Setting parameter alchLambda to 0.44999999999999996
Info: NONBONDED TABLE R-SQUARED SPACING: 0.0625
Info: NONBONDED TABLE SIZE: 705 POINTS
TCL: Setting parameter alchLambda2 to 0.49999999999999994
Info: NONBONDED TABLE R-SQUARED SPACING: 0.0625
Info: NONBONDED TABLE SIZE: 705 POINTS
TCL: Running for 1500000 steps
ETITLE: TS BOND ANGLE DIHED IMPRP ELECT VDW BOUNDARY MISC KINETIC TOTAL TEMP POTENTIAL TOTALAVG TEMPAVG PRESSURE GPRESSURE VOLUME PRESSAVG GPRESSAVG
ENERGY: 0 0.6588 3.3293 0.0000 0.0000 -10658.9432 1435.8438 0.0000 0.0000 1771.0403 -7448.0710 302.6755 -9219.1113 -7448.0710 302.6755 -124.8279 -30.0438 30559.5861 -124.8279 -30.0438
ENERGY: 300000 0.6427 1.3888 0.0000 0.0000 -10674.3592 1355.5372 0.0000 0.0000 1822.6030 -7494.1875 311.4877 -9316.7906 -7475.1986 303.4408 -617.5989 -587.3971 30141.0567 47.5281 106.5848
ENERGY: 600000 3.7797 1.1479 0.0000 0.0000 -10649.3370 1474.1015 0.0000 0.0000 1731.2723 -7439.0356 295.8790 -9170.3079 -7488.0164 301.3714 397.7625 455.5750 30499.3033 82.3389 149.1847
ENERGY: 900000 0.7248 0.1639 0.0000 0.0000 -10613.8543 1361.7728 0.0000 0.0000 1769.3246 -7481.8681 302.3823 -9251.1927 -7476.0649 302.6770 -582.7236 -457.9944 30529.2668 143.9550 218.8980
ENERGY: 1200000 1.2899 0.8924 0.0000 0.0000 -10804.9284 1500.4980 0.0000 0.0000 1796.8439 -7505.4042 307.0854 -9302.2480 -7489.0351 302.5305 161.4840 186.0943 30947.2974 32.2718 99.8698
ENERGY: 1500000 0.8407 2.0629 0.0000 0.0000 -10797.7032 1472.6275 0.0000 0.0000 1783.4686 -7538.7035 304.7995 -9322.1721 -7495.1809 302.6703 220.7177 270.4159 30045.6165 17.4059 84.8079
TCL: Running FEP window  11: Lambda1 0.49999999999999994 Lambda2 0.5499999999999999 [dLambda 0.04999999999999999]
TCL: Setting parameter firsttimestep to 0
TCL: Setting parameter alchLambda to 0.49999999999999994
Info: NONBONDED TABLE R-SQUARED SPACING: 0.0625
Info: NONBONDED TABLE SIZE: 705 POINTS
TCL: Setting parameter alchLambda2 to 0.5499999999999999
Info: NONBONDED TABLE R-SQUARED SPACING: 0.0625
Info: NONBONDED TABLE SIZE: 705 POINTS
TCL: Running for 1500000 steps
ETITLE: TS BOND ANGLE DIHED IMPRP ELECT VDW BOUNDARY MISC KINETIC TOTAL TEMP POTENTIAL TOTALAVG TEMPAVG PRESSURE GPRESSURE VOLUME PRESSAVG GPRESSAVG
ENERGY: 0 0.8407 2.0629 0.0000 0.0000 -10797.7031 1472.3167 0.0000 0.0000 1782.6497 -7539.8331 304.6596 -9322.4828 -7539.8331 304.6596 186.4147 274.3528 30045.6165 186.4147 274.3528
ENERGY: 300000 0.1284 0.5360 0.0000 0.0000 -10775.6216 1485.4818 0.0000 0.0000 1755.5768 -7533.8985 300.0328 -9289.4753 -7479.5389 301.3069 91.2843 164.8622 30387.4390 -156.3097 -109.9788
ENERGY: 600000 1.4766 3.1517 0.0000 0.0000 -10744.4579 1484.3209 0.0000 0.0000 1782.1018 -7473.4069 304.5659 -9255.5087 -7467.8128 300.0801 47.4597 123.3299 30816.3069 -174.4327 -113.7942
ENERGY: 900000 0.7483 1.5219 0.0000 0.0000 -10657.5601 1342.1812 0.0000 0.0000 1736.2406 -7576.8681 296.7281 -9313.1087 -7493.9010 300.7225 -701.5712 -651.8260 29914.4039 -216.2776 -159.4554
ENERGY: 1200000 1.3086 3.2160 0.0000 0.0000 -10728.9314 1483.3320 0.0000 0.0000 1733.5894 -7507.4854 296.2750 -9241.0748 -7492.7399 300.9902 459.1666 432.4375 30331.0426 -106.8791 -56.7383
ENERGY: 1500000 0.7557 0.3367 0.0000 0.0000 -10653.5242 1423.6737 0.0000 0.0000 1729.2477 -7499.5105 295.5330 -9228.7582 -7497.3268 300.0470 -75.5062 -15.0241 30301.1707 -55.5452 0.1653
TCL: Running FEP window  12: Lambda1 0.5499999999999999 Lambda2 0.6    [dLambda 0.050000000000000044]
TCL: Setting parameter firsttimestep to 0
TCL: Setting parameter alchLambda to 0.5499999999999999
Info: NONBONDED TABLE R-SQUARED SPACING: 0.0625
Info: NONBONDED TABLE SIZE: 705 POINTS
TCL: Setting parameter alchLambda2 to 0.6
Info: NONBONDED TABLE R-SQUARED SPACING: 0.0625
Info: NONBONDED TABLE SIZE: 705 POINTS
TCL: Running for 1500000 steps
ETITLE: TS BOND ANGLE DIHED IMPRP ELECT VDW BOUNDARY MISC KINETIC TOTAL TEMP POTENTIAL TOTALAVG TEMPAVG PRESSURE GPRESSURE VOLUME PRESSAVG GPRESSAVG
ENERGY: 0 0.7557 0.3367 0.0000 0.0000 -10653.5182 1423.6985 0.0000 0.0000 1728.3380 -7500.3894 295.3776 -9228.7274 -7500.3894 295.3776 -106.7323 -8.6924 30301.1707 -106.7323 -8.6924
ENERGY: 300000 0.5210 0.6968 0.0000 0.0000 -10601.4367 1371.8683 0.0000 0.0000 1724.1312 -7504.2194 294.6586 -9228.3506 -7495.7057 299.3202 -530.4379 -518.8629 30562.6185 -380.1706 -310.7368
ENERGY: 600000 1.4807 2.8927 0.0000 0.0000 -10656.5597 1449.8270 0.0000 0.0000 1706.9079 -7495.4514 291.7151 -9202.3592 -7490.4881 297.8674 131.5563 168.8907 30489.1883 -254.7211 -185.3340
ENERGY: 900000 0.9673 2.9872 0.0000 0.0000 -10635.0174 1395.8792 0.0000 0.0000 1751.6174 -7483.5662 299.3561 -9235.1836 -7495.4741 298.6712 -80.7789 -10.2656 30043.8000 -150.7112 -85.4121
ENERGY: 1200000 0.0942 1.2773 0.0000 0.0000 -10786.3614 1457.4068 0.0000 0.0000 1685.7578 -7641.8253 288.1005 -9327.5831 -7503.1647 298.8382 231.7350 331.7616 29661.3392 -150.9014 -85.3806
ENERGY: 1500000 2.7456 2.0173 0.0000 0.0000 -10709.5585 1469.5325 0.0000 0.0000 1730.1035 -7505.1596 295.6793 -9235.2631 -7494.3064 299.7404 73.7548 174.0302 30420.3973 -70.5334 -0.6571
TCL: Running FEP window  13: Lambda1 0.6    Lambda2 0.65   [dLambda 0.050000000000000044]
TCL: Setting parameter firsttimestep to 0
TCL: Setting parameter alchLambda to 0.6
Info: NONBONDED TABLE R-SQUARED SPACING: 0.0625
Info: NONBONDED TABLE SIZE: 705 POINTS
TCL: Setting parameter alchLambda2 to 0.65
Info: NONBONDED TABLE R-SQUARED SPACING: 0.0625
Info: NONBONDED TABLE SIZE: 705 POINTS
TCL: Running for 1500000 steps
ETITLE: TS BOND ANGLE DIHED IMPRP ELECT VDW BOUNDARY MISC KINETIC TOTAL TEMP POTENTIAL TOTALAVG TEMPAVG PRESSURE GPRESSURE VOLUME PRESSAVG GPRESSAVG
ENERGY: 0 2.7456 2.0173 0.0000 0.0000 -10709.5402 1469.5220 0.0000 0.0000 1729.1672 -7506.0881 295.5193 -9235.2553 -7506.0881 295.5193 104.4193 177.0768 30420.3973 104.4193 177.0768
ENERGY: 300000 0.8375 2.2150 0.0000 0.0000 -10762.0918 1486.5493 0.0000 0.0000 1774.4164 -7498.0735 303.2525 -9272.4899 -7481.3744 298.8525 521.3301 617.1420 30117.0335 107.9822 201.4721
ENERGY: 600000 1.6040 2.2851 0.0000 0.0000 -10687.1272 1401.4353 0.0000 0.0000 1768.7227 -7513.0801 302.2794 -9281.8029 -7510.6110 298.9387 -456.1982 -408.0576 30472.9989 35.7937 101.2119
ENERGY: 900000 0.6477 2.4257 0.0000 0.0000 -10665.0046 1380.4469 0.0000 0.0000 1738.6348 -7542.8495 297.1373 -9281.4844 -7510.2748 298.6510 -566.0080 -510.6319 30271.9566 -50.0412 14.8738
ENERGY: 1200000 0.6792 1.2508 0.0000 0.0000 -10704.0993 1413.2262 0.0000 0.0000 1716.2037 -7572.7395 293.3038 -9288.9432 -7503.1879 298.9340 -94.7990 -24.6248 29969.8231 -76.6189 -5.7153
ENERGY: 1500000 1.0404 0.7843 0.0000 0.0000 -10774.5891 1462.5831 0.0000 0.0000 1655.5431 -7654.6382 282.9367 -9310.1813 -7507.4838 297.8886 -78.5815 0.4587 30169.4027 -58.3160 8.6449
TCL: Running FEP window  14: Lambda1 0.65   Lambda2 0.7000000000000001 [dLambda 0.050000000000000044]
TCL: Setting parameter firsttimestep to 0
TCL: Setting parameter alchLambda to 0.65
Info: NONBONDED TABLE R-SQUARED SPACING: 0.0625
Info: NONBONDED TABLE SIZE: 705 POINTS
TCL: Setting parameter alchLambda2 to 0.7000000000000001
Info: NONBONDED TABLE R-SQUARED SPACING: 0.0625
Info: NONBONDED TABLE SIZE: 705 POINTS
TCL: Running for 1500000 steps
ETITLE: TS BOND ANGLE DIHED IMPRP ELECT VDW BOUNDARY MISC KINETIC TOTAL TEMP POTENTIAL TOTALAVG TEMPAVG PRESSURE GPRESSURE VOLUME PRESSAVG GPRESSAVG
ENERGY: 0 1.0404 0.7843 0.0000 0.0000 -10774.6678 1462.6682 0.0000 0.0000 1654.6752 -7655.4997 282.7884 -9310.1749 -7655.4997 282.7884 -78.0112 9.2839 30169.4027 -78.0112 9.2839
ENERGY: 300000 0.9022 2.9259 0.0000 0.0000 -10653.6702 1358.8797 0.0000 0.0000 1751.0173 -7539.9451 299.2535 -9290.9624 -7502.4565 297.5367 -386.5149 -386.5728 29953.6634 -356.0677 -305.5628
ENERGY: 600000 0.5777 1.7281 0.0000 0.0000 -10606.1643 1426.0695 0.0000 0.0000 1727.1406 -7450.6483 295.1729 -9177.7889 -7490.2892 296.8547 -22.6504 79.8368 30431.1344 -232.2723 -176.7911
ENERGY: 900000 2.3834 1.2002 0.0000 0.0000 -10781.3728 1484.3895 0.0000 0.0000 1769.2968 -7524.1028 302.3775 -9293.3996 -7493.7916 297.7791 62.0390 188.7934 30129.6326 -267.2328 -194.1184
ENERGY: 1200000 1.0910 2.1050 0.0000 0.0000 -10714.9807 1395.7622 0.0000 0.0000 1676.9654 -7639.0572 286.5978 -9316.0225 -7503.7381 297.4914 -379.5869 -415.2926 30054.6971 -233.8640 -171.7300
ENERGY: 1500000 2.0694 0.8109 0.0000 0.0000 -10533.4428 1320.6069 0.0000 0.0000 1707.7915 -7502.1640 291.8661 -9209.9556 -7505.4381 297.1084 -792.3290 -794.6068 30746.9173 -200.3298 -139.8600
TCL: Running FEP window  15: Lambda1 0.7000000000000001 Lambda2 0.7500000000000001 [dLambda 0.050000000000000044]
TCL: Setting parameter firsttimestep to 0
TCL: Setting parameter alchLambda to 0.7000000000000001
Info: NONBONDED TABLE R-SQUARED SPACING: 0.0625
Info: NONBONDED TABLE SIZE: 705 POINTS
TCL: Setting parameter alchLambda2 to 0.7500000000000001
Info: NONBONDED TABLE R-SQUARED SPACING: 0.0625
Info: NONBONDED TABLE SIZE: 705 POINTS
TCL: Running for 1500000 steps
ETITLE: TS BOND ANGLE DIHED IMPRP ELECT VDW BOUNDARY MISC KINETIC TOTAL TEMP POTENTIAL TOTALAVG TEMPAVG PRESSURE GPRESSURE VOLUME PRESSAVG GPRESSAVG
ENERGY: 0 2.0694 0.8109 0.0000 0.0000 -10533.4318 1320.5913 0.0000 0.0000 1706.9041 -7503.0561 291.7145 -9209.9602 -7503.0561 291.7145 -864.2646 -788.0049 30746.9173 -864.2646 -788.0049
ENERGY: 300000 3.0743 1.3612 0.0000 0.0000 -10681.0006 1437.7910 0.0000 0.0000 1795.8629 -7442.9113 306.9177 -9238.7741 -7493.7162 299.9395 121.7542 180.2595 30066.3416 -241.6290 -162.3666
ENERGY: 600000 0.2782 0.7828 0.0000 0.0000 -10662.9129 1380.1164 0.0000 0.0000 1743.0810 -7538.6545 297.8972 -9281.7355 -7504.4487 299.8805 -691.2857 -599.5535 30658.0909 -87.6188 -14.9716
ENERGY: 900000 1.7132 1.4385 0.0000 0.0000 -10718.1672 1409.2435 0.0000 0.0000 1714.4719 -7591.3000 293.0078 -9305.7719 -7504.1615 300.0947 -269.8910 -244.4923 30355.0110 -120.6918 -59.7524
ENERGY: 1200000 0.8812 0.4605 0.0000 0.0000 -10782.0951 1487.7703 0.0000 0.0000 1740.5879 -7552.3951 297.4711 -9292.9830 -7508.5174 299.5034 452.9254 544.4157 29976.3517 -141.8903 -81.2413
ENERGY: 1500000 0.6326 1.5982 0.0000 0.0000 -10790.7952 1493.8452 0.0000 0.0000 1803.3024 -7491.4168 308.1892 -9294.7192 -7512.3352 299.6803 301.9502 353.6070 30387.0046 -151.6157 -90.8372
TCL: Running FEP window  16: Lambda1 0.7500000000000001 Lambda2 0.8000000000000002 [dLambda 0.050000000000000044]
TCL: Setting parameter firsttimestep to 0
TCL: Setting parameter alchLambda to 0.7500000000000001
Info: NONBONDED TABLE R-SQUARED SPACING: 0.0625
Info: NONBONDED TABLE SIZE: 705 POINTS
TCL: Setting parameter alchLambda2 to 0.8000000000000002
Info: NONBONDED TABLE R-SQUARED SPACING: 0.0625
Info: NONBONDED TABLE SIZE: 705 POINTS
TCL: Running for 1500000 steps
ETITLE: TS BOND ANGLE DIHED IMPRP ELECT VDW BOUNDARY MISC KINETIC TOTAL TEMP POTENTIAL TOTALAVG TEMPAVG PRESSURE GPRESSURE VOLUME PRESSAVG GPRESSAVG
ENERGY: 0 0.6326 1.5982 0.0000 0.0000 -10790.7983 1493.7473 0.0000 0.0000 1802.4481 -7492.3721 308.0432 -9294.8202 -7492.3721 308.0432 280.8623 358.1638 30387.0046 280.8623 358.1638
ENERGY: 300000 0.7799 1.8164 0.0000 0.0000 -10582.2509 1348.3605 0.0000 0.0000 1773.4808 -7457.8133 303.0926 -9231.2941 -7479.7640 302.5628 -833.6788 -845.5857 30925.0075 -291.5904 -248.2157
ENERGY: 600000 2.2389 0.1295 0.0000 0.0000 -10682.3871 1402.1607 0.0000 0.0000 1772.8471 -7505.0109 302.9843 -9277.8580 -7489.5838 301.8356 -383.0079 -278.8507 30431.4994 -148.0216 -94.1326
ENERGY: 900000 1.0324 1.8219 0.0000 0.0000 -10805.5912 1513.3109 0.0000 0.0000 1752.6839 -7536.7421 299.5383 -9289.4260 -7505.7037 299.9234 413.3993 446.1778 30369.9344 -155.1667 -103.8099
ENERGY: 1200000 0.9457 2.0965 0.0000 0.0000 -10703.6481 1372.0351 0.0000 0.0000 1736.3990 -7592.1718 296.7552 -9328.5708 -7509.1598 300.6386 -597.1311 -559.0416 29939.5903 -175.6654 -118.4119
ENERGY: 1500000 1.1817 2.6386 0.0000 0.0000 -10801.2622 1551.8147 0.0000 0.0000 1745.6976 -7499.9296 298.3444 -9245.6271 -7501.2863 301.3396 797.8508 792.3748 30397.2962 -172.3811 -127.0050
TCL: Running FEP window  17: Lambda1 0.8000000000000002 Lambda2 0.8500000000000002 [dLambda 0.050000000000000044]
TCL: Setting parameter firsttimestep to 0
TCL: Setting parameter alchLambda to 0.8000000000000002
Info: NONBONDED TABLE R-SQUARED SPACING: 0.0625
Info: NONBONDED TABLE SIZE: 705 POINTS
TCL: Setting parameter alchLambda2 to 0.8500000000000002
Info: NONBONDED TABLE R-SQUARED SPACING: 0.0625
Info: NONBONDED TABLE SIZE: 705 POINTS
TCL: Running for 1500000 steps
ETITLE: TS BOND ANGLE DIHED IMPRP ELECT VDW BOUNDARY MISC KINETIC TOTAL TEMP POTENTIAL TOTALAVG TEMPAVG PRESSURE GPRESSURE VOLUME PRESSAVG GPRESSAVG
ENERGY: 0 1.1817 2.6386 0.0000 0.0000 -10801.2592 1551.4457 0.0000 0.0000 1744.8430 -7501.1502 298.1983 -9245.9932 -7501.1502 298.1983 719.6877 794.4062 30397.2962 719.6877 794.4062
ENERGY: 300000 1.4030 1.7582 0.0000 0.0000 -10591.0553 1357.5317 0.0000 0.0000 1746.5109 -7483.8515 298.4834 -9230.3624 -7522.2269 300.0219 -413.6772 -329.3597 30196.2612 57.7399 129.3647
ENERGY: 600000 0.6237 2.7933 0.0000 0.0000 -10855.8271 1484.6196 0.0000 0.0000 1775.4595 -7592.3311 303.4307 -9367.7906 -7541.7289 299.6119 -157.9673 -75.6684 30669.4822 -171.3861 -105.2794
ENERGY: 900000 0.5477 1.6966 0.0000 0.0000 -10641.2799 1410.3030 0.0000 0.0000 1800.8054 -7427.9272 307.7624 -9228.7326 -7520.7141 300.2980 -101.5609 -85.3911 30701.5649 -139.1392 -77.2558
ENERGY: 1200000 0.8487 0.6202 0.0000 0.0000 -10629.3910 1371.6023 0.0000 0.0000 1686.0734 -7570.2463 288.1544 -9256.3198 -7517.3522 298.3480 -426.5254 -345.1238 30280.8787 -201.2511 -141.7919
ENERGY: 1500000 0.8968 1.9477 0.0000 0.0000 -10774.2672 1474.7619 0.0000 0.0000 1825.8037 -7470.8570 312.0347 -9296.6608 -7511.5390 299.5405 252.3226 304.8841 30533.9587 -147.5752 -87.8967
TCL: Running FEP window  18: Lambda1 0.8500000000000002 Lambda2 0.9000000000000002 [dLambda 0.050000000000000044]
TCL: Setting parameter firsttimestep to 0
TCL: Setting parameter alchLambda to 0.8500000000000002
Info: NONBONDED TABLE R-SQUARED SPACING: 0.0625
Info: NONBONDED TABLE SIZE: 705 POINTS
TCL: Setting parameter alchLambda2 to 0.9000000000000002
Info: NONBONDED TABLE R-SQUARED SPACING: 0.0625
Info: NONBONDED TABLE SIZE: 705 POINTS
TCL: Running for 1500000 steps
ETITLE: TS BOND ANGLE DIHED IMPRP ELECT VDW BOUNDARY MISC KINETIC TOTAL TEMP POTENTIAL TOTALAVG TEMPAVG PRESSURE GPRESSURE VOLUME PRESSAVG GPRESSAVG
ENERGY: 0 0.8968 1.9477 0.0000 0.0000 -10774.1941 1474.7882 0.0000 0.0000 1824.9003 -7471.6612 311.8803 -9296.5614 -7471.6612 311.8803 228.3857 313.4141 30533.9587 228.3857 313.4141
ENERGY: 300000 0.9410 1.6763 0.0000 0.0000 -10724.2282 1499.4732 0.0000 0.0000 1779.6706 -7442.4672 304.1504 -9222.1377 -7438.9246 305.7999 655.6924 747.4881 30257.6968 451.3225 518.4568
ENERGY: 600000 1.0656 2.3872 0.0000 0.0000 -10609.7880 1396.0238 0.0000 0.0000 1775.2981 -7435.0133 303.4032 -9210.3115 -7446.4994 303.2779 -479.6672 -389.1581 30921.9189 254.0530 336.2671
ENERGY: 900000 0.4505 1.2806 0.0000 0.0000 -10574.7251 1358.4564 0.0000 0.0000 1750.0853 -7464.4522 299.0942 -9214.5375 -7446.5989 302.2492 -421.2779 -381.6578 30278.8244 129.8569 210.0487
ENERGY: 1200000 0.8071 0.7807 0.0000 0.0000 -10810.8407 1593.3356 0.0000 0.0000 1796.3851 -7419.5321 307.0070 -9215.9172 -7452.7107 301.8953 1359.4349 1472.5434 30157.6576 134.9000 207.7454
ENERGY: 1500000 0.9564 1.5590 0.0000 0.0000 -10708.3142 1378.4157 0.0000 0.0000 1784.5150 -7542.8681 304.9784 -9327.3832 -7462.1613 302.0666 -604.5696 -589.9352 30320.4800 -11.0251 60.8270
TCL: Running FEP window  19: Lambda1 0.9000000000000002 Lambda2 0.9500000000000003 [dLambda 0.050000000000000044]
TCL: Setting parameter firsttimestep to 0
TCL: Setting parameter alchLambda to 0.9000000000000002
Info: NONBONDED TABLE R-SQUARED SPACING: 0.0625
Info: NONBONDED TABLE SIZE: 705 POINTS
TCL: Setting parameter alchLambda2 to 0.9500000000000003
Info: NONBONDED TABLE R-SQUARED SPACING: 0.0625
Info: NONBONDED TABLE SIZE: 705 POINTS
TCL: Running for 1500000 steps
ETITLE: TS BOND ANGLE DIHED IMPRP ELECT VDW BOUNDARY MISC KINETIC TOTAL TEMP POTENTIAL TOTALAVG TEMPAVG PRESSURE GPRESSURE VOLUME PRESSAVG GPRESSAVG
ENERGY: 0 0.9564 1.5590 0.0000 0.0000 -10708.3581 1378.4144 0.0000 0.0000 1783.6512 -7543.7772 304.8307 -9327.4283 -7543.7772 304.8307 -662.2342 -581.5833 30320.4800 -662.2342 -581.5833
ENERGY: 300000 0.2033 3.3376 0.0000 0.0000 -10727.3216 1440.2013 0.0000 0.0000 1791.4862 -7492.0930 306.1698 -9283.5793 -7480.4828 303.7505 -130.7849 -62.3413 30670.8746 -394.9130 -305.3177
ENERGY: 600000 1.7561 1.2261 0.0000 0.0000 -10798.7577 1497.0999 0.0000 0.0000 1809.4113 -7489.2643 309.2332 -9298.6756 -7508.9388 303.1286 343.3928 417.5983 30377.2748 -204.8000 -128.1690
ENERGY: 900000 1.2950 2.7410 0.0000 0.0000 -10764.2158 1480.5282 0.0000 0.0000 1727.3439 -7552.3077 295.2077 -9279.6516 -7511.7767 301.0411 61.6515 182.3846 30631.5316 -201.7491 -119.3812
ENERGY: 1200000 0.6559 1.1408 0.0000 0.0000 -10580.8440 1292.4039 0.0000 0.0000 1786.2297 -7500.4137 305.2714 -9286.6434 -7499.7903 301.0321 -1163.5285 -1082.9408 30505.4972 -225.0015 -141.9046
ENERGY: 1500000 0.3000 0.8015 0.0000 0.0000 -10669.8733 1446.2363 0.0000 0.0000 1736.9414 -7485.5940 296.8479 -9222.5354 -7493.0089 300.9594 271.1025 355.3066 30064.7408 -147.1869 -66.4923
TCL: Running FEP window  20: Lambda1 0.9500000000000003 Lambda2 1.0    [dLambda 0.04999999999999971]
TCL: Setting parameter firsttimestep to 0
TCL: Setting parameter alchLambda to 0.9500000000000003
Info: NONBONDED TABLE R-SQUARED SPACING: 0.0625
Info: NONBONDED TABLE SIZE: 705 POINTS
TCL: Setting parameter alchLambda2 to 1.0
Info: NONBONDED TABLE R-SQUARED SPACING: 0.0625
Info: NONBONDED TABLE SIZE: 705 POINTS
TCL: Running for 1500000 steps
ETITLE: TS BOND ANGLE DIHED IMPRP ELECT VDW BOUNDARY MISC KINETIC TOTAL TEMP POTENTIAL TOTALAVG TEMPAVG PRESSURE GPRESSURE VOLUME PRESSAVG GPRESSAVG
ENERGY: 0 0.3000 0.8015 0.0000 0.0000 -10669.8871 1446.2420 0.0000 0.0000 1736.0894 -7486.4541 296.7023 -9222.5435 -7486.4541 296.7023 286.8090 364.9332 30064.7408 286.8090 364.9332
ENERGY: 300000 0.9925 2.2507 0.0000 0.0000 -10694.9725 1426.2410 0.0000 0.0000 1789.5340 -7475.9542 305.8361 -9265.4882 -7526.6160 295.9098 -80.6129 -9.4060 30591.8766 34.8856 91.8382
ENERGY: 600000 1.9753 3.4537 0.0000 0.0000 -10570.3677 1348.0049 0.0000 0.0000 1787.5397 -7429.3941 305.4953 -9216.9338 -7501.2998 299.6140 -801.8852 -708.5765 30553.7086 -246.4092 -186.7470
ENERGY: 900000 0.8461 1.6858 0.0000 0.0000 -10671.1671 1422.5274 0.0000 0.0000 1722.6691 -7523.4388 294.4087 -9246.1078 -7507.1048 299.2841 -126.9874 -74.9527 30453.6932 -172.6235 -114.6211
ENERGY: 1200000 0.8931 3.3275 0.0000 0.0000 -10724.0466 1479.2837 0.0000 0.0000 1795.8688 -7444.6735 306.9188 -9240.5423 -7494.4318 299.6935 373.9961 406.5726 30332.0956 -99.9094 -48.2591
ENERGY: 1500000 1.7256 0.6243 0.0000 0.0000 -10525.5981 1356.8461 0.0000 0.0000 1738.8985 -7427.5036 297.1824 -9166.4021 -7491.7696 299.6351 -513.0228 -460.8095 30562.9262 -68.4351 -25.7677
TCL: Exiting due to exit command.
