Info: SIMULATION PARAMETERS:
Info: TIMESTEP               2
Info: NUMBER OF STEPS        0
Info: STEPS PER CYCLE        10
Info: PERIODIC CELL BASIS 1  34.986 0 0
Info: PERIODIC CELL BASIS 2  0 33.399 0
Info: PERIODIC CELL BASIS 3  0 0 37.195
Info: PERIODIC CELL CENTER   0 0 0
Info: WRAPPING WATERS AROUND PERIODIC BOUNDARIES ON OUTPUT.
Info: WRAPPING ALL CLUSTERS AROUND PERIODIC BOUNDARIES ON OUTPUT.
Info: FIRST LDB TIMESTEP     50
Info: LAST LDB TIMESTEP     -1
Info: HOM BACKGROUND SCALING 1
Info: PME BACKGROUND SCALING 1
Info: MIN ATOMS PER PATCH    40
Info: EMPTY PATCH LOAD       40 ATOMS
Info: INITIAL TEMPERATURE    300
Info: CENTER OF MASS MOVING INITIALLY? NO
Info: DIELECTRIC             1
Info: EXCLUDE                SCALED ONE-FOUR
Info: 1-4 ELECTROSTATICS SCALED BY 0.833333
Info: MODIFIED 1-4 VDW PARAMETERS WILL BE USED
Info: DCD FILENAME           mobley_5076071_equil.dcd
Info: DCD FREQUENCY          100000
Info: DCD FIRST STEP         100000
Info: DCD FILE WILL CONTAIN UNIT CELL DATA
Info: XST FILENAME           mobley_5076071_equil.xst
Info: XST FREQUENCY          100000
Info: NO VELOCITY DCD OUTPUT
Info: NO FORCE DCD OUTPUT
Info: OUTPUT FILENAME        mobley_5076071_equil
Info: BINARY OUTPUT FILES WILL BE USED
Info: RESTART FILENAME       mobley_5076071_equil.restart
Info: RESTART FREQUENCY      100000
Info: BINARY RESTART FILES WILL BE USED
Info: CUTOFF                 9
Info: PAIRLIST DISTANCE      11
Info: PAIRLIST SHRINK RATE   0.01
Info: PAIRLIST GROW RATE     0.01
Info: PAIRLIST TRIGGER       0.3
Info: PAIRLISTS PER CYCLE    2
Info: PAIRLISTS ENABLED
Info: MARGIN                 8
Info: HYDROGEN GROUP CUTOFF  2.5
Info: PATCH DIMENSION        21.5
Info: ENERGY OUTPUT STEPS    100000
Info: ENERGY EVALUATION STEPS    100000
Info: OUTPUT ENERGY PRECISION 4
Info: CROSSTERM ENERGY INCLUDED IN DIHEDRAL
Info: TIMING OUTPUT STEPS    1000000
Info: PRESSURE OUTPUT STEPS  100000
Info: LANGEVIN DYNAMICS ACTIVE
Info: LANGEVIN TEMPERATURE   30
Info: LANGEVIN USING BBK INTEGRATOR
Info: LANGEVIN DAMPING COEFFICIENT IS 1 INVERSE PS
Info: LANGEVIN DYNAMICS APPLIED TO HYDROGENS
Info: LANGEVIN PISTON PRESSURE CONTROL ACTIVE
Info:        TARGET PRESSURE IS 1.01325 BAR
Info:     OSCILLATION PERIOD IS 50 FS
Info:             DECAY TIME IS 25 FS
Info:     PISTON TEMPERATURE IS 300 K
Info:       PRESSURE CONTROL IS GROUP-BASED
Info:    INITIAL STRAIN RATE IS 0 0 0
Info:       CELL FLUCTUATION IS ISOTROPIC
Info: PARTICLE MESH EWALD (PME) ACTIVE
Info: PME TOLERANCE               1e-06
Info: PME EWALD COEFFICIENT       0.348832
Info: PME INTERPOLATION ORDER     4
Info: PME GRID DIMENSIONS         36 36 40
Info: PME MAXIMUM GRID SPACING    1
Info: FULL ELECTROSTATIC EVALUATION FREQUENCY      2
Info: USING VERLET I (r-RESPA) MTS SCHEME.
Info: C1 SPLITTING OF LONG RANGE ELECTROSTATICS
Info: PLACING ATOMS IN PATCHES BY HYDROGEN GROUPS
Info: RIGID BONDS TO HYDROGEN : ALL
Info:         ERROR TOLERANCE : 1e-08
Info:          MAX ITERATIONS : 100
Info: RIGID WATER USING SETTLE ALGORITHM
Info: RANDOM NUMBER SEED     1743263199
Info: USE HYDROGEN BONDS?    NO
Info: Using AMBER format force field!
Info: AMBER PARM FILE        mobley_5076071.prmtop
Info: COORDINATE PDB         mobley_5076071.pdb
Info: Exclusions will be read from PARM file!
Info: SCNB (VDW SCALING)     2
Info: USING ARITHMETIC MEAN TO COMBINE L-J SIGMA PARAMETERS
Info: BINARY COORDINATES     mobley_5076071_min.coor
Info: SUMMARY OF PARAMETERS:
Info: 14 BONDS
Info: 19 ANGLES
Info:   19 HARMONIC
Info:   0 COSINE-BASED
Info: 6 DIHEDRAL
Info: 0 IMPROPER
Info: 0 CROSSTERM
Info: 0 VDW
Info: 66 VDW_PAIRS
Info: 0 NBTHOLE_PAIRS
Info: STRUCTURE SUMMARY:
Info: 2909 ATOMS
Info: 2909 BONDS
Info: 60 ANGLES
Info: 84 DIHEDRALS
Info: 0 IMPROPERS
Info: 0 CROSSTERMS
Info: 3042 EXCLUSIONS
Info: 2887 RIGID BONDS
Info: 5840 DEGREES OF FREEDOM
Info: 980 HYDROGEN GROUPS
Info: 4 ATOMS IN LARGEST HYDROGEN GROUP
Info: 980 MIGRATION GROUPS
Info: 4 ATOMS IN LARGEST MIGRATION GROUP
Info: TOTAL MASS = 17581.6 amu
Info: TOTAL CHARGE = -0.000300046 e
Info: MASS DENSITY = 0.671746 g/cm^3
Info: ATOM DENSITY = 0.0669316 atoms/A^3
Info: ADDED 0 IMPLICIT EXCLUSIONS
Info: NONBONDED TABLE R-SQUARED SPACING: 0.0625
Info: NONBONDED TABLE SIZE: 705 POINTS
Info: REMOVING COM VELOCITY -0.0231494 0.0783984 0.147265
TCL: Running for 100000 steps
ETITLE: TS BOND ANGLE DIHED IMPRP ELECT VDW BOUNDARY MISC KINETIC TOTAL TEMP POTENTIAL TOTAL3 TEMPAVG PRESSURE GPRESSURE VOLUME PRESSAVG GPRESSAVG
ENERGY: 0 0.3923 1.5670 18.5877 0.0000 -13524.8281 2379.7546 0.0000 0.0000 1750.1991 -9374.3273 301.6234 -11124.5264 -9373.9642 301.6234 715.9001 752.3628 43462.2613 715.9001 752.3628
ENERGY: 100000 0.7978 3.2056 18.4558 0.0000 -14018.1158 2352.8077 0.0000 0.0000 174.0535 -11468.7954 29.9958 -11642.8489 -11468.2133 31.0106 -389.7251 -334.1472 28027.4264 4.6138 4.6125
TCL: Running 100000 steps at 60 kelvin.
TCL: Setting parameter langevinTemp to 60
TCL: Running for 100000 steps
ETITLE: TS BOND ANGLE DIHED IMPRP ELECT VDW BOUNDARY MISC KINETIC TOTAL TEMP POTENTIAL TOTAL3 TEMPAVG PRESSURE GPRESSURE VOLUME PRESSAVG GPRESSAVG
ENERGY: 100000 0.7978 3.2056 18.4558 0.0000 -14018.1158 2352.8077 0.0000 0.0000 173.9691 -11468.8798 29.9812 -11642.8489 -11468.4395 29.9812 -402.0622 -334.0635 28027.4264 -402.0622 -334.0635
ENERGY: 200000 1.8675 6.0009 16.9322 0.0000 -14027.1549 2445.3041 0.0000 0.0000 343.7302 -11213.3202 59.2373 -11557.0504 -11212.4608 60.0513 769.6055 871.8140 27955.8702 3.3530 3.4304
TCL: Running 100000 steps at 90 kelvin.
TCL: Setting parameter langevinTemp to 90
TCL: Running for 100000 steps
ETITLE: TS BOND ANGLE DIHED IMPRP ELECT VDW BOUNDARY MISC KINETIC TOTAL TEMP POTENTIAL TOTAL3 TEMPAVG PRESSURE GPRESSURE VOLUME PRESSAVG GPRESSAVG
ENERGY: 200000 1.8675 6.0009 16.9322 0.0000 -14027.1549 2445.3041 0.0000 0.0000 343.5484 -11213.5019 59.2060 -11557.0504 -11212.9821 59.2060 805.8390 872.0034 27955.8702 805.8390 872.0034
ENERGY: 300000 3.9778 6.1448 18.6002 0.0000 -13928.6180 2433.6626 0.0000 0.0000 507.1501 -10959.0825 87.4005 -11466.2326 -10958.6055 89.9203 760.9853 830.5607 28277.5684 4.3118 4.1913
TCL: Running 100000 steps at 120 kelvin.
TCL: Setting parameter langevinTemp to 120
TCL: Running for 100000 steps
ETITLE: TS BOND ANGLE DIHED IMPRP ELECT VDW BOUNDARY MISC KINETIC TOTAL TEMP POTENTIAL TOTAL3 TEMPAVG PRESSURE GPRESSURE VOLUME PRESSAVG GPRESSAVG
ENERGY: 300000 3.9778 6.1448 18.6002 0.0000 -13928.6180 2433.6626 0.0000 0.0000 506.8954 -10959.3371 87.3566 -11466.2326 -10958.1405 87.3566 789.2106 829.6673 28277.5684 789.2106 829.6673
ENERGY: 400000 2.4243 5.3864 19.3459 0.0000 -13492.0346 2171.0119 0.0000 0.0000 691.5843 -10602.2819 119.1853 -11293.8662 -10600.9963 120.0958 -965.2794 -882.6368 28748.1243 4.4725 4.5064
TCL: Running 100000 steps at 150 kelvin.
TCL: Setting parameter langevinTemp to 150
TCL: Running for 100000 steps
ETITLE: TS BOND ANGLE DIHED IMPRP ELECT VDW BOUNDARY MISC KINETIC TOTAL TEMP POTENTIAL TOTAL3 TEMPAVG PRESSURE GPRESSURE VOLUME PRESSAVG GPRESSAVG
ENERGY: 400000 2.4243 5.3864 19.3459 0.0000 -13492.0346 2171.0119 0.0000 0.0000 691.2302 -10602.6359 119.1243 -11293.8662 -10601.1764 119.1243 -932.6573 -882.9205 28748.1243 -932.6573 -882.9205
ENERGY: 500000 2.4708 8.9805 19.3438 0.0000 -13481.2992 2296.1906 0.0000 0.0000 884.1391 -10270.1744 152.3695 -11154.3135 -10267.4756 150.0731 857.5150 951.8208 28372.0383 2.7742 2.7100
TCL: Running 100000 steps at 180 kelvin.
TCL: Setting parameter langevinTemp to 180
TCL: Running for 100000 steps
ETITLE: TS BOND ANGLE DIHED IMPRP ELECT VDW BOUNDARY MISC KINETIC TOTAL TEMP POTENTIAL TOTAL3 TEMPAVG PRESSURE GPRESSURE VOLUME PRESSAVG GPRESSAVG
ENERGY: 500000 2.4708 8.9805 19.3438 0.0000 -13481.2992 2296.1906 0.0000 0.0000 883.7198 -10270.5937 152.2973 -11154.3135 -10268.7258 152.2973 906.2886 951.8057 28372.0383 906.2886 951.8057
ENERGY: 600000 3.6452 11.0035 17.1411 0.0000 -12944.1540 2000.6101 0.0000 0.0000 1035.8022 -9875.9519 178.5066 -10911.7542 -9874.0794 179.5960 -387.4779 -282.1513 28102.1350 3.0519 3.0172
TCL: Running 100000 steps at 210 kelvin.
TCL: Setting parameter langevinTemp to 210
TCL: Running for 100000 steps
ETITLE: TS BOND ANGLE DIHED IMPRP ELECT VDW BOUNDARY MISC KINETIC TOTAL TEMP POTENTIAL TOTAL3 TEMPAVG PRESSURE GPRESSURE VOLUME PRESSAVG GPRESSAVG
ENERGY: 600000 3.6452 11.0035 17.1411 0.0000 -12944.1540 2000.6101 0.0000 0.0000 1035.2996 -9876.4546 178.4200 -10911.7542 -9874.2938 178.4200 -354.6853 -283.1089 28102.1350 -354.6853 -283.1089
ENERGY: 700000 4.9887 13.3132 21.0093 0.0000 -12288.0088 1799.1612 0.0000 0.0000 1256.9419 -9192.5946 216.6171 -10449.5365 -9192.4983 209.7110 -522.7001 -442.1786 28549.6467 3.6190 3.6222
TCL: Running 100000 steps at 240 kelvin.
TCL: Setting parameter langevinTemp to 240
TCL: Running for 100000 steps
ETITLE: TS BOND ANGLE DIHED IMPRP ELECT VDW BOUNDARY MISC KINETIC TOTAL TEMP POTENTIAL TOTAL3 TEMPAVG PRESSURE GPRESSURE VOLUME PRESSAVG GPRESSAVG
ENERGY: 700000 4.9887 13.3132 21.0093 0.0000 -12288.0088 1799.1612 0.0000 0.0000 1256.3296 -9193.2069 216.5116 -10449.5365 -9190.4913 216.5116 -516.8006 -443.1421 28549.6467 -516.8006 -443.1421
ENERGY: 800000 5.6150 16.2454 24.0672 0.0000 -11545.9472 1597.5068 0.0000 0.0000 1415.2547 -8487.2580 243.9002 -9902.5127 -8484.6200 240.0131 -598.8159 -467.1076 28683.5076 2.8133 2.7113
TCL: Running 100000 steps at 270 kelvin.
TCL: Setting parameter langevinTemp to 270
TCL: Running for 100000 steps
ETITLE: TS BOND ANGLE DIHED IMPRP ELECT VDW BOUNDARY MISC KINETIC TOTAL TEMP POTENTIAL TOTAL3 TEMPAVG PRESSURE GPRESSURE VOLUME PRESSAVG GPRESSAVG
ENERGY: 800000 5.6150 16.2454 24.0672 0.0000 -11545.9472 1597.5068 0.0000 0.0000 1414.5725 -8487.9403 243.7826 -9902.5127 -8485.1064 243.7826 -556.4352 -466.7448 28683.5076 -556.4352 -466.7448
ENERGY: 900000 9.2640 12.9673 21.3151 0.0000 -11155.5210 1528.7450 0.0000 0.0000 1537.9497 -8045.2799 265.0450 -9583.2296 -8041.4099 270.1133 119.5212 241.2898 29011.2555 2.6898 2.6859
TCL: Running 1000000 steps at 300 kelvin.
TCL: Setting parameter langevinTemp to 300
TCL: Running for 1000000 steps
ETITLE: TS BOND ANGLE DIHED IMPRP ELECT VDW BOUNDARY MISC KINETIC TOTAL TEMP POTENTIAL TOTAL3 TEMPAVG PRESSURE GPRESSURE VOLUME PRESSAVG GPRESSAVG
ENERGY: 900000 9.2640 12.9673 21.3151 0.0000 -11155.5210 1528.7450 0.0000 0.0000 1537.1789 -8046.0507 264.9122 -9583.2296 -8042.2831 264.9122 149.1827 239.2992 29011.2555 149.1827 239.2992
ENERGY: 1100000 5.6581 17.1490 19.2254 0.0000 -10562.5192 1400.9877 0.0000 0.0000 1773.6558 -7345.8432 305.6658 -9119.4990 -7343.1034 299.7862 -3.6975 61.2356 30196.8728 3.5245 3.7547
ENERGY: 1300000 6.9053 17.8289 23.5858 0.0000 -10459.7577 1277.0329 0.0000 0.0000 1722.6457 -7411.7590 296.8749 -9134.4047 -7407.6396 300.3114 -1203.6787 -1170.0389 30511.8904 3.2870 3.1805
ENERGY: 1500000 5.6969 12.3916 18.8136 0.0000 -10524.8022 1406.7354 0.0000 0.0000 1771.3944 -7309.7702 305.2761 -9081.1646 -7307.7816 300.3103 748.3252 861.7490 29761.6514 2.2061 2.3737
ENERGY: 1700000 6.2377 12.3600 20.3465 0.0000 -10629.2261 1403.6126 0.0000 0.0000 1754.0611 -7432.6082 302.2889 -9186.6692 -7425.1623 300.5631 62.6631 80.1066 29924.2157 1.6831 1.8571
ENERGY: 1900000 6.5958 9.5563 23.4843 0.0000 -10545.7778 1387.4030 0.0000 0.0000 1842.9556 -7275.7829 317.6087 -9118.7384 -7270.9842 299.7716 275.0145 379.9202 29706.8181 2.8218 2.9007
TCL: Exiting due to exit command.
