Info: SIMULATION PARAMETERS:
Info: TIMESTEP               2
Info: NUMBER OF STEPS        0
Info: STEPS PER CYCLE        10
Info: PERIODIC CELL BASIS 1  34.986 0 0
Info: PERIODIC CELL BASIS 2  0 35.267 0
Info: PERIODIC CELL BASIS 3  0 0 35.723
Info: PERIODIC CELL CENTER   0 0 0
Info: WRAPPING WATERS AROUND PERIODIC BOUNDARIES ON OUTPUT.
Info: WRAPPING ALL CLUSTERS AROUND PERIODIC BOUNDARIES ON OUTPUT.
Info: FIRST LDB TIMESTEP     50
Info: LAST LDB TIMESTEP     -1
Info: HOM BACKGROUND SCALING 1
Info: PME BACKGROUND SCALING 1
Info: MIN ATOMS PER PATCH    40
Info: EMPTY PATCH LOAD       40 ATOMS
Info: INITIAL TEMPERATURE    300
Info: CENTER OF MASS MOVING INITIALLY? NO
Info: DIELECTRIC             1
Info: EXCLUDE                SCALED ONE-FOUR
Info: 1-4 ELECTROSTATICS SCALED BY 0.833333
Info: MODIFIED 1-4 VDW PARAMETERS WILL BE USED
Info: DCD FILENAME           mobley_4177472_equil.dcd
Info: DCD FREQUENCY          100000
Info: DCD FIRST STEP         100000
Info: DCD FILE WILL CONTAIN UNIT CELL DATA
Info: XST FILENAME           mobley_4177472_equil.xst
Info: XST FREQUENCY          100000
Info: NO VELOCITY DCD OUTPUT
Info: NO FORCE DCD OUTPUT
Info: OUTPUT FILENAME        mobley_4177472_equil
Info: BINARY OUTPUT FILES WILL BE USED
Info: RESTART FILENAME       mobley_4177472_equil.restart
Info: RESTART FREQUENCY      100000
Info: BINARY RESTART FILES WILL BE USED
Info: CUTOFF                 9
Info: PAIRLIST DISTANCE      11
Info: PAIRLIST SHRINK RATE   0.01
Info: PAIRLIST GROW RATE     0.01
Info: PAIRLIST TRIGGER       0.3
Info: PAIRLISTS PER CYCLE    2
Info: PAIRLISTS ENABLED
Info: MARGIN                 8
Info: HYDROGEN GROUP CUTOFF  2.5
Info: PATCH DIMENSION        21.5
Info: ENERGY OUTPUT STEPS    100000
Info: ENERGY EVALUATION STEPS    100000
Info: OUTPUT ENERGY PRECISION 4
Info: CROSSTERM ENERGY INCLUDED IN DIHEDRAL
Info: TIMING OUTPUT STEPS    1000000
Info: PRESSURE OUTPUT STEPS  100000
Info: LANGEVIN DYNAMICS ACTIVE
Info: LANGEVIN TEMPERATURE   30
Info: LANGEVIN USING BBK INTEGRATOR
Info: LANGEVIN DAMPING COEFFICIENT IS 1 INVERSE PS
Info: LANGEVIN DYNAMICS APPLIED TO HYDROGENS
Info: LANGEVIN PISTON PRESSURE CONTROL ACTIVE
Info:        TARGET PRESSURE IS 1.01325 BAR
Info:     OSCILLATION PERIOD IS 50 FS
Info:             DECAY TIME IS 25 FS
Info:     PISTON TEMPERATURE IS 300 K
Info:       PRESSURE CONTROL IS GROUP-BASED
Info:    INITIAL STRAIN RATE IS 0 0 0
Info:       CELL FLUCTUATION IS ISOTROPIC
Info: PARTICLE MESH EWALD (PME) ACTIVE
Info: PME TOLERANCE               1e-06
Info: PME EWALD COEFFICIENT       0.348832
Info: PME INTERPOLATION ORDER     4
Info: PME GRID DIMENSIONS         36 36 36
Info: PME MAXIMUM GRID SPACING    1
Info: FULL ELECTROSTATIC EVALUATION FREQUENCY      2
Info: USING VERLET I (r-RESPA) MTS SCHEME.
Info: C1 SPLITTING OF LONG RANGE ELECTROSTATICS
Info: PLACING ATOMS IN PATCHES BY HYDROGEN GROUPS
Info: RIGID BONDS TO HYDROGEN : ALL
Info:         ERROR TOLERANCE : 1e-08
Info:          MAX ITERATIONS : 100
Info: RIGID WATER USING SETTLE ALGORITHM
Info: RANDOM NUMBER SEED     1743246493
Info: USE HYDROGEN BONDS?    NO
Info: Using AMBER format force field!
Info: AMBER PARM FILE        mobley_4177472.prmtop
Info: COORDINATE PDB         mobley_4177472.pdb
Info: Exclusions will be read from PARM file!
Info: SCNB (VDW SCALING)     2
Info: USING ARITHMETIC MEAN TO COMBINE L-J SIGMA PARAMETERS
Info: BINARY COORDINATES     mobley_4177472_min.coor
Info: SUMMARY OF PARAMETERS:
Info: 4 BONDS
Info: 3 ANGLES
Info:   3 HARMONIC
Info:   0 COSINE-BASED
Info: 5 DIHEDRAL
Info: 0 IMPROPER
Info: 0 CROSSTERM
Info: 0 VDW
Info: 10 VDW_PAIRS
Info: 0 NBTHOLE_PAIRS
Info: STRUCTURE SUMMARY:
Info: 2909 ATOMS
Info: 2908 BONDS
Info: 48 ANGLES
Info: 79 DIHEDRALS
Info: 0 IMPROPERS
Info: 0 CROSSTERMS
Info: 3019 EXCLUSIONS
Info: 2901 RIGID BONDS
Info: 5826 DEGREES OF FREEDOM
Info: 969 HYDROGEN GROUPS
Info: 4 ATOMS IN LARGEST HYDROGEN GROUP
Info: 969 MIGRATION GROUPS
Info: 4 ATOMS IN LARGEST MIGRATION GROUP
Info: TOTAL MASS = 17427.6 amu
Info: TOTAL CHARGE = -0.000300046 e
Info: MASS DENSITY = 0.656578 g/cm^3
Info: ATOM DENSITY = 0.0659983 atoms/A^3
Info: ADDED 0 IMPLICIT EXCLUSIONS
Info: NONBONDED TABLE R-SQUARED SPACING: 0.0625
Info: NONBONDED TABLE SIZE: 705 POINTS
Info: REMOVING COM VELOCITY 0.01487 -0.0197771 0.060062
TCL: Running for 100000 steps
ETITLE: TS BOND ANGLE DIHED IMPRP ELECT VDW BOUNDARY MISC KINETIC TOTAL TEMP POTENTIAL TOTAL3 TEMPAVG PRESSURE GPRESSURE VOLUME PRESSAVG GPRESSAVG
ENERGY: 0 0.9741 2.4127 4.1201 0.0000 -13394.6529 2402.1965 0.0000 0.0000 1722.3851 -9262.5642 297.5433 -10984.9493 -9262.2287 297.5433 609.9083 647.1265 44076.8686 609.9083 647.1265
ENERGY: 100000 0.7633 3.1994 4.4946 0.0000 -13919.7844 2371.8130 0.0000 0.0000 172.8963 -11366.6179 29.8680 -11539.5142 -11366.3521 30.9131 -409.4411 -364.8672 27961.7354 3.2156 3.1930
TCL: Running 100000 steps at 60 kelvin.
TCL: Setting parameter langevinTemp to 60
TCL: Running for 100000 steps
ETITLE: TS BOND ANGLE DIHED IMPRP ELECT VDW BOUNDARY MISC KINETIC TOTAL TEMP POTENTIAL TOTAL3 TEMPAVG PRESSURE GPRESSURE VOLUME PRESSAVG GPRESSAVG
ENERGY: 100000 0.7633 3.1994 4.4946 0.0000 -13919.7844 2371.8130 0.0000 0.0000 172.8064 -11366.7078 29.8524 -11539.5142 -11366.1998 29.8524 -419.4672 -365.1273 27961.7354 -419.4672 -365.1273
ENERGY: 200000 1.5729 3.4141 4.1752 0.0000 -13904.4098 2412.0512 0.0000 0.0000 344.0925 -11139.1040 59.4422 -11483.1965 -11138.7519 59.8677 -46.0157 17.8139 28081.3413 4.4456 4.4483
TCL: Running 100000 steps at 90 kelvin.
TCL: Setting parameter langevinTemp to 90
TCL: Running for 100000 steps
ETITLE: TS BOND ANGLE DIHED IMPRP ELECT VDW BOUNDARY MISC KINETIC TOTAL TEMP POTENTIAL TOTAL3 TEMPAVG PRESSURE GPRESSURE VOLUME PRESSAVG GPRESSAVG
ENERGY: 200000 1.5729 3.4141 4.1752 0.0000 -13904.4098 2412.0512 0.0000 0.0000 343.9190 -11139.2775 59.4123 -11483.1965 -11138.4852 59.4123 -19.6358 17.0967 28081.3413 -19.6358 17.0967
ENERGY: 300000 1.0968 5.4571 4.2764 0.0000 -13813.0090 2461.5940 0.0000 0.0000 522.8721 -10817.7126 90.3265 -11340.5847 -10816.2218 89.7826 1095.2342 1154.6774 28031.4654 5.1158 5.1473
TCL: Running 100000 steps at 120 kelvin.
TCL: Setting parameter langevinTemp to 120
TCL: Running for 100000 steps
ETITLE: TS BOND ANGLE DIHED IMPRP ELECT VDW BOUNDARY MISC KINETIC TOTAL TEMP POTENTIAL TOTAL3 TEMPAVG PRESSURE GPRESSURE VOLUME PRESSAVG GPRESSAVG
ENERGY: 300000 1.0968 5.4571 4.2764 0.0000 -13813.0090 2461.5940 0.0000 0.0000 522.5997 -10817.9850 90.2795 -11340.5847 -10817.0885 90.2795 1106.8861 1155.6677 28031.4654 1106.8861 1155.6677
ENERGY: 400000 1.1363 6.2388 5.5340 0.0000 -13513.6069 2294.4642 0.0000 0.0000 695.1450 -10511.0886 120.0868 -11206.2336 -10509.7249 119.7695 151.9331 199.1939 28415.6121 4.6259 4.5282
TCL: Running 100000 steps at 150 kelvin.
TCL: Setting parameter langevinTemp to 150
TCL: Running for 100000 steps
ETITLE: TS BOND ANGLE DIHED IMPRP ELECT VDW BOUNDARY MISC KINETIC TOTAL TEMP POTENTIAL TOTAL3 TEMPAVG PRESSURE GPRESSURE VOLUME PRESSAVG GPRESSAVG
ENERGY: 400000 1.1363 6.2388 5.5340 0.0000 -13513.6069 2294.4642 0.0000 0.0000 694.8082 -10511.4255 120.0286 -11206.2336 -10509.9180 120.0286 148.4950 199.8967 28415.6121 148.4950 199.8967
ENERGY: 500000 0.7750 9.5726 4.9548 0.0000 -13238.3524 2197.9610 0.0000 0.0000 896.6163 -10128.4726 154.8911 -11025.0889 -10126.5856 150.2109 10.0860 73.9104 28554.7266 4.1164 4.1864
TCL: Running 100000 steps at 180 kelvin.
TCL: Setting parameter langevinTemp to 180
TCL: Running for 100000 steps
ETITLE: TS BOND ANGLE DIHED IMPRP ELECT VDW BOUNDARY MISC KINETIC TOTAL TEMP POTENTIAL TOTAL3 TEMPAVG PRESSURE GPRESSURE VOLUME PRESSAVG GPRESSAVG
ENERGY: 500000 0.7750 9.5726 4.9548 0.0000 -13238.3524 2197.9610 0.0000 0.0000 896.1888 -10128.9002 154.8173 -11025.0889 -10127.0163 154.8173 28.7335 73.2188 28554.7266 28.7335 73.2188
ENERGY: 600000 2.6778 12.3429 4.4198 0.0000 -12822.8674 2015.7743 0.0000 0.0000 1045.4319 -9742.2208 180.5991 -10787.6526 -9739.3560 179.7994 -744.4360 -664.3660 28609.7628 0.7937 0.8796
TCL: Running 100000 steps at 210 kelvin.
TCL: Setting parameter langevinTemp to 210
TCL: Running for 100000 steps
ETITLE: TS BOND ANGLE DIHED IMPRP ELECT VDW BOUNDARY MISC KINETIC TOTAL TEMP POTENTIAL TOTAL3 TEMPAVG PRESSURE GPRESSURE VOLUME PRESSAVG GPRESSAVG
ENERGY: 600000 2.6778 12.3429 4.4198 0.0000 -12822.8674 2015.7743 0.0000 0.0000 1044.9264 -9742.7262 180.5118 -10787.6526 -9740.6299 180.5118 -732.5349 -663.3840 28609.7628 -732.5349 -663.3840
ENERGY: 700000 3.1747 7.8650 5.2013 0.0000 -12170.5371 1819.3007 0.0000 0.0000 1195.6884 -9139.3070 206.5560 -10334.9954 -9136.6523 209.9553 -445.1194 -311.3295 28129.1961 4.0757 4.1076
TCL: Running 100000 steps at 240 kelvin.
TCL: Setting parameter langevinTemp to 240
TCL: Running for 100000 steps
ETITLE: TS BOND ANGLE DIHED IMPRP ELECT VDW BOUNDARY MISC KINETIC TOTAL TEMP POTENTIAL TOTAL3 TEMPAVG PRESSURE GPRESSURE VOLUME PRESSAVG GPRESSAVG
ENERGY: 700000 3.1747 7.8650 5.2013 0.0000 -12170.5371 1819.3007 0.0000 0.0000 1195.0897 -9139.9057 206.4526 -10334.9954 -9137.8336 206.4526 -394.7409 -311.0204 28129.1961 -394.7409 -311.0204
ENERGY: 800000 1.1043 12.2300 4.6302 0.0000 -11570.2035 1653.5840 0.0000 0.0000 1384.8290 -8513.8260 239.2302 -9898.6550 -8511.7275 239.7496 -165.8412 -105.0881 28371.4028 4.0959 4.1272
TCL: Running 100000 steps at 270 kelvin.
TCL: Setting parameter langevinTemp to 270
TCL: Running for 100000 steps
ETITLE: TS BOND ANGLE DIHED IMPRP ELECT VDW BOUNDARY MISC KINETIC TOTAL TEMP POTENTIAL TOTAL3 TEMPAVG PRESSURE GPRESSURE VOLUME PRESSAVG GPRESSAVG
ENERGY: 800000 1.1043 12.2300 4.6302 0.0000 -11570.2035 1653.5840 0.0000 0.0000 1384.1470 -8514.5081 239.1124 -9898.6550 -8512.2323 239.1124 -179.5662 -105.5131 28371.4028 -179.5662 -105.5131
ENERGY: 900000 0.6891 11.0276 7.7442 0.0000 -11056.0355 1567.8731 0.0000 0.0000 1514.3132 -7954.3883 261.5987 -9468.7015 -7952.2052 270.0524 416.3007 464.3811 28867.2730 4.9334 5.0479
TCL: Running 1000000 steps at 300 kelvin.
TCL: Setting parameter langevinTemp to 300
TCL: Running for 1000000 steps
ETITLE: TS BOND ANGLE DIHED IMPRP ELECT VDW BOUNDARY MISC KINETIC TOTAL TEMP POTENTIAL TOTAL3 TEMPAVG PRESSURE GPRESSURE VOLUME PRESSAVG GPRESSAVG
ENERGY: 900000 0.6891 11.0276 7.7442 0.0000 -11056.0355 1567.8731 0.0000 0.0000 1513.5537 -7955.1478 261.4675 -9468.7015 -7952.6241 261.4675 382.8960 462.6855 28867.2730 382.8960 462.6855
ENERGY: 1100000 2.7123 13.2998 5.1435 0.0000 -10345.1727 1207.0119 0.0000 0.0000 1749.3616 -7367.6436 302.2035 -9117.0052 -7362.8882 300.3601 -1664.7988 -1612.2681 29776.1776 4.1623 4.1695
ENERGY: 1300000 3.7667 11.7562 5.8524 0.0000 -10379.0560 1340.3059 0.0000 0.0000 1754.0491 -7263.3257 303.0133 -9017.3748 -7259.5474 300.2503 -593.5615 -476.9932 30136.0345 2.9757 2.9923
ENERGY: 1500000 3.4232 11.4635 5.8792 0.0000 -10577.7448 1460.5214 0.0000 0.0000 1729.0042 -7367.4534 298.6867 -9096.4576 -7366.1218 300.1514 345.4685 508.5193 29599.1302 2.5922 2.3831
ENERGY: 1700000 0.8239 22.7130 4.5302 0.0000 -10598.5504 1468.6349 0.0000 0.0000 1733.1785 -7368.6700 299.4079 -9101.8484 -7366.7547 299.3867 600.0245 623.4516 29493.2433 2.5508 2.6555
ENERGY: 1900000 4.1903 11.6943 5.2863 0.0000 -10470.7736 1366.5866 0.0000 0.0000 1767.8938 -7315.1221 305.4050 -9083.0159 -7309.0317 300.9412 -557.3699 -452.6975 30250.6675 3.9978 4.1774
TCL: Exiting due to exit command.
