Info: SIMULATION PARAMETERS:
Info: TIMESTEP               2
Info: NUMBER OF STEPS        0
Info: STEPS PER CYCLE        10
Info: PERIODIC CELL BASIS 1  37.133 0 0
Info: PERIODIC CELL BASIS 2  0 36.451 0
Info: PERIODIC CELL BASIS 3  0 0 33.27
Info: PERIODIC CELL CENTER   0 0 0
Info: WRAPPING WATERS AROUND PERIODIC BOUNDARIES ON OUTPUT.
Info: WRAPPING ALL CLUSTERS AROUND PERIODIC BOUNDARIES ON OUTPUT.
Info: FIRST LDB TIMESTEP     50
Info: LAST LDB TIMESTEP     -1
Info: HOM BACKGROUND SCALING 1
Info: PME BACKGROUND SCALING 1
Info: MIN ATOMS PER PATCH    40
Info: EMPTY PATCH LOAD       40 ATOMS
Info: INITIAL TEMPERATURE    300
Info: CENTER OF MASS MOVING INITIALLY? NO
Info: DIELECTRIC             1
Info: EXCLUDE                SCALED ONE-FOUR
Info: 1-4 ELECTROSTATICS SCALED BY 0.833333
Info: MODIFIED 1-4 VDW PARAMETERS WILL BE USED
Info: DCD FILENAME           mobley_5665561_equil.dcd
Info: DCD FREQUENCY          100000
Info: DCD FIRST STEP         100000
Info: DCD FILE WILL CONTAIN UNIT CELL DATA
Info: XST FILENAME           mobley_5665561_equil.xst
Info: XST FREQUENCY          100000
Info: NO VELOCITY DCD OUTPUT
Info: NO FORCE DCD OUTPUT
Info: OUTPUT FILENAME        mobley_5665561_equil
Info: BINARY OUTPUT FILES WILL BE USED
Info: RESTART FILENAME       mobley_5665561_equil.restart
Info: RESTART FREQUENCY      100000
Info: BINARY RESTART FILES WILL BE USED
Info: CUTOFF                 9
Info: PAIRLIST DISTANCE      11
Info: PAIRLIST SHRINK RATE   0.01
Info: PAIRLIST GROW RATE     0.01
Info: PAIRLIST TRIGGER       0.3
Info: PAIRLISTS PER CYCLE    2
Info: PAIRLISTS ENABLED
Info: MARGIN                 8
Info: HYDROGEN GROUP CUTOFF  2.5
Info: PATCH DIMENSION        21.5
Info: ENERGY OUTPUT STEPS    100000
Info: ENERGY EVALUATION STEPS    100000
Info: OUTPUT ENERGY PRECISION 4
Info: CROSSTERM ENERGY INCLUDED IN DIHEDRAL
Info: TIMING OUTPUT STEPS    1000000
Info: PRESSURE OUTPUT STEPS  100000
Info: LANGEVIN DYNAMICS ACTIVE
Info: LANGEVIN TEMPERATURE   30
Info: LANGEVIN USING BBK INTEGRATOR
Info: LANGEVIN DAMPING COEFFICIENT IS 1 INVERSE PS
Info: LANGEVIN DYNAMICS APPLIED TO HYDROGENS
Info: LANGEVIN PISTON PRESSURE CONTROL ACTIVE
Info:        TARGET PRESSURE IS 1.01325 BAR
Info:     OSCILLATION PERIOD IS 50 FS
Info:             DECAY TIME IS 25 FS
Info:     PISTON TEMPERATURE IS 300 K
Info:       PRESSURE CONTROL IS GROUP-BASED
Info:    INITIAL STRAIN RATE IS 0 0 0
Info:       CELL FLUCTUATION IS ISOTROPIC
Info: PARTICLE MESH EWALD (PME) ACTIVE
Info: PME TOLERANCE               1e-06
Info: PME EWALD COEFFICIENT       0.348832
Info: PME INTERPOLATION ORDER     4
Info: PME GRID DIMENSIONS         40 40 36
Info: PME MAXIMUM GRID SPACING    1
Info: FULL ELECTROSTATIC EVALUATION FREQUENCY      2
Info: USING VERLET I (r-RESPA) MTS SCHEME.
Info: C1 SPLITTING OF LONG RANGE ELECTROSTATICS
Info: PLACING ATOMS IN PATCHES BY HYDROGEN GROUPS
Info: RIGID BONDS TO HYDROGEN : ALL
Info:         ERROR TOLERANCE : 1e-08
Info:          MAX ITERATIONS : 100
Info: RIGID WATER USING SETTLE ALGORITHM
Info: RANDOM NUMBER SEED     1743221221
Info: USE HYDROGEN BONDS?    NO
Info: Using AMBER format force field!
Info: AMBER PARM FILE        mobley_5665561.prmtop
Info: COORDINATE PDB         mobley_5665561.pdb
Info: Exclusions will be read from PARM file!
Info: SCNB (VDW SCALING)     2
Info: USING ARITHMETIC MEAN TO COMBINE L-J SIGMA PARAMETERS
Info: BINARY COORDINATES     mobley_5665561_min.coor
Info: SUMMARY OF PARAMETERS:
Info: 6 BONDS
Info: 5 ANGLES
Info:   5 HARMONIC
Info:   0 COSINE-BASED
Info: 3 DIHEDRAL
Info: 0 IMPROPER
Info: 0 CROSSTERM
Info: 0 VDW
Info: 21 VDW_PAIRS
Info: 0 NBTHOLE_PAIRS
Info: STRUCTURE SUMMARY:
Info: 2946 ATOMS
Info: 2947 BONDS
Info: 42 ANGLES
Info: 66 DIHEDRALS
Info: 0 IMPROPERS
Info: 0 CROSSTERMS
Info: 3039 EXCLUSIONS
Info: 2934 RIGID BONDS
Info: 5904 DEGREES OF FREEDOM
Info: 986 HYDROGEN GROUPS
Info: 4 ATOMS IN LARGEST HYDROGEN GROUP
Info: 986 MIGRATION GROUPS
Info: 4 ATOMS IN LARGEST MIGRATION GROUP
Info: TOTAL MASS = 17703.8 amu
Info: TOTAL CHARGE = -1.86265e-08 e
Info: MASS DENSITY = 0.652835 g/cm^3
Info: ATOM DENSITY = 0.06542 atoms/A^3
Info: ADDED 0 IMPLICIT EXCLUSIONS
Info: NONBONDED TABLE R-SQUARED SPACING: 0.0625
Info: NONBONDED TABLE SIZE: 705 POINTS
Info: REMOVING COM VELOCITY -0.351595 -0.303925 -0.138677
TCL: Running for 100000 steps
ETITLE: TS BOND ANGLE DIHED IMPRP ELECT VDW BOUNDARY MISC KINETIC TOTAL TEMP POTENTIAL TOTAL3 TEMPAVG PRESSURE GPRESSURE VOLUME PRESSAVG GPRESSAVG
ENERGY: 0 0.5120 0.4606 0.0280 0.0000 -13535.6325 2390.0793 0.0000 0.0000 1736.8280 -9407.7245 296.0744 -11144.5526 -9407.4041 296.0744 429.4752 464.5936 45032.1089 429.4752 464.5936
ENERGY: 100000 0.9991 1.0502 0.6999 0.0000 -14111.0965 2436.1321 0.0000 0.0000 173.2929 -11498.9222 29.5410 -11672.2151 -11498.5909 30.9365 -234.4655 -177.1561 29245.7720 4.3783 4.4528
TCL: Running 100000 steps at 60 kelvin.
TCL: Setting parameter langevinTemp to 60
TCL: Running for 100000 steps
ETITLE: TS BOND ANGLE DIHED IMPRP ELECT VDW BOUNDARY MISC KINETIC TOTAL TEMP POTENTIAL TOTAL3 TEMPAVG PRESSURE GPRESSURE VOLUME PRESSAVG GPRESSAVG
ENERGY: 100000 0.9991 1.0502 0.6999 0.0000 -14111.0965 2436.1321 0.0000 0.0000 173.2055 -11499.0096 29.5261 -11672.2151 -11498.6409 29.5261 -225.7216 -177.3608 29245.7720 -225.7216 -177.3608
ENERGY: 200000 2.1362 0.9353 0.7723 0.0000 -13976.6720 2349.6432 0.0000 0.0000 347.3957 -11275.7893 59.2200 -11623.1850 -11274.5879 59.9486 -721.3673 -664.5204 28845.7861 3.8774 3.8704
TCL: Running 100000 steps at 90 kelvin.
TCL: Setting parameter langevinTemp to 90
TCL: Running for 100000 steps
ETITLE: TS BOND ANGLE DIHED IMPRP ELECT VDW BOUNDARY MISC KINETIC TOTAL TEMP POTENTIAL TOTAL3 TEMPAVG PRESSURE GPRESSURE VOLUME PRESSAVG GPRESSAVG
ENERGY: 200000 2.1362 0.9353 0.7723 0.0000 -13976.6720 2349.6432 0.0000 0.0000 347.2221 -11275.9629 59.1904 -11623.1850 -11275.0171 59.1904 -722.1457 -664.6779 28845.7861 -722.1457 -664.6779
ENERGY: 300000 1.4174 2.7995 1.9596 0.0000 -13937.2780 2428.4878 0.0000 0.0000 530.0995 -10972.5142 90.3652 -11502.6137 -10971.4587 89.9370 473.5647 524.8167 28693.1260 3.3656 3.3470
TCL: Running 100000 steps at 120 kelvin.
TCL: Setting parameter langevinTemp to 120
TCL: Running for 100000 steps
ETITLE: TS BOND ANGLE DIHED IMPRP ELECT VDW BOUNDARY MISC KINETIC TOTAL TEMP POTENTIAL TOTAL3 TEMPAVG PRESSURE GPRESSURE VOLUME PRESSAVG GPRESSAVG
ENERGY: 300000 1.4174 2.7995 1.9596 0.0000 -13937.2780 2428.4878 0.0000 0.0000 529.8152 -10972.7985 90.3168 -11502.6137 -10971.6726 90.3168 476.0032 524.2305 28693.1260 476.0032 524.2305
ENERGY: 400000 3.3075 2.7660 1.8786 0.0000 -13725.1653 2318.3772 0.0000 0.0000 709.2115 -10689.6244 120.8982 -11398.8359 -10688.5291 120.1697 -48.0542 -11.7690 28687.2603 4.5450 4.4977
TCL: Running 100000 steps at 150 kelvin.
TCL: Setting parameter langevinTemp to 150
TCL: Running for 100000 steps
ETITLE: TS BOND ANGLE DIHED IMPRP ELECT VDW BOUNDARY MISC KINETIC TOTAL TEMP POTENTIAL TOTAL3 TEMPAVG PRESSURE GPRESSURE VOLUME PRESSAVG GPRESSAVG
ENERGY: 400000 3.3075 2.7660 1.8786 0.0000 -13725.1653 2318.3772 0.0000 0.0000 708.8542 -10689.9817 120.8373 -11398.8359 -10688.6290 120.8373 -59.4836 -12.4130 28687.2603 -59.4836 -12.4130
ENERGY: 500000 3.9618 4.6409 1.7338 0.0000 -13365.1790 2169.1308 0.0000 0.0000 888.0201 -10297.6916 151.3794 -11185.7117 -10294.5089 149.6138 -477.5291 -464.7354 28913.0660 4.1775 4.1882
TCL: Running 100000 steps at 180 kelvin.
TCL: Setting parameter langevinTemp to 180
TCL: Running for 100000 steps
ETITLE: TS BOND ANGLE DIHED IMPRP ELECT VDW BOUNDARY MISC KINETIC TOTAL TEMP POTENTIAL TOTAL3 TEMPAVG PRESSURE GPRESSURE VOLUME PRESSAVG GPRESSAVG
ENERGY: 500000 3.9618 4.6409 1.7338 0.0000 -13365.1790 2169.1308 0.0000 0.0000 887.6029 -10298.1088 151.3083 -11185.7117 -10296.6218 151.3083 -513.6020 -464.0473 28913.0660 -513.6020 -464.0473
ENERGY: 600000 2.8481 6.2591 2.4655 0.0000 -13028.3475 2073.7709 0.0000 0.0000 1057.9449 -9885.0589 180.3462 -10943.0038 -9881.6447 179.8716 -409.2721 -284.7146 28723.9346 2.0767 2.1062
TCL: Running 100000 steps at 210 kelvin.
TCL: Setting parameter langevinTemp to 210
TCL: Running for 100000 steps
ETITLE: TS BOND ANGLE DIHED IMPRP ELECT VDW BOUNDARY MISC KINETIC TOTAL TEMP POTENTIAL TOTAL3 TEMPAVG PRESSURE GPRESSURE VOLUME PRESSAVG GPRESSAVG
ENERGY: 600000 2.8481 6.2591 2.4655 0.0000 -13028.3475 2073.7709 0.0000 0.0000 1057.4233 -9885.5805 180.2573 -10943.0038 -9883.1845 180.2573 -352.3491 -283.5774 28723.9346 -352.3491 -283.5774
ENERGY: 700000 3.0271 6.7001 3.5894 0.0000 -12366.5891 1901.0192 0.0000 0.0000 1212.6245 -9239.6288 206.7142 -10452.2533 -9237.0034 209.8012 75.8740 141.0623 28917.0324 3.5254 3.4754
TCL: Running 100000 steps at 240 kelvin.
TCL: Setting parameter langevinTemp to 240
TCL: Running for 100000 steps
ETITLE: TS BOND ANGLE DIHED IMPRP ELECT VDW BOUNDARY MISC KINETIC TOTAL TEMP POTENTIAL TOTAL3 TEMPAVG PRESSURE GPRESSURE VOLUME PRESSAVG GPRESSAVG
ENERGY: 700000 3.0271 6.7001 3.5894 0.0000 -12366.5891 1901.0192 0.0000 0.0000 1212.0220 -9240.2313 206.6115 -10452.2533 -9238.5643 206.6115 73.1008 140.7275 28917.0324 73.1008 140.7275
ENERGY: 800000 1.2606 4.3982 3.5539 0.0000 -11714.2779 1686.6784 0.0000 0.0000 1404.3482 -8614.0386 239.3971 -10018.3868 -8611.9013 239.9665 82.6015 180.0234 28780.5007 3.7826 3.7733
TCL: Running 100000 steps at 270 kelvin.
TCL: Setting parameter langevinTemp to 270
TCL: Running for 100000 steps
ETITLE: TS BOND ANGLE DIHED IMPRP ELECT VDW BOUNDARY MISC KINETIC TOTAL TEMP POTENTIAL TOTAL3 TEMPAVG PRESSURE GPRESSURE VOLUME PRESSAVG GPRESSAVG
ENERGY: 800000 1.2606 4.3982 3.5539 0.0000 -11714.2779 1686.6784 0.0000 0.0000 1403.6711 -8614.7157 239.2817 -10018.3868 -8612.8502 239.2817 90.6748 181.9994 28780.5007 90.6748 181.9994
ENERGY: 900000 4.6932 8.7312 3.0815 0.0000 -11211.8846 1581.3243 0.0000 0.0000 1608.8642 -8005.1902 274.2606 -9614.0544 -8002.1832 270.3392 234.8928 273.1664 29008.1483 3.8051 3.7535
TCL: Running 1000000 steps at 300 kelvin.
TCL: Setting parameter langevinTemp to 300
TCL: Running for 1000000 steps
ETITLE: TS BOND ANGLE DIHED IMPRP ELECT VDW BOUNDARY MISC KINETIC TOTAL TEMP POTENTIAL TOTAL3 TEMPAVG PRESSURE GPRESSURE VOLUME PRESSAVG GPRESSAVG
ENERGY: 900000 4.6932 8.7312 3.0815 0.0000 -11211.8846 1581.3243 0.0000 0.0000 1608.0754 -8005.9790 274.1261 -9614.0544 -8003.9812 274.1261 186.8289 272.5487 29008.1483 186.8289 272.5487
ENERGY: 1100000 2.5996 5.6287 5.8446 0.0000 -10521.9002 1352.3061 0.0000 0.0000 1763.9082 -7391.6130 300.6907 -9155.5212 -7386.0731 300.2308 -114.7334 -47.6889 30193.5572 3.7307 3.4850
ENERGY: 1300000 4.4589 10.2937 8.7379 0.0000 -10547.1950 1387.4772 0.0000 0.0000 1776.7237 -7359.5036 302.8754 -9136.2273 -7355.6481 300.4951 -143.6843 -52.5608 30408.4011 2.3495 2.4344
ENERGY: 1500000 2.6025 12.5895 4.7353 0.0000 -10702.5208 1443.4480 0.0000 0.0000 1778.5487 -7460.5968 303.1865 -9239.1455 -7456.1814 300.1936 -20.4100 92.6416 30031.2890 4.0163 3.9631
ENERGY: 1700000 3.9495 7.7242 2.6296 0.0000 -10676.3748 1519.8341 0.0000 0.0000 1808.8626 -7333.3748 308.3540 -9142.2375 -7332.1570 301.0684 1021.2458 1048.8898 30316.2241 2.9887 3.0101
ENERGY: 1900000 3.4187 10.1732 5.9592 0.0000 -10692.2573 1489.4874 0.0000 0.0000 1765.7649 -7417.4537 301.0072 -9183.2186 -7413.7825 300.0668 287.7526 380.6453 30710.0723 2.7989 2.9524
TCL: Exiting due to exit command.
