Info: SIMULATION PARAMETERS:
Info: TIMESTEP               2
Info: NUMBER OF STEPS        0
Info: STEPS PER CYCLE        10
Info: PERIODIC CELL BASIS 1  34.986 0 0
Info: PERIODIC CELL BASIS 2  0 34.26 0
Info: PERIODIC CELL BASIS 3  0 0 37.195
Info: PERIODIC CELL CENTER   0 0 0
Info: WRAPPING WATERS AROUND PERIODIC BOUNDARIES ON OUTPUT.
Info: WRAPPING ALL CLUSTERS AROUND PERIODIC BOUNDARIES ON OUTPUT.
Info: FIRST LDB TIMESTEP     50
Info: LAST LDB TIMESTEP     -1
Info: HOM BACKGROUND SCALING 1
Info: PME BACKGROUND SCALING 1
Info: MIN ATOMS PER PATCH    40
Info: EMPTY PATCH LOAD       40 ATOMS
Info: INITIAL TEMPERATURE    300
Info: CENTER OF MASS MOVING INITIALLY? NO
Info: DIELECTRIC             1
Info: EXCLUDE                SCALED ONE-FOUR
Info: 1-4 ELECTROSTATICS SCALED BY 0.833333
Info: MODIFIED 1-4 VDW PARAMETERS WILL BE USED
Info: DCD FILENAME           mobley_4936555_equil.dcd
Info: DCD FREQUENCY          100000
Info: DCD FIRST STEP         100000
Info: DCD FILE WILL CONTAIN UNIT CELL DATA
Info: XST FILENAME           mobley_4936555_equil.xst
Info: XST FREQUENCY          100000
Info: NO VELOCITY DCD OUTPUT
Info: NO FORCE DCD OUTPUT
Info: OUTPUT FILENAME        mobley_4936555_equil
Info: BINARY OUTPUT FILES WILL BE USED
Info: RESTART FILENAME       mobley_4936555_equil.restart
Info: RESTART FREQUENCY      100000
Info: BINARY RESTART FILES WILL BE USED
Info: CUTOFF                 9
Info: PAIRLIST DISTANCE      11
Info: PAIRLIST SHRINK RATE   0.01
Info: PAIRLIST GROW RATE     0.01
Info: PAIRLIST TRIGGER       0.3
Info: PAIRLISTS PER CYCLE    2
Info: PAIRLISTS ENABLED
Info: MARGIN                 8
Info: HYDROGEN GROUP CUTOFF  2.5
Info: PATCH DIMENSION        21.5
Info: ENERGY OUTPUT STEPS    100000
Info: ENERGY EVALUATION STEPS    100000
Info: OUTPUT ENERGY PRECISION 4
Info: CROSSTERM ENERGY INCLUDED IN DIHEDRAL
Info: TIMING OUTPUT STEPS    1000000
Info: PRESSURE OUTPUT STEPS  100000
Info: LANGEVIN DYNAMICS ACTIVE
Info: LANGEVIN TEMPERATURE   30
Info: LANGEVIN USING BBK INTEGRATOR
Info: LANGEVIN DAMPING COEFFICIENT IS 1 INVERSE PS
Info: LANGEVIN DYNAMICS APPLIED TO HYDROGENS
Info: LANGEVIN PISTON PRESSURE CONTROL ACTIVE
Info:        TARGET PRESSURE IS 1.01325 BAR
Info:     OSCILLATION PERIOD IS 50 FS
Info:             DECAY TIME IS 25 FS
Info:     PISTON TEMPERATURE IS 300 K
Info:       PRESSURE CONTROL IS GROUP-BASED
Info:    INITIAL STRAIN RATE IS 0 0 0
Info:       CELL FLUCTUATION IS ISOTROPIC
Info: PARTICLE MESH EWALD (PME) ACTIVE
Info: PME TOLERANCE               1e-06
Info: PME EWALD COEFFICIENT       0.348832
Info: PME INTERPOLATION ORDER     4
Info: PME GRID DIMENSIONS         36 36 40
Info: PME MAXIMUM GRID SPACING    1
Info: FULL ELECTROSTATIC EVALUATION FREQUENCY      2
Info: USING VERLET I (r-RESPA) MTS SCHEME.
Info: C1 SPLITTING OF LONG RANGE ELECTROSTATICS
Info: PLACING ATOMS IN PATCHES BY HYDROGEN GROUPS
Info: RIGID BONDS TO HYDROGEN : ALL
Info:         ERROR TOLERANCE : 1e-08
Info:          MAX ITERATIONS : 100
Info: RIGID WATER USING SETTLE ALGORITHM
Info: RANDOM NUMBER SEED     1743253200
Info: USE HYDROGEN BONDS?    NO
Info: Using AMBER format force field!
Info: AMBER PARM FILE        mobley_4936555.prmtop
Info: COORDINATE PDB         mobley_4936555.pdb
Info: Exclusions will be read from PARM file!
Info: SCNB (VDW SCALING)     2
Info: USING ARITHMETIC MEAN TO COMBINE L-J SIGMA PARAMETERS
Info: BINARY COORDINATES     mobley_4936555_min.coor
Info: SUMMARY OF PARAMETERS:
Info: 12 BONDS
Info: 13 ANGLES
Info:   13 HARMONIC
Info:   0 COSINE-BASED
Info: 7 DIHEDRAL
Info: 0 IMPROPER
Info: 0 CROSSTERM
Info: 0 VDW
Info: 55 VDW_PAIRS
Info: 0 NBTHOLE_PAIRS
Info: STRUCTURE SUMMARY:
Info: 2955 ATOMS
Info: 2956 BONDS
Info: 55 ANGLES
Info: 89 DIHEDRALS
Info: 0 IMPROPERS
Info: 0 CROSSTERMS
Info: 3079 EXCLUSIONS
Info: 2937 RIGID BONDS
Info: 5928 DEGREES OF FREEDOM
Info: 992 HYDROGEN GROUPS
Info: 4 ATOMS IN LARGEST HYDROGEN GROUP
Info: 992 MIGRATION GROUPS
Info: 4 ATOMS IN LARGEST MIGRATION GROUP
Info: TOTAL MASS = 17788.9 amu
Info: TOTAL CHARGE = 0.00019997 e
Info: MASS DENSITY = 0.662584 g/cm^3
Info: ATOM DENSITY = 0.0662813 atoms/A^3
Info: ADDED 0 IMPLICIT EXCLUSIONS
Info: NONBONDED TABLE R-SQUARED SPACING: 0.0625
Info: NONBONDED TABLE SIZE: 705 POINTS
Info: REMOVING COM VELOCITY -0.161104 0.169674 -0.0198766
TCL: Running for 100000 steps
ETITLE: TS BOND ANGLE DIHED IMPRP ELECT VDW BOUNDARY MISC KINETIC TOTAL TEMP POTENTIAL TOTAL3 TEMPAVG PRESSURE GPRESSURE VOLUME PRESSAVG GPRESSAVG
ENERGY: 0 0.8629 2.6581 9.9740 0.0000 -13642.3917 2386.7558 0.0000 0.0000 1788.9692 -9453.1717 303.7282 -11242.1409 -9452.7975 303.7282 488.8922 521.5136 44582.6843 488.8922 521.5136
ENERGY: 100000 1.2682 3.9569 10.3302 0.0000 -14259.3339 2472.0902 0.0000 0.0000 179.0594 -11592.6291 30.4004 -11771.6885 -11592.0471 30.9691 81.6397 149.4138 28477.2283 3.9776 3.9882
TCL: Running 100000 steps at 60 kelvin.
TCL: Setting parameter langevinTemp to 60
TCL: Running for 100000 steps
ETITLE: TS BOND ANGLE DIHED IMPRP ELECT VDW BOUNDARY MISC KINETIC TOTAL TEMP POTENTIAL TOTAL3 TEMPAVG PRESSURE GPRESSURE VOLUME PRESSAVG GPRESSAVG
ENERGY: 100000 1.2682 3.9569 10.3302 0.0000 -14259.3339 2472.0902 0.0000 0.0000 178.9683 -11592.7201 30.3849 -11771.6885 -11592.3761 30.3849 83.5557 149.4242 28477.2283 83.5557 149.4242
ENERGY: 200000 0.9738 4.4460 9.7129 0.0000 -14219.5955 2488.3594 0.0000 0.0000 350.4610 -11365.6425 59.5007 -11716.1034 -11364.2821 60.0175 714.7446 753.7799 28313.5063 3.5076 3.4996
TCL: Running 100000 steps at 90 kelvin.
TCL: Setting parameter langevinTemp to 90
TCL: Running for 100000 steps
ETITLE: TS BOND ANGLE DIHED IMPRP ELECT VDW BOUNDARY MISC KINETIC TOTAL TEMP POTENTIAL TOTAL3 TEMPAVG PRESSURE GPRESSURE VOLUME PRESSAVG GPRESSAVG
ENERGY: 200000 0.9738 4.4460 9.7129 0.0000 -14219.5955 2488.3594 0.0000 0.0000 350.2933 -11365.8101 59.4722 -11716.1034 -11364.9931 59.4722 695.9815 753.9014 28313.5063 695.9815 753.9014
ENERGY: 300000 2.6517 7.5968 9.6921 0.0000 -14112.9460 2469.4587 0.0000 0.0000 534.3355 -11089.2113 90.7186 -11623.5468 -11087.3311 89.8680 688.4657 757.5042 28558.1840 3.1437 3.0248
TCL: Running 100000 steps at 120 kelvin.
TCL: Setting parameter langevinTemp to 120
TCL: Running for 100000 steps
ETITLE: TS BOND ANGLE DIHED IMPRP ELECT VDW BOUNDARY MISC KINETIC TOTAL TEMP POTENTIAL TOTAL3 TEMPAVG PRESSURE GPRESSURE VOLUME PRESSAVG GPRESSAVG
ENERGY: 300000 2.6517 7.5968 9.6921 0.0000 -14112.9460 2469.4587 0.0000 0.0000 534.0663 -11089.4805 90.6729 -11623.5468 -11088.3143 90.6729 680.9001 757.6198 28558.1840 680.9001 757.6198
ENERGY: 400000 3.1724 7.6193 10.8460 0.0000 -13971.5281 2452.9346 0.0000 0.0000 699.2083 -10797.7476 118.7104 -11496.9559 -10795.9472 120.0792 1144.8644 1200.8328 28586.8041 3.6544 3.5299
TCL: Running 100000 steps at 150 kelvin.
TCL: Setting parameter langevinTemp to 150
TCL: Running for 100000 steps
ETITLE: TS BOND ANGLE DIHED IMPRP ELECT VDW BOUNDARY MISC KINETIC TOTAL TEMP POTENTIAL TOTAL3 TEMPAVG PRESSURE GPRESSURE VOLUME PRESSAVG GPRESSAVG
ENERGY: 400000 3.1724 7.6193 10.8460 0.0000 -13971.5281 2452.9346 0.0000 0.0000 698.8461 -10798.1098 118.6489 -11496.9559 -10796.6571 118.6489 1143.3161 1200.3571 28586.8041 1143.3161 1200.3571
ENERGY: 500000 3.2530 7.9560 11.4434 0.0000 -13436.2648 2125.6270 0.0000 0.0000 888.0938 -10399.8916 150.7791 -11287.9854 -10397.5444 150.4290 -872.5411 -802.7802 28722.8948 3.4627 3.5586
TCL: Running 100000 steps at 180 kelvin.
TCL: Setting parameter langevinTemp to 180
TCL: Running for 100000 steps
ETITLE: TS BOND ANGLE DIHED IMPRP ELECT VDW BOUNDARY MISC KINETIC TOTAL TEMP POTENTIAL TOTAL3 TEMPAVG PRESSURE GPRESSURE VOLUME PRESSAVG GPRESSAVG
ENERGY: 500000 3.2530 7.9560 11.4434 0.0000 -13436.2648 2125.6270 0.0000 0.0000 887.6510 -10400.3343 150.7039 -11287.9854 -10398.2657 150.7039 -848.5480 -802.2421 28722.8948 -848.5480 -802.2421
ENERGY: 600000 4.1202 9.2334 12.0955 0.0000 -13163.3647 2146.1633 0.0000 0.0000 1067.5063 -9924.2460 181.2394 -10991.7522 -9921.3205 179.4796 268.3686 360.6033 29039.6189 3.5440 3.5852
TCL: Running 100000 steps at 210 kelvin.
TCL: Setting parameter langevinTemp to 210
TCL: Running for 100000 steps
ETITLE: TS BOND ANGLE DIHED IMPRP ELECT VDW BOUNDARY MISC KINETIC TOTAL TEMP POTENTIAL TOTAL3 TEMPAVG PRESSURE GPRESSURE VOLUME PRESSAVG GPRESSAVG
ENERGY: 600000 4.1202 9.2334 12.0955 0.0000 -13163.3647 2146.1633 0.0000 0.0000 1066.9891 -9924.7632 181.1516 -10991.7522 -9922.7112 181.1516 300.4522 360.1714 29039.6189 300.4522 360.1714
ENERGY: 700000 4.8513 10.6425 9.2686 0.0000 -12483.3466 1945.3695 0.0000 0.0000 1215.6123 -9297.6022 206.3846 -10513.2146 -9294.2668 209.7357 300.0427 321.4980 29085.7009 3.8816 3.8859
TCL: Running 100000 steps at 240 kelvin.
TCL: Setting parameter langevinTemp to 240
TCL: Running for 100000 steps
ETITLE: TS BOND ANGLE DIHED IMPRP ELECT VDW BOUNDARY MISC KINETIC TOTAL TEMP POTENTIAL TOTAL3 TEMPAVG PRESSURE GPRESSURE VOLUME PRESSAVG GPRESSAVG
ENERGY: 700000 4.8513 10.6425 9.2686 0.0000 -12483.3466 1945.3695 0.0000 0.0000 1215.0013 -9298.2133 206.2809 -10513.2146 -9295.5463 206.2809 245.7294 321.9991 29085.7009 245.7294 321.9991
ENERGY: 800000 6.7168 9.9648 12.0250 0.0000 -11848.1200 1680.8067 0.0000 0.0000 1486.6603 -8651.9464 252.4027 -10138.6067 -8648.9876 239.8076 -292.2125 -178.8368 29133.6602 4.0543 4.1438
TCL: Running 100000 steps at 270 kelvin.
TCL: Setting parameter langevinTemp to 270
TCL: Running for 100000 steps
ETITLE: TS BOND ANGLE DIHED IMPRP ELECT VDW BOUNDARY MISC KINETIC TOTAL TEMP POTENTIAL TOTAL3 TEMPAVG PRESSURE GPRESSURE VOLUME PRESSAVG GPRESSAVG
ENERGY: 800000 6.7168 9.9648 12.0250 0.0000 -11848.1200 1680.8067 0.0000 0.0000 1485.9552 -8652.6515 252.2830 -10138.6067 -8649.7322 252.2830 -268.2044 -179.4047 29133.6602 -268.2044 -179.4047
ENERGY: 900000 5.2095 9.0639 12.8114 0.0000 -11152.5543 1520.0781 0.0000 0.0000 1563.5977 -8041.7937 265.4650 -9605.3914 -8039.0241 269.9398 -35.5877 75.2400 29787.8095 3.5807 3.4301
TCL: Running 1000000 steps at 300 kelvin.
TCL: Setting parameter langevinTemp to 300
TCL: Running for 1000000 steps
ETITLE: TS BOND ANGLE DIHED IMPRP ELECT VDW BOUNDARY MISC KINETIC TOTAL TEMP POTENTIAL TOTAL3 TEMPAVG PRESSURE GPRESSURE VOLUME PRESSAVG GPRESSAVG
ENERGY: 900000 5.2095 9.0639 12.8114 0.0000 -11152.5543 1520.0781 0.0000 0.0000 1562.8028 -8042.5886 265.3300 -9605.3914 -8040.9260 265.3300 -4.7087 75.5735 29787.8095 -4.7087 75.5735
ENERGY: 1100000 5.2524 15.6347 14.4117 0.0000 -10724.8961 1368.7890 0.0000 0.0000 1773.3753 -7547.4329 301.0807 -9320.8083 -7542.2226 300.1718 -761.1098 -629.9905 30390.6674 2.5153 2.6024
ENERGY: 1300000 8.0460 11.7761 12.0962 0.0000 -10846.0880 1508.6060 0.0000 0.0000 1755.2036 -7550.3602 297.9955 -9305.5638 -7547.3883 300.0602 357.3904 435.7620 30507.5996 2.2872 2.7127
ENERGY: 1500000 5.7430 9.2291 14.5396 0.0000 -10563.5016 1343.7311 0.0000 0.0000 1757.3724 -7432.8863 298.3637 -9190.2588 -7427.8776 300.0593 -496.0312 -379.1826 30648.6777 3.8964 3.9140
ENERGY: 1700000 6.6709 12.7692 18.5034 0.0000 -10796.7072 1526.5143 0.0000 0.0000 1778.8425 -7453.4069 302.0089 -9232.2494 -7449.0828 300.5204 1296.4077 1389.9199 30124.5093 4.2347 4.2428
ENERGY: 1900000 5.8696 13.1274 13.7325 0.0000 -10660.5706 1351.2637 0.0000 0.0000 1796.7033 -7479.8740 305.0412 -9276.5773 -7476.1047 300.4866 -578.5487 -483.6221 30353.4486 3.0536 2.9684
TCL: Exiting due to exit command.
