Info: SIMULATION PARAMETERS:
Info: TIMESTEP               2
Info: NUMBER OF STEPS        0
Info: STEPS PER CYCLE        10
Info: PERIODIC CELL BASIS 1  34.986 0 0
Info: PERIODIC CELL BASIS 2  0 36.762 0
Info: PERIODIC CELL BASIS 3  0 0 35.644
Info: PERIODIC CELL CENTER   0 0 0
Info: WRAPPING WATERS AROUND PERIODIC BOUNDARIES ON OUTPUT.
Info: WRAPPING ALL CLUSTERS AROUND PERIODIC BOUNDARIES ON OUTPUT.
Info: FIRST LDB TIMESTEP     50
Info: LAST LDB TIMESTEP     -1
Info: HOM BACKGROUND SCALING 1
Info: PME BACKGROUND SCALING 1
Info: MIN ATOMS PER PATCH    40
Info: EMPTY PATCH LOAD       40 ATOMS
Info: INITIAL TEMPERATURE    300
Info: CENTER OF MASS MOVING INITIALLY? NO
Info: DIELECTRIC             1
Info: EXCLUDE                SCALED ONE-FOUR
Info: 1-4 ELECTROSTATICS SCALED BY 0.833333
Info: MODIFIED 1-4 VDW PARAMETERS WILL BE USED
Info: DCD FILENAME           mobley_7676709_equil.dcd
Info: DCD FREQUENCY          100000
Info: DCD FIRST STEP         100000
Info: DCD FILE WILL CONTAIN UNIT CELL DATA
Info: XST FILENAME           mobley_7676709_equil.xst
Info: XST FREQUENCY          100000
Info: NO VELOCITY DCD OUTPUT
Info: NO FORCE DCD OUTPUT
Info: OUTPUT FILENAME        mobley_7676709_equil
Info: BINARY OUTPUT FILES WILL BE USED
Info: RESTART FILENAME       mobley_7676709_equil.restart
Info: RESTART FREQUENCY      100000
Info: BINARY RESTART FILES WILL BE USED
Info: CUTOFF                 9
Info: PAIRLIST DISTANCE      11
Info: PAIRLIST SHRINK RATE   0.01
Info: PAIRLIST GROW RATE     0.01
Info: PAIRLIST TRIGGER       0.3
Info: PAIRLISTS PER CYCLE    2
Info: PAIRLISTS ENABLED
Info: MARGIN                 8
Info: HYDROGEN GROUP CUTOFF  2.5
Info: PATCH DIMENSION        21.5
Info: ENERGY OUTPUT STEPS    100000
Info: ENERGY EVALUATION STEPS    100000
Info: OUTPUT ENERGY PRECISION 4
Info: CROSSTERM ENERGY INCLUDED IN DIHEDRAL
Info: TIMING OUTPUT STEPS    1000000
Info: PRESSURE OUTPUT STEPS  100000
Info: LANGEVIN DYNAMICS ACTIVE
Info: LANGEVIN TEMPERATURE   30
Info: LANGEVIN USING BBK INTEGRATOR
Info: LANGEVIN DAMPING COEFFICIENT IS 1 INVERSE PS
Info: LANGEVIN DYNAMICS APPLIED TO HYDROGENS
Info: LANGEVIN PISTON PRESSURE CONTROL ACTIVE
Info:        TARGET PRESSURE IS 1.01325 BAR
Info:     OSCILLATION PERIOD IS 50 FS
Info:             DECAY TIME IS 25 FS
Info:     PISTON TEMPERATURE IS 300 K
Info:       PRESSURE CONTROL IS GROUP-BASED
Info:    INITIAL STRAIN RATE IS 0 0 0
Info:       CELL FLUCTUATION IS ISOTROPIC
Info: PARTICLE MESH EWALD (PME) ACTIVE
Info: PME TOLERANCE               1e-06
Info: PME EWALD COEFFICIENT       0.348832
Info: PME INTERPOLATION ORDER     4
Info: PME GRID DIMENSIONS         36 40 36
Info: PME MAXIMUM GRID SPACING    1
Info: FULL ELECTROSTATIC EVALUATION FREQUENCY      2
Info: USING VERLET I (r-RESPA) MTS SCHEME.
Info: C1 SPLITTING OF LONG RANGE ELECTROSTATICS
Info: PLACING ATOMS IN PATCHES BY HYDROGEN GROUPS
Info: RIGID BONDS TO HYDROGEN : ALL
Info:         ERROR TOLERANCE : 1e-08
Info:          MAX ITERATIONS : 100
Info: RIGID WATER USING SETTLE ALGORITHM
Info: RANDOM NUMBER SEED     1743237652
Info: USE HYDROGEN BONDS?    NO
Info: Using AMBER format force field!
Info: AMBER PARM FILE        mobley_7676709.prmtop
Info: COORDINATE PDB         mobley_7676709.pdb
Info: Exclusions will be read from PARM file!
Info: SCNB (VDW SCALING)     2
Info: USING ARITHMETIC MEAN TO COMBINE L-J SIGMA PARAMETERS
Info: BINARY COORDINATES     mobley_7676709_min.coor
Info: SUMMARY OF PARAMETERS:
Info: 10 BONDS
Info: 15 ANGLES
Info:   15 HARMONIC
Info:   0 COSINE-BASED
Info: 14 DIHEDRAL
Info: 0 IMPROPER
Info: 0 CROSSTERM
Info: 0 VDW
Info: 28 VDW_PAIRS
Info: 0 NBTHOLE_PAIRS
Info: STRUCTURE SUMMARY:
Info: 2982 ATOMS
Info: 2982 BONDS
Info: 51 ANGLES
Info: 82 DIHEDRALS
Info: 0 IMPROPERS
Info: 0 CROSSTERMS
Info: 3101 EXCLUSIONS
Info: 2971 RIGID BONDS
Info: 5975 DEGREES OF FREEDOM
Info: 996 HYDROGEN GROUPS
Info: 4 ATOMS IN LARGEST HYDROGEN GROUP
Info: 996 MIGRATION GROUPS
Info: 4 ATOMS IN LARGEST MIGRATION GROUP
Info: TOTAL MASS = 17898 amu
Info: TOTAL CHARGE = -0.00029996 e
Info: MASS DENSITY = 0.648311 g/cm^3
Info: ATOM DENSITY = 0.0650471 atoms/A^3
Info: ADDED 0 IMPLICIT EXCLUSIONS
Info: NONBONDED TABLE R-SQUARED SPACING: 0.0625
Info: NONBONDED TABLE SIZE: 705 POINTS
Info: REMOVING COM VELOCITY -0.163755 -0.049743 0.021431
TCL: Running for 100000 steps
ETITLE: TS BOND ANGLE DIHED IMPRP ELECT VDW BOUNDARY MISC KINETIC TOTAL TEMP POTENTIAL TOTAL3 TEMPAVG PRESSURE GPRESSURE VOLUME PRESSAVG GPRESSAVG
ENERGY: 0 0.6183 2.0125 2.5871 0.0000 -13775.9585 2450.4679 0.0000 0.0000 1777.6331 -9542.6395 299.4295 -11320.2726 -9542.2936 299.4295 610.3277 639.4706 45843.7207 610.3277 639.4706
ENERGY: 100000 1.9214 2.9979 2.8877 0.0000 -14257.5400 2392.9483 0.0000 0.0000 177.2491 -11679.5356 29.8563 -11856.7847 -11679.1038 30.9304 -747.4941 -699.0634 28893.7843 3.3261 3.3209
TCL: Running 100000 steps at 60 kelvin.
TCL: Setting parameter langevinTemp to 60
TCL: Running for 100000 steps
ETITLE: TS BOND ANGLE DIHED IMPRP ELECT VDW BOUNDARY MISC KINETIC TOTAL TEMP POTENTIAL TOTAL3 TEMPAVG PRESSURE GPRESSURE VOLUME PRESSAVG GPRESSAVG
ENERGY: 100000 1.9214 2.9979 2.8877 0.0000 -14257.5400 2392.9483 0.0000 0.0000 177.1607 -11679.6239 29.8415 -11856.7847 -11679.1424 29.8415 -733.6588 -699.1167 28893.7843 -733.6588 -699.1167
ENERGY: 200000 1.1372 3.3910 3.1767 0.0000 -14127.3463 2365.5790 0.0000 0.0000 362.9392 -11391.1231 61.1345 -11754.0624 -11389.7280 59.8896 -541.2441 -521.8762 28954.7651 4.3979 4.3704
TCL: Running 100000 steps at 90 kelvin.
TCL: Setting parameter langevinTemp to 90
TCL: Running for 100000 steps
ETITLE: TS BOND ANGLE DIHED IMPRP ELECT VDW BOUNDARY MISC KINETIC TOTAL TEMP POTENTIAL TOTAL3 TEMPAVG PRESSURE GPRESSURE VOLUME PRESSAVG GPRESSAVG
ENERGY: 200000 1.1372 3.3910 3.1767 0.0000 -14127.3463 2365.5790 0.0000 0.0000 362.7627 -11391.2997 61.1048 -11754.0624 -11390.5785 61.1048 -577.3932 -521.4515 28954.7651 -577.3932 -521.4515
ENERGY: 300000 2.0179 4.9864 3.1743 0.0000 -14114.8630 2439.6230 0.0000 0.0000 545.7870 -11119.2745 91.9339 -11665.0614 -11116.6486 89.8546 318.9873 358.3543 28930.0666 5.2153 5.4543
TCL: Running 100000 steps at 120 kelvin.
TCL: Setting parameter langevinTemp to 120
TCL: Running for 100000 steps
ETITLE: TS BOND ANGLE DIHED IMPRP ELECT VDW BOUNDARY MISC KINETIC TOTAL TEMP POTENTIAL TOTAL3 TEMPAVG PRESSURE GPRESSURE VOLUME PRESSAVG GPRESSAVG
ENERGY: 300000 2.0179 4.9864 3.1743 0.0000 -14114.8630 2439.6230 0.0000 0.0000 545.5295 -11119.5319 91.8905 -11665.0614 -11118.3849 91.8905 308.1246 359.8200 28930.0666 308.1246 359.8200
ENERGY: 400000 2.0793 5.3539 3.4949 0.0000 -13815.4386 2263.0364 0.0000 0.0000 694.5123 -10846.9618 116.9856 -11541.4741 -10844.9933 119.9415 -763.5397 -719.0218 29144.9267 3.7998 3.7335
TCL: Running 100000 steps at 150 kelvin.
TCL: Setting parameter langevinTemp to 150
TCL: Running for 100000 steps
ETITLE: TS BOND ANGLE DIHED IMPRP ELECT VDW BOUNDARY MISC KINETIC TOTAL TEMP POTENTIAL TOTAL3 TEMPAVG PRESSURE GPRESSURE VOLUME PRESSAVG GPRESSAVG
ENERGY: 400000 2.0793 5.3539 3.4949 0.0000 -13815.4386 2263.0364 0.0000 0.0000 694.1520 -10847.3222 116.9249 -11541.4741 -10845.8709 116.9249 -772.7941 -718.8177 29144.9267 -772.7941 -718.8177
ENERGY: 500000 5.0928 6.0975 3.8397 0.0000 -13571.0459 2200.8089 0.0000 0.0000 901.9587 -10453.2485 151.9285 -11355.2072 -10449.8648 150.2418 -982.5309 -937.5389 29716.0085 3.9002 3.8693
TCL: Running 100000 steps at 180 kelvin.
TCL: Setting parameter langevinTemp to 180
TCL: Running for 100000 steps
ETITLE: TS BOND ANGLE DIHED IMPRP ELECT VDW BOUNDARY MISC KINETIC TOTAL TEMP POTENTIAL TOTAL3 TEMPAVG PRESSURE GPRESSURE VOLUME PRESSAVG GPRESSAVG
ENERGY: 500000 5.0928 6.0975 3.8397 0.0000 -13571.0459 2200.8089 0.0000 0.0000 901.5326 -10453.6746 151.8567 -11355.2072 -10451.9247 151.8567 -1006.0908 -936.8028 29716.0085 -1006.0908 -936.8028
ENERGY: 600000 1.9544 6.7822 3.5624 0.0000 -13122.0887 2060.7784 0.0000 0.0000 1043.7317 -10005.2795 175.8091 -11049.0112 -10003.4019 180.4617 -477.8918 -474.0337 29148.9356 4.3670 4.3521
TCL: Running 100000 steps at 210 kelvin.
TCL: Setting parameter langevinTemp to 210
TCL: Running for 100000 steps
ETITLE: TS BOND ANGLE DIHED IMPRP ELECT VDW BOUNDARY MISC KINETIC TOTAL TEMP POTENTIAL TOTAL3 TEMPAVG PRESSURE GPRESSURE VOLUME PRESSAVG GPRESSAVG
ENERGY: 600000 1.9544 6.7822 3.5624 0.0000 -13122.0887 2060.7784 0.0000 0.0000 1043.2227 -10005.7886 175.7234 -11049.0112 -10003.1866 175.7234 -537.2724 -475.0512 29148.9356 -537.2724 -475.0512
ENERGY: 700000 3.1444 6.7304 3.8976 0.0000 -12501.5705 1880.4839 0.0000 0.0000 1216.6714 -9390.6429 204.9395 -10607.3142 -9386.1896 209.6496 -184.4559 -102.0444 28779.2072 4.1090 3.9755
TCL: Running 100000 steps at 240 kelvin.
TCL: Setting parameter langevinTemp to 240
TCL: Running for 100000 steps
ETITLE: TS BOND ANGLE DIHED IMPRP ELECT VDW BOUNDARY MISC KINETIC TOTAL TEMP POTENTIAL TOTAL3 TEMPAVG PRESSURE GPRESSURE VOLUME PRESSAVG GPRESSAVG
ENERGY: 700000 3.1444 6.7304 3.8976 0.0000 -12501.5705 1880.4839 0.0000 0.0000 1216.0250 -9391.2892 204.8307 -10607.3142 -9389.3038 204.8307 -171.5945 -101.2465 28779.2072 -171.5945 -101.2465
ENERGY: 800000 4.3225 12.6406 3.6811 0.0000 -11734.3440 1649.5264 0.0000 0.0000 1409.0390 -8655.1344 237.3425 -10064.1734 -8652.5511 240.1505 -416.2617 -284.3482 29483.8127 2.0318 1.9960
TCL: Running 100000 steps at 270 kelvin.
TCL: Setting parameter langevinTemp to 270
TCL: Running for 100000 steps
ETITLE: TS BOND ANGLE DIHED IMPRP ELECT VDW BOUNDARY MISC KINETIC TOTAL TEMP POTENTIAL TOTAL3 TEMPAVG PRESSURE GPRESSURE VOLUME PRESSAVG GPRESSAVG
ENERGY: 800000 4.3225 12.6406 3.6811 0.0000 -11734.3440 1649.5264 0.0000 0.0000 1408.3240 -8655.8495 237.2220 -10064.1734 -8653.1441 237.2220 -379.6588 -284.1196 29483.8127 -379.6588 -284.1196
ENERGY: 900000 2.7787 13.2366 3.6324 0.0000 -11266.9427 1523.5099 0.0000 0.0000 1584.0447 -8139.7403 266.8209 -9723.7851 -8136.9503 269.7871 -523.3992 -432.8758 30289.8688 3.9820 3.9647
TCL: Running 1000000 steps at 300 kelvin.
TCL: Setting parameter langevinTemp to 300
TCL: Running for 1000000 steps
ETITLE: TS BOND ANGLE DIHED IMPRP ELECT VDW BOUNDARY MISC KINETIC TOTAL TEMP POTENTIAL TOTAL3 TEMPAVG PRESSURE GPRESSURE VOLUME PRESSAVG GPRESSAVG
ENERGY: 900000 2.7787 13.2366 3.6324 0.0000 -11266.9427 1523.5099 0.0000 0.0000 1583.2511 -8140.5340 266.6873 -9723.7851 -8138.3516 266.6873 -501.1622 -433.4457 30289.8688 -501.1622 -433.4457
ENERGY: 1100000 4.4108 9.7301 3.8084 0.0000 -10794.6249 1437.5834 0.0000 0.0000 1751.3931 -7587.6991 295.0096 -9339.0921 -7582.9796 300.3727 -204.0487 -116.4130 30451.6676 3.3231 3.1914
ENERGY: 1300000 6.8748 15.2634 6.0006 0.0000 -10822.0367 1494.7417 0.0000 0.0000 1776.2268 -7522.9295 299.1926 -9299.1563 -7521.1258 300.1263 18.0162 108.1888 31026.2552 3.3591 3.5348
ENERGY: 1500000 8.4430 13.0460 4.8021 0.0000 -10806.6979 1469.3069 0.0000 0.0000 1789.1610 -7521.9388 301.3713 -9311.0998 -7521.4584 300.9847 77.0975 163.0156 30452.9498 3.0016 2.8664
ENERGY: 1700000 5.3294 7.8516 3.5235 0.0000 -10671.8036 1430.4786 0.0000 0.0000 1816.5725 -7408.0480 305.9886 -9224.6205 -7406.0244 300.5554 -169.9405 -178.4405 31327.3182 2.3405 2.4638
ENERGY: 1900000 5.6790 12.1345 5.9767 0.0000 -10877.3641 1539.4035 0.0000 0.0000 1805.6303 -7508.5401 304.1454 -9314.1704 -7505.3145 300.5956 742.9724 809.4580 30816.2138 3.0530 2.9568
TCL: Exiting due to exit command.
