Info: SIMULATION PARAMETERS:
Info: TIMESTEP               2
Info: NUMBER OF STEPS        0
Info: STEPS PER CYCLE        10
Info: PERIODIC CELL BASIS 1  34.986 0 0
Info: PERIODIC CELL BASIS 2  0 34.696 0
Info: PERIODIC CELL BASIS 3  0 0 36.199
Info: PERIODIC CELL CENTER   0 0 0
Info: WRAPPING WATERS AROUND PERIODIC BOUNDARIES ON OUTPUT.
Info: WRAPPING ALL CLUSTERS AROUND PERIODIC BOUNDARIES ON OUTPUT.
Info: FIRST LDB TIMESTEP     50
Info: LAST LDB TIMESTEP     -1
Info: HOM BACKGROUND SCALING 1
Info: PME BACKGROUND SCALING 1
Info: MIN ATOMS PER PATCH    40
Info: EMPTY PATCH LOAD       40 ATOMS
Info: INITIAL TEMPERATURE    300
Info: CENTER OF MASS MOVING INITIALLY? NO
Info: DIELECTRIC             1
Info: EXCLUDE                SCALED ONE-FOUR
Info: 1-4 ELECTROSTATICS SCALED BY 0.833333
Info: MODIFIED 1-4 VDW PARAMETERS WILL BE USED
Info: DCD FILENAME           mobley_1893815_equil.dcd
Info: DCD FREQUENCY          100000
Info: DCD FIRST STEP         100000
Info: DCD FILE WILL CONTAIN UNIT CELL DATA
Info: XST FILENAME           mobley_1893815_equil.xst
Info: XST FREQUENCY          100000
Info: NO VELOCITY DCD OUTPUT
Info: NO FORCE DCD OUTPUT
Info: OUTPUT FILENAME        mobley_1893815_equil
Info: BINARY OUTPUT FILES WILL BE USED
Info: RESTART FILENAME       mobley_1893815_equil.restart
Info: RESTART FREQUENCY      100000
Info: BINARY RESTART FILES WILL BE USED
Info: CUTOFF                 9
Info: PAIRLIST DISTANCE      11
Info: PAIRLIST SHRINK RATE   0.01
Info: PAIRLIST GROW RATE     0.01
Info: PAIRLIST TRIGGER       0.3
Info: PAIRLISTS PER CYCLE    2
Info: PAIRLISTS ENABLED
Info: MARGIN                 8
Info: HYDROGEN GROUP CUTOFF  2.5
Info: PATCH DIMENSION        21.5
Info: ENERGY OUTPUT STEPS    100000
Info: ENERGY EVALUATION STEPS    100000
Info: OUTPUT ENERGY PRECISION 4
Info: CROSSTERM ENERGY INCLUDED IN DIHEDRAL
Info: TIMING OUTPUT STEPS    1000000
Info: PRESSURE OUTPUT STEPS  100000
Info: LANGEVIN DYNAMICS ACTIVE
Info: LANGEVIN TEMPERATURE   30
Info: LANGEVIN USING BBK INTEGRATOR
Info: LANGEVIN DAMPING COEFFICIENT IS 1 INVERSE PS
Info: LANGEVIN DYNAMICS APPLIED TO HYDROGENS
Info: LANGEVIN PISTON PRESSURE CONTROL ACTIVE
Info:        TARGET PRESSURE IS 1.01325 BAR
Info:     OSCILLATION PERIOD IS 50 FS
Info:             DECAY TIME IS 25 FS
Info:     PISTON TEMPERATURE IS 300 K
Info:       PRESSURE CONTROL IS GROUP-BASED
Info:    INITIAL STRAIN RATE IS 0 0 0
Info:       CELL FLUCTUATION IS ISOTROPIC
Info: PARTICLE MESH EWALD (PME) ACTIVE
Info: PME TOLERANCE               1e-06
Info: PME EWALD COEFFICIENT       0.348832
Info: PME INTERPOLATION ORDER     4
Info: PME GRID DIMENSIONS         36 36 40
Info: PME MAXIMUM GRID SPACING    1
Info: FULL ELECTROSTATIC EVALUATION FREQUENCY      2
Info: USING VERLET I (r-RESPA) MTS SCHEME.
Info: C1 SPLITTING OF LONG RANGE ELECTROSTATICS
Info: PLACING ATOMS IN PATCHES BY HYDROGEN GROUPS
Info: RIGID BONDS TO HYDROGEN : ALL
Info:         ERROR TOLERANCE : 1e-08
Info:          MAX ITERATIONS : 100
Info: RIGID WATER USING SETTLE ALGORITHM
Info: RANDOM NUMBER SEED     1743157186
Info: USE HYDROGEN BONDS?    NO
Info: Using AMBER format force field!
Info: AMBER PARM FILE        mobley_1893815.prmtop
Info: COORDINATE PDB         mobley_1893815.pdb
Info: Exclusions will be read from PARM file!
Info: SCNB (VDW SCALING)     2
Info: USING ARITHMETIC MEAN TO COMBINE L-J SIGMA PARAMETERS
Info: BINARY COORDINATES     mobley_1893815_min.coor
Info: SUMMARY OF PARAMETERS:
Info: 5 BONDS
Info: 5 ANGLES
Info:   5 HARMONIC
Info:   0 COSINE-BASED
Info: 3 DIHEDRAL
Info: 0 IMPROPER
Info: 0 CROSSTERM
Info: 0 VDW
Info: 15 VDW_PAIRS
Info: 0 NBTHOLE_PAIRS
Info: STRUCTURE SUMMARY:
Info: 2951 ATOMS
Info: 2950 BONDS
Info: 12 ANGLES
Info: 18 DIHEDRALS
Info: 0 IMPROPERS
Info: 0 CROSSTERMS
Info: 2971 EXCLUSIONS
Info: 2945 RIGID BONDS
Info: 5908 DEGREES OF FREEDOM
Info: 987 HYDROGEN GROUPS
Info: 3 ATOMS IN LARGEST HYDROGEN GROUP
Info: 987 MIGRATION GROUPS
Info: 3 ATOMS IN LARGEST MIGRATION GROUP
Info: TOTAL MASS = 17841.5 amu
Info: TOTAL CHARGE = -0.00010001 e
Info: MASS DENSITY = 0.67425 g/cm^3
Info: ATOM DENSITY = 0.0671582 atoms/A^3
Info: ADDED 0 IMPLICIT EXCLUSIONS
Info: NONBONDED TABLE R-SQUARED SPACING: 0.0625
Info: NONBONDED TABLE SIZE: 705 POINTS
Info: REMOVING COM VELOCITY 0.155672 0.124129 -0.146335
TCL: Running for 100000 steps
ETITLE: TS BOND ANGLE DIHED IMPRP ELECT VDW BOUNDARY MISC KINETIC TOTAL TEMP POTENTIAL TOTAL3 TEMPAVG PRESSURE GPRESSURE VOLUME PRESSAVG GPRESSAVG
ENERGY: 0 0.0214 0.2828 2.8632 0.0000 -13639.0585 2415.9953 0.0000 0.0000 1768.9874 -9450.9084 301.3524 -11219.8958 -9450.5268 301.3524 465.7959 505.4252 43941.0342 465.7959 505.4252
ENERGY: 100000 0.2149 0.6164 2.8517 0.0000 -14186.7226 2431.6197 0.0000 0.0000 176.8594 -11574.5604 30.1285 -11751.4199 -11574.1250 30.8443 -93.5272 -65.1086 28364.9473 4.2352 4.1681
TCL: Running 100000 steps at 60 kelvin.
TCL: Setting parameter langevinTemp to 60
TCL: Running for 100000 steps
ETITLE: TS BOND ANGLE DIHED IMPRP ELECT VDW BOUNDARY MISC KINETIC TOTAL TEMP POTENTIAL TOTAL3 TEMPAVG PRESSURE GPRESSURE VOLUME PRESSAVG GPRESSAVG
ENERGY: 100000 0.2149 0.6164 2.8517 0.0000 -14186.7226 2431.6197 0.0000 0.0000 176.7695 -11574.6504 30.1132 -11751.4199 -11574.2801 30.1132 -115.1500 -65.4113 28364.9473 -115.1500 -65.4113
ENERGY: 200000 0.4553 1.0439 2.8854 0.0000 -14096.4232 2388.7158 0.0000 0.0000 347.8842 -11355.4387 59.2631 -11703.3229 -11354.3343 59.8916 -256.2539 -230.1290 28544.1599 3.2885 3.3989
TCL: Running 100000 steps at 90 kelvin.
TCL: Setting parameter langevinTemp to 90
TCL: Running for 100000 steps
ETITLE: TS BOND ANGLE DIHED IMPRP ELECT VDW BOUNDARY MISC KINETIC TOTAL TEMP POTENTIAL TOTAL3 TEMPAVG PRESSURE GPRESSURE VOLUME PRESSAVG GPRESSAVG
ENERGY: 200000 0.4553 1.0439 2.8854 0.0000 -14096.4232 2388.7158 0.0000 0.0000 347.7052 -11355.6177 59.2326 -11703.3229 -11354.8644 59.2326 -274.4283 -229.5980 28544.1599 -274.4283 -229.5980
ENERGY: 300000 0.1289 1.2783 2.8924 0.0000 -13930.7200 2338.3801 0.0000 0.0000 528.5032 -11059.5370 90.0321 -11588.0403 -11057.9967 90.0579 -256.1510 -193.1585 28539.9234 3.5947 3.5585
TCL: Running 100000 steps at 120 kelvin.
TCL: Setting parameter langevinTemp to 120
TCL: Running for 100000 steps
ETITLE: TS BOND ANGLE DIHED IMPRP ELECT VDW BOUNDARY MISC KINETIC TOTAL TEMP POTENTIAL TOTAL3 TEMPAVG PRESSURE GPRESSURE VOLUME PRESSAVG GPRESSAVG
ENERGY: 300000 0.1289 1.2783 2.8924 0.0000 -13930.7200 2338.3801 0.0000 0.0000 528.2410 -11059.7993 89.9875 -11588.0403 -11058.8360 89.9875 -243.5680 -192.7053 28539.9234 -243.5680 -192.7053
ENERGY: 400000 1.2111 0.9513 2.8869 0.0000 -13825.5933 2342.5625 0.0000 0.0000 708.5081 -10769.4735 120.6965 -11477.9815 -10767.7415 119.7361 57.2496 149.7072 28689.4703 3.2780 3.2191
TCL: Running 100000 steps at 150 kelvin.
TCL: Setting parameter langevinTemp to 150
TCL: Running for 100000 steps
ETITLE: TS BOND ANGLE DIHED IMPRP ELECT VDW BOUNDARY MISC KINETIC TOTAL TEMP POTENTIAL TOTAL3 TEMPAVG PRESSURE GPRESSURE VOLUME PRESSAVG GPRESSAVG
ENERGY: 400000 1.2111 0.9513 2.8869 0.0000 -13825.5933 2342.5625 0.0000 0.0000 708.1673 -10769.8142 120.6385 -11477.9815 -10768.5731 120.6385 81.4180 150.0234 28689.4703 81.4180 150.0234
ENERGY: 500000 0.8782 1.7277 2.8958 0.0000 -13561.2792 2257.4034 0.0000 0.0000 919.0158 -10379.3582 156.5571 -11298.3740 -10377.3158 150.0804 15.2928 52.5412 29192.8778 2.1564 2.2669
TCL: Running 100000 steps at 180 kelvin.
TCL: Setting parameter langevinTemp to 180
TCL: Running for 100000 steps
ETITLE: TS BOND ANGLE DIHED IMPRP ELECT VDW BOUNDARY MISC KINETIC TOTAL TEMP POTENTIAL TOTAL3 TEMPAVG PRESSURE GPRESSURE VOLUME PRESSAVG GPRESSAVG
ENERGY: 500000 0.8782 1.7277 2.8958 0.0000 -13561.2792 2257.4034 0.0000 0.0000 918.5741 -10379.7999 156.4819 -11298.3740 -10378.0427 156.4819 0.3411 53.0471 29192.8778 0.3411 53.0471
ENERGY: 600000 0.8207 1.4727 2.8634 0.0000 -13120.8954 2138.4215 0.0000 0.0000 1051.2563 -9926.0608 179.0847 -10977.3172 -9923.1707 180.3156 -91.2181 -18.5963 29279.0417 4.2244 4.2443
TCL: Running 100000 steps at 210 kelvin.
TCL: Setting parameter langevinTemp to 210
TCL: Running for 100000 steps
ETITLE: TS BOND ANGLE DIHED IMPRP ELECT VDW BOUNDARY MISC KINETIC TOTAL TEMP POTENTIAL TOTAL3 TEMPAVG PRESSURE GPRESSURE VOLUME PRESSAVG GPRESSAVG
ENERGY: 600000 0.8207 1.4727 2.8634 0.0000 -13120.8954 2138.4215 0.0000 0.0000 1050.7396 -9926.5776 178.9967 -10977.3172 -9924.6843 178.9967 -94.4475 -18.0306 29279.0417 -94.4475 -18.0306
ENERGY: 700000 0.2707 2.8456 2.8801 0.0000 -12396.8914 1898.6522 0.0000 0.0000 1267.4194 -9224.8234 215.9088 -10492.2429 -9219.7040 210.1405 234.6661 290.5584 28845.3169 3.2943 3.3412
TCL: Running 100000 steps at 240 kelvin.
TCL: Setting parameter langevinTemp to 240
TCL: Running for 100000 steps
ETITLE: TS BOND ANGLE DIHED IMPRP ELECT VDW BOUNDARY MISC KINETIC TOTAL TEMP POTENTIAL TOTAL3 TEMPAVG PRESSURE GPRESSURE VOLUME PRESSAVG GPRESSAVG
ENERGY: 700000 0.2707 2.8456 2.8801 0.0000 -12396.8914 1898.6522 0.0000 0.0000 1266.8132 -9225.4297 215.8055 -10492.2429 -9224.1626 215.8055 212.3896 293.4380 28845.3169 212.3896 293.4380
ENERGY: 800000 0.7475 1.8844 2.8585 0.0000 -11894.0221 1796.6211 0.0000 0.0000 1384.7771 -8707.1335 235.9010 -10091.9106 -8703.4653 239.9790 587.3801 651.4781 29201.7776 2.8638 3.0411
TCL: Running 100000 steps at 270 kelvin.
TCL: Setting parameter langevinTemp to 270
TCL: Running for 100000 steps
ETITLE: TS BOND ANGLE DIHED IMPRP ELECT VDW BOUNDARY MISC KINETIC TOTAL TEMP POTENTIAL TOTAL3 TEMPAVG PRESSURE GPRESSURE VOLUME PRESSAVG GPRESSAVG
ENERGY: 800000 0.7475 1.8844 2.8585 0.0000 -11894.0221 1796.6211 0.0000 0.0000 1384.0687 -8707.8418 235.7803 -10091.9106 -8706.3107 235.7803 567.9361 653.1224 29201.7776 567.9361 653.1224
ENERGY: 900000 1.4803 0.7870 2.8466 0.0000 -11241.7274 1521.0563 0.0000 0.0000 1585.9788 -8129.5785 270.1763 -9715.5572 -8124.1208 269.8397 -430.7377 -358.4720 29487.3011 2.2926 2.4464
TCL: Running 1000000 steps at 300 kelvin.
TCL: Setting parameter langevinTemp to 300
TCL: Running for 1000000 steps
ETITLE: TS BOND ANGLE DIHED IMPRP ELECT VDW BOUNDARY MISC KINETIC TOTAL TEMP POTENTIAL TOTAL3 TEMPAVG PRESSURE GPRESSURE VOLUME PRESSAVG GPRESSAVG
ENERGY: 900000 1.4803 0.7870 2.8466 0.0000 -11241.7274 1521.0563 0.0000 0.0000 1585.1804 -8130.3768 270.0403 -9715.5572 -8127.9347 270.0403 -433.9915 -356.2485 29487.3011 -433.9915 -356.2485
ENERGY: 1100000 1.3183 6.1504 2.8913 0.0000 -10646.7598 1416.3828 0.0000 0.0000 1726.3772 -7493.6398 294.0936 -9220.0170 -7488.0094 299.9346 -153.5339 -99.1846 30662.1582 3.2244 3.2795
ENERGY: 1300000 2.3978 3.7309 2.9533 0.0000 -10753.4408 1423.0017 0.0000 0.0000 1762.0029 -7559.3542 300.1625 -9321.3571 -7555.6944 299.9904 -141.7707 -136.2158 30102.2518 4.2955 4.3961
ENERGY: 1500000 2.4317 1.6539 2.8421 0.0000 -10621.3392 1378.5706 0.0000 0.0000 1787.9224 -7447.9184 304.5780 -9235.8408 -7446.1404 300.3776 -364.7899 -275.5098 30559.5868 2.9952 3.1609
ENERGY: 1700000 1.5801 4.9751 2.7862 0.0000 -10845.3798 1529.8310 0.0000 0.0000 1763.3226 -7542.8848 300.3874 -9306.2074 -7536.6728 300.1798 522.6145 625.7276 30423.1304 3.3360 3.2597
ENERGY: 1900000 0.2755 6.3982 2.8197 0.0000 -10617.7841 1386.8432 0.0000 0.0000 1693.9425 -7527.5051 288.5683 -9221.4476 -7523.4078 299.8461 -232.2296 -131.0472 30330.2415 2.8378 2.7757
TCL: Exiting due to exit command.
