Info: SIMULATION PARAMETERS:
Info: TIMESTEP               2
Info: NUMBER OF STEPS        0
Info: STEPS PER CYCLE        10
Info: PERIODIC CELL BASIS 1  31.2429 0 0
Info: PERIODIC CELL BASIS 2  0 30.5946 0
Info: PERIODIC CELL BASIS 3  0 0 32.3261
Info: PERIODIC CELL CENTER   0 0 0
Info: WRAPPING WATERS AROUND PERIODIC BOUNDARIES ON OUTPUT.
Info: WRAPPING ALL CLUSTERS AROUND PERIODIC BOUNDARIES ON OUTPUT.
Info: FIRST LDB TIMESTEP     50
Info: LAST LDB TIMESTEP     -1
Info: HOM BACKGROUND SCALING 1
Info: PME BACKGROUND SCALING 1
Info: MIN ATOMS PER PATCH    40
Info: EMPTY PATCH LOAD       40 ATOMS
Info: VELOCITY FILE          mobley_9246351_equil.vel
Info: CENTER OF MASS MOVING INITIALLY? NO
Info: DIELECTRIC             1
Info: EXCLUDE                SCALED ONE-FOUR
Info: 1-4 ELECTROSTATICS SCALED BY 0.833333
Info: MODIFIED 1-4 VDW PARAMETERS WILL BE USED
Info: DCD FILENAME           mobley_9246351_prod.dcd
Info: DCD FREQUENCY          100000
Info: DCD FIRST STEP         100000
Info: DCD FILE WILL CONTAIN UNIT CELL DATA
Info: XST FILENAME           mobley_9246351_prod.xst
Info: XST FREQUENCY          100000
Info: NO VELOCITY DCD OUTPUT
Info: NO FORCE DCD OUTPUT
Info: OUTPUT FILENAME        mobley_9246351_prod
Info: BINARY OUTPUT FILES WILL BE USED
Info: RESTART FILENAME       mobley_9246351_prod.restart
Info: RESTART FREQUENCY      100000
Info: BINARY RESTART FILES WILL BE USED
Info: CUTOFF                 9
Info: PAIRLIST DISTANCE      11
Info: PAIRLIST SHRINK RATE   0.01
Info: PAIRLIST GROW RATE     0.01
Info: PAIRLIST TRIGGER       0.3
Info: PAIRLISTS PER CYCLE    2
Info: PAIRLISTS ENABLED
Info: MARGIN                 2
Info: HYDROGEN GROUP CUTOFF  2.5
Info: PATCH DIMENSION        15.5
Info: ENERGY OUTPUT STEPS    100000
Info: ENERGY EVALUATION STEPS    100000
Info: OUTPUT ENERGY PRECISION 4
Info: CROSSTERM ENERGY INCLUDED IN DIHEDRAL
Info: TIMING OUTPUT STEPS    1000000
Info: PRESSURE OUTPUT STEPS  100000
Info: ALCHEMICAL FEP ON
Info: FEP CURRENT LAMBDA VALUE     0
Info: FEP COMPARISON LAMBDA VALUE  0.05
Info: FEP INTRA-ALCHEMICAL NON-BONDED INTERACTIONS WILL BE RETAINED
Info: FEP INTRA-ALCHEMICAL BONDED INTERACTIONS WILL BE RETAINED
Info: FEP VDW SHIFTING COEFFICIENT 5
Info: FEP ELEC. ACTIVE FOR ANNIHILATED PARTICLES BETWEEN LAMBDA = 0 AND LAMBDA = 0.5
Info: FEP ELEC. ACTIVE FOR EXNIHILATED PARTICLES BETWEEN LAMBDA = 0.5 AND LAMBDA = 1
Info: FEP VDW ACTIVE FOR ANNIHILATED PARTICLES BETWEEN LAMBDA = 0 AND LAMBDA = 1
Info: FEP VDW ACTIVE FOR EXNIHILATED PARTICLES BETWEEN LAMBDA = 0 AND LAMBDA = 1
Info: FEP BOND ACTIVE FOR ANNIHILATED PARTICLES BETWEEN LAMBDA = 1 AND LAMBDA = 1
Info: FEP BOND ACTIVE FOR EXNIHILATED PARTICLES BETWEEN LAMBDA = 0 AND LAMBDA = 0
Info: LANGEVIN DYNAMICS ACTIVE
Info: LANGEVIN TEMPERATURE   300
Info: LANGEVIN USING BBK INTEGRATOR
Info: LANGEVIN DAMPING COEFFICIENT IS 1 INVERSE PS
Info: LANGEVIN DYNAMICS APPLIED TO HYDROGENS
Info: LANGEVIN PISTON PRESSURE CONTROL ACTIVE
Info:        TARGET PRESSURE IS 1.01325 BAR
Info:     OSCILLATION PERIOD IS 50 FS
Info:             DECAY TIME IS 25 FS
Info:     PISTON TEMPERATURE IS 300 K
Info:       PRESSURE CONTROL IS GROUP-BASED
Info:    INITIAL STRAIN RATE IS -9.28285e-05 -9.28285e-05 -9.28285e-05
Info:       CELL FLUCTUATION IS ISOTROPIC
Info: PARTICLE MESH EWALD (PME) ACTIVE
Info: PME TOLERANCE               1e-06
Info: PME EWALD COEFFICIENT       0.348832
Info: PME INTERPOLATION ORDER     4
Info: PME GRID DIMENSIONS         32 32 36
Info: PME MAXIMUM GRID SPACING    1
Info: PME CALCULATION WILL BE PERFORMED ON GPU
Info: FULL ELECTROSTATIC EVALUATION FREQUENCY      2
Info: USING VERLET I (r-RESPA) MTS SCHEME.
Info: C1 SPLITTING OF LONG RANGE ELECTROSTATICS
Info: PLACING ATOMS IN PATCHES BY HYDROGEN GROUPS
Info: RIGID BONDS TO HYDROGEN : ALL
Info:         ERROR TOLERANCE : 1e-08
Info:          MAX ITERATIONS : 100
Info: RIGID WATER USING SETTLE ALGORITHM
Info: RANDOM NUMBER SEED     1743464725
Info: USE HYDROGEN BONDS?    NO
Info: Using AMBER format force field!
Info: AMBER PARM FILE        mobley_9246351.prmtop
Info: COORDINATE PDB         mobley_9246351.pdb
Info: Exclusions will be read from PARM file!
Info: SCNB (VDW SCALING)     2
Info: USING ARITHMETIC MEAN TO COMBINE L-J SIGMA PARAMETERS
Info: BINARY COORDINATES     mobley_9246351_equil.coor
Info: SUMMARY OF PARAMETERS:
Info: 4 BONDS
Info: 3 ANGLES
Info:   3 HARMONIC
Info:   0 COSINE-BASED
Info: 0 DIHEDRAL
Info: 0 IMPROPER
Info: 0 CROSSTERM
Info: 0 VDW
Info: 15 VDW_PAIRS
Info: 0 NBTHOLE_PAIRS
Info: To read alchdata from file: mobley_9246351.pdb
Info: To read alchflag data from column: 5
Info: STRUCTURE SUMMARY:
Info: 2906 ATOMS
Info: 2905 BONDS
Info: 6 ANGLES
Info: 0 DIHEDRALS
Info: 0 IMPROPERS
Info: 0 CROSSTERMS
Info: 2911 EXCLUSIONS
Info: 2903 RIGID BONDS
Info: ALCH: 0 ATOMS TO DISAPPEAR IN FINAL STATE
Info: ALCH: 5 ATOMS TO APPEAR IN FINAL STATE
Info: 5815 DEGREES OF FREEDOM
Info: 970 HYDROGEN GROUPS
Info: 3 ATOMS IN LARGEST HYDROGEN GROUP
Info: 970 MIGRATION GROUPS
Info: 3 ATOMS IN LARGEST MIGRATION GROUP
Info: TOTAL MASS = 17595.3 amu
Info: TOTAL CHARGE = -0.000100001 e
Info: MASS DENSITY = 0.945597 g/cm^3
Info: ATOM DENSITY = 0.0940472 atoms/A^3
Info: ADDED 0 IMPLICIT EXCLUSIONS
Info: NONBONDED TABLE R-SQUARED SPACING: 0.0625
Info: NONBONDED TABLE SIZE: 705 POINTS
Info: REMOVING COM VELOCITY 0.14592 -0.0130922 -0.175771
Info: Use 3D box decompostion in PME FFT.
Info: Updated CUDA force table with 4096 elements.
Info: Updated CUDA LJ table with 5 x 5 elements.
Info: Found 8 unique exclusion lists needing 8 bytes
TCL: Running for 1500000 steps
ETITLE: TS BOND ANGLE DIHED IMPRP ELECT VDW BOUNDARY MISC KINETIC TOTAL TEMP POTENTIAL TOTALAVG TEMPAVG PRESSURE GPRESSURE VOLUME PRESSAVG GPRESSAVG
ENERGY: 0 2.1221 0.5913 0.0000 0.0000 -10575.3827 1429.1640 0.0000 0.0000 1700.5765 -7442.9288 294.3316 -9143.5053 -7442.9288 294.3316 -507.7530 -417.8926 30899.3706 -507.7530 -417.8926
ENERGY: 300000 0.7264 2.1247 0.0000 0.0000 -10535.2486 1454.5035 0.0000 0.0000 1761.9202 -7315.9739 304.9488 -9077.8941 -7398.9101 297.2340 402.0035 438.8384 29603.5156 -27.8136 32.1961
ENERGY: 600000 1.0440 1.1121 0.0000 0.0000 -10570.1511 1422.9112 0.0000 0.0000 1752.8425 -7392.2413 303.3776 -9145.0838 -7409.5378 298.2979 -236.0585 -145.4873 29960.1781 -129.2510 -50.9197
ENERGY: 900000 0.4010 0.6572 0.0000 0.0000 -10547.5657 1410.2330 0.0000 0.0000 1725.6623 -7410.6122 298.6733 -9136.2745 -7412.5894 298.3617 60.0532 100.3513 29768.4337 -83.9533 -9.7840
ENERGY: 1200000 0.6470 1.5846 0.0000 0.0000 -10478.3367 1369.3612 0.0000 0.0000 1783.2665 -7323.4774 308.6433 -9106.7439 -7407.6539 299.4310 -192.3462 -121.4513 29843.4290 -147.2929 -76.6360
ENERGY: 1500000 1.4097 1.9591 0.0000 0.0000 -10484.9414 1374.8526 0.0000 0.0000 1754.9243 -7351.7958 303.7379 -9106.7200 -7397.4460 299.8756 -49.8710 19.7288 29719.6462 -169.2550 -96.3242
TCL: Running FEP window   2: Lambda1 0.05   Lambda2 0.1    [dLambda 0.05  ]
TCL: Setting parameter firsttimestep to 0
TCL: Setting parameter alchLambda to 0.05
Info: NONBONDED TABLE R-SQUARED SPACING: 0.0625
Info: NONBONDED TABLE SIZE: 705 POINTS
TCL: Setting parameter alchLambda2 to 0.1
Info: NONBONDED TABLE R-SQUARED SPACING: 0.0625
Info: NONBONDED TABLE SIZE: 705 POINTS
TCL: Running for 1500000 steps
ETITLE: TS BOND ANGLE DIHED IMPRP ELECT VDW BOUNDARY MISC KINETIC TOTAL TEMP POTENTIAL TOTALAVG TEMPAVG PRESSURE GPRESSURE VOLUME PRESSAVG GPRESSAVG
ENERGY: 0 1.4097 1.9591 0.0000 0.0000 -10484.9425 1375.0986 0.0000 0.0000 1754.0830 -7352.3921 303.5923 -9106.4751 -7352.3921 303.5923 -64.7534 21.1385 29719.6462 -64.7534 21.1385
ENERGY: 300000 0.3917 2.2617 0.0000 0.0000 -10496.4212 1418.8719 0.0000 0.0000 1732.8912 -7342.0046 299.9245 -9074.8958 -7360.7438 300.7402 -33.7304 62.9913 30165.2055 -15.8554 43.3542
ENERGY: 600000 0.7567 1.3656 0.0000 0.0000 -10541.4881 1392.9011 0.0000 0.0000 1777.1163 -7369.3484 307.5789 -9146.4647 -7385.6275 301.9109 -240.6391 -211.0356 30109.5906 -114.4853 -56.7030
ENERGY: 900000 0.2533 4.1692 0.0000 0.0000 -10529.2503 1371.1062 0.0000 0.0000 1649.5017 -7504.2199 285.4917 -9153.7216 -7388.9212 301.1067 -371.6117 -375.7825 29763.6934 -208.6576 -152.8708
ENERGY: 1200000 0.6285 1.4702 0.0000 0.0000 -10520.2392 1371.3374 0.0000 0.0000 1766.8103 -7379.9927 305.7951 -9146.8030 -7410.3924 300.6950 -626.9370 -544.1532 30017.7744 -174.7080 -120.7978
ENERGY: 1500000 0.5127 1.7512 0.0000 0.0000 -10699.3195 1486.9700 0.0000 0.0000 1794.3079 -7415.7777 310.5544 -9210.0856 -7402.9985 302.1802 108.1803 246.1495 30106.2273 -96.4940 -32.4065
TCL: Running FEP window   3: Lambda1 0.1    Lambda2 0.15000000000000002 [dLambda 0.05000000000000002]
TCL: Setting parameter firsttimestep to 0
TCL: Setting parameter alchLambda to 0.1
Info: NONBONDED TABLE R-SQUARED SPACING: 0.0625
Info: NONBONDED TABLE SIZE: 705 POINTS
TCL: Setting parameter alchLambda2 to 0.15000000000000002
Info: NONBONDED TABLE R-SQUARED SPACING: 0.0625
Info: NONBONDED TABLE SIZE: 705 POINTS
TCL: Running for 1500000 steps
ETITLE: TS BOND ANGLE DIHED IMPRP ELECT VDW BOUNDARY MISC KINETIC TOTAL TEMP POTENTIAL TOTALAVG TEMPAVG PRESSURE GPRESSURE VOLUME PRESSAVG GPRESSAVG
ENERGY: 0 0.5128 1.7512 0.0000 0.0000 -10699.3208 1486.7180 0.0000 0.0000 1793.4027 -7416.9362 310.3977 -9210.3388 -7416.9362 310.3977 161.0707 248.4933 30106.2273 161.0707 248.4933
ENERGY: 300000 0.1514 0.8896 0.0000 0.0000 -10654.8654 1438.4923 0.0000 0.0000 1706.2100 -7509.1221 295.3066 -9215.3321 -7433.3345 299.6765 -175.6082 -115.9979 29868.2765 66.8231 139.6712
ENERGY: 600000 0.0400 1.5387 0.0000 0.0000 -10622.3618 1431.1276 0.0000 0.0000 1760.8508 -7428.8046 304.7637 -9189.6555 -7416.4925 300.6539 122.9858 269.6865 29149.3650 86.1870 167.3879
ENERGY: 900000 1.4781 2.7360 0.0000 0.0000 -10464.6428 1394.5756 0.0000 0.0000 1764.9860 -7300.8671 305.4794 -9065.8532 -7416.9704 301.2572 -148.9016 -106.3750 30482.7667 100.1690 186.3890
ENERGY: 1200000 0.6192 2.4065 0.0000 0.0000 -10446.8318 1331.4747 0.0000 0.0000 1705.9770 -7406.3544 295.2663 -9112.3314 -7418.0800 300.5896 -860.6687 -792.8534 30136.3239 66.6872 145.2746
ENERGY: 1500000 0.5403 2.2472 0.0000 0.0000 -10536.7470 1426.6338 0.0000 0.0000 1742.1177 -7365.2079 301.5214 -9107.3257 -7406.5879 300.4265 81.2935 171.2800 29859.3820 64.5437 141.0770
TCL: Running FEP window   4: Lambda1 0.15000000000000002 Lambda2 0.2    [dLambda 0.04999999999999999]
TCL: Setting parameter firsttimestep to 0
TCL: Setting parameter alchLambda to 0.15000000000000002
Info: NONBONDED TABLE R-SQUARED SPACING: 0.0625
Info: NONBONDED TABLE SIZE: 705 POINTS
TCL: Setting parameter alchLambda2 to 0.2
Info: NONBONDED TABLE R-SQUARED SPACING: 0.0625
Info: NONBONDED TABLE SIZE: 705 POINTS
TCL: Running for 1500000 steps
ETITLE: TS BOND ANGLE DIHED IMPRP ELECT VDW BOUNDARY MISC KINETIC TOTAL TEMP POTENTIAL TOTALAVG TEMPAVG PRESSURE GPRESSURE VOLUME PRESSAVG GPRESSAVG
ENERGY: 0 0.5403 2.2472 0.0000 0.0000 -10536.7463 1428.0253 0.0000 0.0000 1741.2764 -7364.6571 301.3758 -9105.9335 -7364.6571 301.3758 94.0611 181.1947 29859.3820 94.0611 181.1947
ENERGY: 300000 0.2083 1.4803 0.0000 0.0000 -10486.7228 1338.0895 0.0000 0.0000 1737.4702 -7409.4746 300.7170 -9146.9448 -7363.7677 302.0155 -724.5220 -646.7466 30127.7341 87.2376 166.4848
ENERGY: 600000 0.6299 0.4339 0.0000 0.0000 -10587.3715 1475.9710 0.0000 0.0000 1784.3913 -7325.9455 308.8380 -9110.3368 -7355.3306 302.8150 620.3072 687.0493 29892.2831 -4.8273 79.4926
ENERGY: 900000 0.3886 2.6085 0.0000 0.0000 -10530.3604 1403.3785 0.0000 0.0000 1733.9645 -7390.0203 300.1103 -9123.9848 -7365.1606 301.7442 -25.6592 49.7220 29798.0038 -133.6541 -64.5198
ENERGY: 1200000 0.7077 1.7392 0.0000 0.0000 -10334.1809 1353.6334 0.0000 0.0000 1721.6838 -7256.4168 297.9848 -8978.1006 -7374.0304 299.4459 -273.2308 -313.1973 30585.5449 -177.2140 -116.4918
ENERGY: 1500000 0.5269 1.4718 0.0000 0.0000 -10564.8157 1445.6981 0.0000 0.0000 1723.2431 -7393.8758 298.2546 -9117.1189 -7377.0496 299.9417 216.7215 284.8062 29996.7321 -230.6052 -164.9087
TCL: Running FEP window   5: Lambda1 0.2    Lambda2 0.25   [dLambda 0.04999999999999999]
TCL: Setting parameter firsttimestep to 0
TCL: Setting parameter alchLambda to 0.2
Info: NONBONDED TABLE R-SQUARED SPACING: 0.0625
Info: NONBONDED TABLE SIZE: 705 POINTS
TCL: Setting parameter alchLambda2 to 0.25
Info: NONBONDED TABLE R-SQUARED SPACING: 0.0625
Info: NONBONDED TABLE SIZE: 705 POINTS
TCL: Running for 1500000 steps
ETITLE: TS BOND ANGLE DIHED IMPRP ELECT VDW BOUNDARY MISC KINETIC TOTAL TEMP POTENTIAL TOTALAVG TEMPAVG PRESSURE GPRESSURE VOLUME PRESSAVG GPRESSAVG
ENERGY: 0 0.5269 1.4718 0.0000 0.0000 -10564.8156 1445.7043 0.0000 0.0000 1722.4014 -7394.7112 298.1090 -9117.1126 -7394.7112 298.1090 218.7109 285.8642 29996.7321 218.7109 285.8642
ENERGY: 300000 0.4794 2.1947 0.0000 0.0000 -10563.6545 1459.2362 0.0000 0.0000 1671.4539 -7430.2902 289.2911 -9101.7441 -7409.8876 296.9650 607.4702 623.8236 29545.7355 9.5620 48.1659
ENERGY: 600000 0.0696 0.7863 0.0000 0.0000 -10555.2792 1482.4166 0.0000 0.0000 1793.2800 -7278.7267 310.3765 -9072.0068 -7406.0345 299.2670 693.2832 744.0908 29844.4716 31.2008 89.3785
ENERGY: 900000 0.2082 0.6755 0.0000 0.0000 -10614.4898 1499.7562 0.0000 0.0000 1705.0371 -7408.8128 295.1036 -9113.8499 -7399.4373 299.7150 471.0132 494.4609 30123.4264 90.5309 139.3414
ENERGY: 1200000 0.0829 0.8753 0.0000 0.0000 -10577.2882 1396.1288 0.0000 0.0000 1699.8578 -7480.3434 294.2072 -9180.2013 -7409.1788 299.1280 -322.6612 -292.6776 29914.7019 23.8913 78.7471
ENERGY: 1500000 0.9667 2.0700 0.0000 0.0000 -10675.9425 1478.3519 0.0000 0.0000 1754.6139 -7439.9401 303.6842 -9194.5540 -7408.0602 299.8318 133.6847 234.1052 30024.7430 95.4106 155.2993
TCL: Running FEP window   6: Lambda1 0.25   Lambda2 0.3    [dLambda 0.04999999999999999]
TCL: Setting parameter firsttimestep to 0
TCL: Setting parameter alchLambda to 0.25
Info: NONBONDED TABLE R-SQUARED SPACING: 0.0625
Info: NONBONDED TABLE SIZE: 705 POINTS
TCL: Setting parameter alchLambda2 to 0.3
Info: NONBONDED TABLE R-SQUARED SPACING: 0.0625
Info: NONBONDED TABLE SIZE: 705 POINTS
TCL: Running for 1500000 steps
ETITLE: TS BOND ANGLE DIHED IMPRP ELECT VDW BOUNDARY MISC KINETIC TOTAL TEMP POTENTIAL TOTALAVG TEMPAVG PRESSURE GPRESSURE VOLUME PRESSAVG GPRESSAVG
ENERGY: 0 0.9667 2.0700 0.0000 0.0000 -10675.9404 1478.3205 0.0000 0.0000 1753.7454 -7440.8378 303.5339 -9194.5832 -7440.8378 303.5339 162.1133 237.0735 30024.7430 162.1133 237.0735
ENERGY: 300000 0.6116 3.0342 0.0000 0.0000 -10528.6930 1370.5527 0.0000 0.0000 1710.3560 -7444.1385 296.0242 -9154.4945 -7432.9775 301.6093 -667.9201 -603.4700 30036.9042 -259.2691 -164.0657
ENERGY: 600000 0.6839 1.0107 0.0000 0.0000 -10631.8247 1520.5963 0.0000 0.0000 1728.0859 -7381.4479 299.0928 -9109.5338 -7400.3663 303.6737 1159.8137 1142.0928 29724.9330 163.9389 235.2598
ENERGY: 900000 0.7880 2.8204 0.0000 0.0000 -10551.0653 1471.1256 0.0000 0.0000 1685.3922 -7390.9390 291.7035 -9076.3312 -7393.6916 302.3938 376.6215 452.2509 30082.6840 190.9393 255.8921
ENERGY: 1200000 0.1488 1.7988 0.0000 0.0000 -10445.7942 1348.2852 0.0000 0.0000 1733.1013 -7362.4601 299.9609 -9095.5614 -7393.1823 302.0497 -580.5447 -583.0987 30411.9046 151.4401 208.9171
ENERGY: 1500000 0.4946 1.2436 0.0000 0.0000 -10436.4964 1404.8744 0.0000 0.0000 1715.5413 -7314.3425 296.9216 -9029.8838 -7389.5421 301.8867 262.7271 273.5579 29777.3033 215.8701 279.1532
TCL: Running FEP window   7: Lambda1 0.3    Lambda2 0.35   [dLambda 0.04999999999999999]
TCL: Setting parameter firsttimestep to 0
TCL: Setting parameter alchLambda to 0.3
Info: NONBONDED TABLE R-SQUARED SPACING: 0.0625
Info: NONBONDED TABLE SIZE: 705 POINTS
TCL: Setting parameter alchLambda2 to 0.35
Info: NONBONDED TABLE R-SQUARED SPACING: 0.0625
Info: NONBONDED TABLE SIZE: 705 POINTS
TCL: Running for 1500000 steps
ETITLE: TS BOND ANGLE DIHED IMPRP ELECT VDW BOUNDARY MISC KINETIC TOTAL TEMP POTENTIAL TOTALAVG TEMPAVG PRESSURE GPRESSURE VOLUME PRESSAVG GPRESSAVG
ENERGY: 0 0.4946 1.2436 0.0000 0.0000 -10436.4968 1405.0030 0.0000 0.0000 1714.6950 -7315.0606 296.7752 -9029.7556 -7315.0606 296.7752 195.5651 277.3294 29777.3033 195.5651 277.3294
ENERGY: 300000 0.1259 2.7080 0.0000 0.0000 -10639.2563 1433.1304 0.0000 0.0000 1762.0460 -7441.2460 304.9706 -9203.2920 -7420.1236 299.1641 39.5616 134.2310 29525.7417 67.3313 126.7361
ENERGY: 600000 0.3533 1.7257 0.0000 0.0000 -10477.0343 1379.3136 0.0000 0.0000 1746.5174 -7349.1242 302.2829 -9095.6416 -7410.2371 297.7913 -295.5429 -282.5967 30267.8460 -0.6841 41.9416
ENERGY: 900000 0.1674 1.7802 0.0000 0.0000 -10575.8740 1449.1617 0.0000 0.0000 1721.6222 -7403.1425 297.9741 -9124.7647 -7404.5435 299.1055 15.2017 34.5619 30272.9992 42.5720 84.8808
ENERGY: 1200000 0.3347 1.5921 0.0000 0.0000 -10510.7305 1443.5412 0.0000 0.0000 1743.5755 -7321.6870 301.7737 -9065.2624 -7414.2244 298.0368 423.8223 511.3904 29963.5329 73.4525 122.1747
ENERGY: 1500000 0.1780 1.2386 0.0000 0.0000 -10678.3017 1530.1218 0.0000 0.0000 1730.5602 -7416.2031 299.5211 -9146.7633 -7413.7866 298.6396 1433.5215 1442.1231 29020.9412 99.5430 149.3911
TCL: Running FEP window   8: Lambda1 0.35   Lambda2 0.39999999999999997 [dLambda 0.04999999999999999]
TCL: Setting parameter firsttimestep to 0
TCL: Setting parameter alchLambda to 0.35
Info: NONBONDED TABLE R-SQUARED SPACING: 0.0625
Info: NONBONDED TABLE SIZE: 705 POINTS
TCL: Setting parameter alchLambda2 to 0.39999999999999997
Info: NONBONDED TABLE R-SQUARED SPACING: 0.0625
Info: NONBONDED TABLE SIZE: 705 POINTS
TCL: Running for 1500000 steps
ETITLE: TS BOND ANGLE DIHED IMPRP ELECT VDW BOUNDARY MISC KINETIC TOTAL TEMP POTENTIAL TOTALAVG TEMPAVG PRESSURE GPRESSURE VOLUME PRESSAVG GPRESSAVG
ENERGY: 0 0.1780 1.2386 0.0000 0.0000 -10678.3019 1530.4836 0.0000 0.0000 1729.7075 -7416.6942 299.3735 -9146.4017 -7416.6942 299.3735 1365.8666 1447.2503 29020.9412 1365.8666 1447.2503
ENERGY: 300000 0.0649 0.6860 0.0000 0.0000 -10512.0834 1395.4676 0.0000 0.0000 1778.8534 -7337.0115 307.8795 -9115.8649 -7351.8697 301.8366 -59.1000 9.4079 29899.5489 208.1089 246.7175
ENERGY: 600000 0.9313 2.2427 0.0000 0.0000 -10662.2863 1498.4747 0.0000 0.0000 1709.6233 -7451.0143 295.8974 -9160.6376 -7387.7912 300.5106 493.9403 635.5388 29823.1692 335.9222 403.2262
ENERGY: 900000 0.2392 0.6642 0.0000 0.0000 -10655.3349 1449.1340 0.0000 0.0000 1751.8478 -7453.4498 303.2055 -9205.2975 -7393.6543 301.9562 164.7250 188.1685 29607.0951 253.0553 312.8438
ENERGY: 1200000 0.5206 3.5865 0.0000 0.0000 -10430.8761 1272.0647 0.0000 0.0000 1702.5805 -7452.1238 294.6784 -9154.7043 -7396.6797 301.4954 -1441.7919 -1378.0866 30058.6030 93.4796 155.8583
ENERGY: 1500000 0.7289 1.1432 0.0000 0.0000 -10647.0769 1452.3831 0.0000 0.0000 1733.3640 -7459.4576 300.0063 -9192.8217 -7403.9588 300.8893 390.0800 402.4594 29502.2000 56.1801 111.8795
TCL: Running FEP window   9: Lambda1 0.39999999999999997 Lambda2 0.44999999999999996 [dLambda 0.04999999999999999]
TCL: Setting parameter firsttimestep to 0
TCL: Setting parameter alchLambda to 0.39999999999999997
Info: NONBONDED TABLE R-SQUARED SPACING: 0.0625
Info: NONBONDED TABLE SIZE: 705 POINTS
TCL: Setting parameter alchLambda2 to 0.44999999999999996
Info: NONBONDED TABLE R-SQUARED SPACING: 0.0625
Info: NONBONDED TABLE SIZE: 705 POINTS
TCL: Running for 1500000 steps
ETITLE: TS BOND ANGLE DIHED IMPRP ELECT VDW BOUNDARY MISC KINETIC TOTAL TEMP POTENTIAL TOTALAVG TEMPAVG PRESSURE GPRESSURE VOLUME PRESSAVG GPRESSAVG
ENERGY: 0 0.7289 1.1432 0.0000 0.0000 -10647.0771 1452.6026 0.0000 0.0000 1732.4854 -7460.1170 299.8543 -9192.6024 -7460.1170 299.8543 321.6486 409.1335 29502.2000 321.6486 409.1335
ENERGY: 300000 0.4091 1.5840 0.0000 0.0000 -10602.3984 1455.4039 0.0000 0.0000 1756.7477 -7388.2537 304.0535 -9145.0014 -7430.6967 299.4275 237.9603 248.0891 29895.4453 309.8154 358.9852
ENERGY: 600000 1.0110 2.8319 0.0000 0.0000 -10558.9095 1424.3139 0.0000 0.0000 1750.1939 -7380.5587 302.9192 -9130.7526 -7435.4011 299.0455 133.8322 184.8980 29648.4319 172.6807 226.9692
ENERGY: 900000 0.4174 2.2555 0.0000 0.0000 -10304.9736 1245.7564 0.0000 0.0000 1792.9246 -7263.6198 310.3149 -9056.5444 -7405.8469 300.4358 -1380.3866 -1223.9976 30154.4891 -34.5374 33.6810
ENERGY: 1200000 0.6700 2.2166 0.0000 0.0000 -10581.0142 1434.2378 0.0000 0.0000 1716.0631 -7427.8267 297.0119 -9143.8898 -7411.8754 300.4048 316.8883 336.4941 29663.6924 -86.8717 -22.1454
ENERGY: 1500000 0.4292 1.3587 0.0000 0.0000 -10486.8104 1378.6889 0.0000 0.0000 1726.9221 -7379.4116 298.8914 -9106.3336 -7406.0094 300.0221 -264.2079 -287.3899 30196.5238 -182.9661 -123.6428
TCL: Running FEP window  10: Lambda1 0.44999999999999996 Lambda2 0.49999999999999994 [dLambda 0.04999999999999999]
TCL: Setting parameter firsttimestep to 0
TCL: Setting parameter alchLambda to 0.44999999999999996
Info: NONBONDED TABLE R-SQUARED SPACING: 0.0625
Info: NONBONDED TABLE SIZE: 705 POINTS
TCL: Setting parameter alchLambda2 to 0.49999999999999994
Info: NONBONDED TABLE R-SQUARED SPACING: 0.0625
Info: NONBONDED TABLE SIZE: 705 POINTS
TCL: Running for 1500000 steps
ETITLE: TS BOND ANGLE DIHED IMPRP ELECT VDW BOUNDARY MISC KINETIC TOTAL TEMP POTENTIAL TOTALAVG TEMPAVG PRESSURE GPRESSURE VOLUME PRESSAVG GPRESSAVG
ENERGY: 0 0.4292 1.3587 0.0000 0.0000 -10486.8096 1378.8078 0.0000 0.0000 1726.0368 -7380.1772 298.7382 -9106.2140 -7380.1772 298.7382 -358.0810 -284.1080 30196.5238 -358.0810 -284.1080
ENERGY: 300000 0.3795 1.7404 0.0000 0.0000 -10549.4952 1372.9318 0.0000 0.0000 1773.0345 -7401.4090 306.8724 -9174.4435 -7394.1325 299.9008 -451.6623 -396.3532 29890.4096 -273.5481 -204.3867
ENERGY: 600000 1.2896 1.0164 0.0000 0.0000 -10602.4467 1410.9575 0.0000 0.0000 1708.4293 -7480.7540 295.6907 -9189.1833 -7389.2011 298.7733 -549.6871 -476.1315 30314.0504 -70.0516 -5.9445
ENERGY: 900000 0.4566 1.2162 0.0000 0.0000 -10546.2397 1409.1007 0.0000 0.0000 1713.1226 -7422.3436 296.5030 -9135.4662 -7398.1119 299.3585 -35.3693 102.0533 29686.9045 -122.5864 -51.2214
ENERGY: 1200000 0.4397 1.4728 0.0000 0.0000 -10662.6358 1503.0534 0.0000 0.0000 1717.1835 -7440.4864 297.2059 -9157.6698 -7404.7263 298.7316 394.4168 454.0514 30108.5793 -81.3279 -6.4833
ENERGY: 1500000 0.9839 1.0268 0.0000 0.0000 -10532.1478 1368.8896 0.0000 0.0000 1686.6253 -7474.6222 291.9169 -9161.2475 -7408.4498 298.6645 -587.8126 -536.6445 30033.5485 -180.0323 -107.9057
TCL: Running FEP window  11: Lambda1 0.49999999999999994 Lambda2 0.5499999999999999 [dLambda 0.04999999999999999]
TCL: Setting parameter firsttimestep to 0
TCL: Setting parameter alchLambda to 0.49999999999999994
Info: NONBONDED TABLE R-SQUARED SPACING: 0.0625
Info: NONBONDED TABLE SIZE: 705 POINTS
TCL: Setting parameter alchLambda2 to 0.5499999999999999
Info: NONBONDED TABLE R-SQUARED SPACING: 0.0625
Info: NONBONDED TABLE SIZE: 705 POINTS
TCL: Running for 1500000 steps
ETITLE: TS BOND ANGLE DIHED IMPRP ELECT VDW BOUNDARY MISC KINETIC TOTAL TEMP POTENTIAL TOTALAVG TEMPAVG PRESSURE GPRESSURE VOLUME PRESSAVG GPRESSAVG
ENERGY: 0 0.9839 1.0268 0.0000 0.0000 -10532.1479 1368.7460 0.0000 0.0000 1685.7409 -7475.6503 291.7639 -9161.3912 -7475.6503 291.7639 -613.7201 -533.5287 30033.5485 -613.7201 -533.5287
ENERGY: 300000 0.4471 1.5141 0.0000 0.0000 -10637.0862 1500.6833 0.0000 0.0000 1717.0352 -7417.4064 297.1802 -9134.4416 -7389.1702 296.5055 497.8201 537.9861 30100.9482 -316.7170 -292.7929
ENERGY: 600000 0.2271 1.0431 0.0000 0.0000 -10636.8976 1426.8266 0.0000 0.0000 1744.8093 -7463.9915 301.9873 -9208.8008 -7409.3569 297.2126 310.7466 355.6280 29278.7202 -192.0716 -148.4672
ENERGY: 900000 0.1761 1.0771 0.0000 0.0000 -10370.9252 1301.1211 0.0000 0.0000 1814.3404 -7254.2105 314.0215 -9068.5509 -7389.9464 299.7647 -504.3915 -518.7548 29751.5837 -325.7159 -279.2583
ENERGY: 1200000 0.6341 2.5806 0.0000 0.0000 -10605.7240 1423.6345 0.0000 0.0000 1783.4736 -7395.4012 308.6792 -9178.8748 -7394.5960 300.7093 20.0927 57.1425 29796.1771 -211.7477 -159.0116
ENERGY: 1500000 1.4078 2.4499 0.0000 0.0000 -10508.5177 1332.1807 0.0000 0.0000 1715.0816 -7457.3978 296.8421 -9172.4793 -7396.3654 301.0111 -789.9932 -764.4994 30096.2403 -298.2636 -242.3724
TCL: Running FEP window  12: Lambda1 0.5499999999999999 Lambda2 0.6    [dLambda 0.050000000000000044]
TCL: Setting parameter firsttimestep to 0
TCL: Setting parameter alchLambda to 0.5499999999999999
Info: NONBONDED TABLE R-SQUARED SPACING: 0.0625
Info: NONBONDED TABLE SIZE: 705 POINTS
TCL: Setting parameter alchLambda2 to 0.6
Info: NONBONDED TABLE R-SQUARED SPACING: 0.0625
Info: NONBONDED TABLE SIZE: 705 POINTS
TCL: Running for 1500000 steps
ETITLE: TS BOND ANGLE DIHED IMPRP ELECT VDW BOUNDARY MISC KINETIC TOTAL TEMP POTENTIAL TOTALAVG TEMPAVG PRESSURE GPRESSURE VOLUME PRESSAVG GPRESSAVG
ENERGY: 0 1.4078 2.4499 0.0000 0.0000 -10508.5950 1332.3134 0.0000 0.0000 1714.2103 -7458.2136 296.6913 -9172.4239 -7458.2136 296.6913 -817.9812 -755.9220 30096.2403 -817.9812 -755.9220
ENERGY: 300000 0.3207 1.2253 0.0000 0.0000 -10477.1614 1408.2473 0.0000 0.0000 1741.8268 -7325.5413 301.4711 -9067.3682 -7381.6142 300.8272 -74.3798 18.8452 30312.7715 -386.3008 -315.5089
ENERGY: 600000 0.4038 1.6907 0.0000 0.0000 -10557.1740 1419.6269 0.0000 0.0000 1712.6747 -7422.7779 296.4255 -9135.4525 -7400.1261 298.0379 58.1655 185.8556 29745.2366 -351.8396 -276.2957
ENERGY: 900000 0.1732 0.4251 0.0000 0.0000 -10423.0827 1382.2368 0.0000 0.0000 1771.3757 -7268.8720 306.5853 -9040.2477 -7390.1863 298.1696 -194.3086 -137.3859 30221.8305 -286.6164 -211.8701
ENERGY: 1200000 0.7340 1.7397 0.0000 0.0000 -10519.3154 1387.1552 0.0000 0.0000 1770.2052 -7359.4814 306.3827 -9129.6866 -7383.9042 299.3568 -530.1506 -438.3958 30290.3765 -308.9523 -234.8582
ENERGY: 1500000 0.9225 1.8435 0.0000 0.0000 -10645.7918 1461.1935 0.0000 0.0000 1731.3323 -7450.5000 299.6547 -9181.8323 -7395.5449 299.6869 342.9153 399.9635 29584.8003 -186.0454 -113.0196
TCL: Running FEP window  13: Lambda1 0.6    Lambda2 0.65   [dLambda 0.050000000000000044]
TCL: Setting parameter firsttimestep to 0
TCL: Setting parameter alchLambda to 0.6
Info: NONBONDED TABLE R-SQUARED SPACING: 0.0625
Info: NONBONDED TABLE SIZE: 705 POINTS
TCL: Setting parameter alchLambda2 to 0.65
Info: NONBONDED TABLE R-SQUARED SPACING: 0.0625
Info: NONBONDED TABLE SIZE: 705 POINTS
TCL: Running for 1500000 steps
ETITLE: TS BOND ANGLE DIHED IMPRP ELECT VDW BOUNDARY MISC KINETIC TOTAL TEMP POTENTIAL TOTALAVG TEMPAVG PRESSURE GPRESSURE VOLUME PRESSAVG GPRESSAVG
ENERGY: 0 0.9225 1.8435 0.0000 0.0000 -10645.5731 1461.4773 0.0000 0.0000 1730.4533 -7450.8764 299.5026 -9181.3297 -7450.8764 299.5026 343.1515 409.7666 29584.8003 343.1515 409.7666
ENERGY: 300000 0.8422 0.6838 0.0000 0.0000 -10417.2138 1299.2164 0.0000 0.0000 1756.7156 -7359.7557 304.0480 -9116.4713 -7416.5089 300.3025 -1109.8538 -1091.2548 30382.7628 -172.4430 -132.0871
ENERGY: 600000 0.0986 0.6888 0.0000 0.0000 -10677.2295 1466.5732 0.0000 0.0000 1699.6307 -7510.2381 294.1679 -9209.8689 -7426.8266 298.8290 317.3652 377.9167 29583.4041 -18.0957 40.9306
ENERGY: 900000 0.5708 2.1162 0.0000 0.0000 -10684.5224 1482.5357 0.0000 0.0000 1719.7573 -7479.5424 297.6513 -9199.2997 -7429.2128 299.7086 421.6016 489.1000 29788.5406 -88.6011 -25.8907
ENERGY: 1200000 0.2901 2.6481 0.0000 0.0000 -10557.7284 1418.6238 0.0000 0.0000 1757.9400 -7378.2265 304.2599 -9136.1665 -7414.7546 301.2443 431.7330 395.5323 29574.6030 23.9555 75.9498
ENERGY: 1500000 0.1813 2.3050 0.0000 0.0000 -10581.5626 1458.0966 0.0000 0.0000 1709.5732 -7411.4066 295.8887 -9120.9798 -7411.9075 301.4018 225.3975 242.7868 30202.8966 -26.4618 20.1334
TCL: Running FEP window  14: Lambda1 0.65   Lambda2 0.7000000000000001 [dLambda 0.050000000000000044]
TCL: Setting parameter firsttimestep to 0
TCL: Setting parameter alchLambda to 0.65
Info: NONBONDED TABLE R-SQUARED SPACING: 0.0625
Info: NONBONDED TABLE SIZE: 705 POINTS
TCL: Setting parameter alchLambda2 to 0.7000000000000001
Info: NONBONDED TABLE R-SQUARED SPACING: 0.0625
Info: NONBONDED TABLE SIZE: 705 POINTS
TCL: Running for 1500000 steps
ETITLE: TS BOND ANGLE DIHED IMPRP ELECT VDW BOUNDARY MISC KINETIC TOTAL TEMP POTENTIAL TOTALAVG TEMPAVG PRESSURE GPRESSURE VOLUME PRESSAVG GPRESSAVG
ENERGY: 0 0.1813 2.3050 0.0000 0.0000 -10581.9083 1458.3238 0.0000 0.0000 1708.7084 -7412.3897 295.7390 -9121.0982 -7412.3897 295.7390 175.3560 246.7162 30202.8966 175.3560 246.7162
ENERGY: 300000 0.1927 1.0777 0.0000 0.0000 -10630.3037 1430.7111 0.0000 0.0000 1727.5675 -7470.7548 299.0031 -9198.3223 -7432.7381 295.9413 40.3091 159.5392 29623.1926 -144.3527 -43.6449
ENERGY: 600000 0.0491 1.9321 0.0000 0.0000 -10590.3073 1370.5507 0.0000 0.0000 1705.6785 -7512.0970 295.2146 -9217.7755 -7435.2557 297.3945 -570.5369 -538.7299 30107.0309 -271.9412 -195.2228
ENERGY: 900000 0.1802 2.5343 0.0000 0.0000 -10474.1016 1339.6428 0.0000 0.0000 1736.3399 -7395.4044 300.5214 -9131.7443 -7428.9130 297.9244 -754.2113 -753.8856 30410.9642 -334.9946 -269.3275
ENERGY: 1200000 0.4777 1.1984 0.0000 0.0000 -10451.0692 1327.8298 0.0000 0.0000 1720.9057 -7400.6576 297.8501 -9121.5633 -7425.3545 298.1059 -635.5586 -576.1210 29759.3587 -303.2726 -235.5836
ENERGY: 1500000 1.5638 1.7745 0.0000 0.0000 -10600.9391 1447.2956 0.0000 0.0000 1820.9537 -7329.3515 315.1662 -9150.3051 -7416.6174 299.7768 385.9645 443.0677 29777.2785 -260.3043 -194.7940
TCL: Running FEP window  15: Lambda1 0.7000000000000001 Lambda2 0.7500000000000001 [dLambda 0.050000000000000044]
TCL: Setting parameter firsttimestep to 0
TCL: Setting parameter alchLambda to 0.7000000000000001
Info: NONBONDED TABLE R-SQUARED SPACING: 0.0625
Info: NONBONDED TABLE SIZE: 705 POINTS
TCL: Setting parameter alchLambda2 to 0.7500000000000001
Info: NONBONDED TABLE R-SQUARED SPACING: 0.0625
Info: NONBONDED TABLE SIZE: 705 POINTS
TCL: Running for 1500000 steps
ETITLE: TS BOND ANGLE DIHED IMPRP ELECT VDW BOUNDARY MISC KINETIC TOTAL TEMP POTENTIAL TOTALAVG TEMPAVG PRESSURE GPRESSURE VOLUME PRESSAVG GPRESSAVG
ENERGY: 0 1.5638 1.7745 0.0000 0.0000 -10601.0774 1446.8666 0.0000 0.0000 1820.0812 -7330.7914 315.0151 -9150.8725 -7330.7914 315.0151 352.6908 443.9629 29777.2785 352.6908 443.9629
ENERGY: 300000 0.1425 1.0089 0.0000 0.0000 -10514.8415 1403.9135 0.0000 0.0000 1742.3565 -7367.4201 301.5627 -9109.7766 -7333.0758 305.6123 -407.7477 -341.6783 30547.8644 -167.0376 -110.0499
ENERGY: 600000 0.2028 1.3250 0.0000 0.0000 -10612.6979 1423.8981 0.0000 0.0000 1763.7595 -7423.5125 305.2671 -9187.2720 -7372.6864 302.6694 -6.8266 20.4244 29979.0003 -195.2120 -148.4500
ENERGY: 900000 0.5488 2.0390 0.0000 0.0000 -10602.2733 1443.5497 0.0000 0.0000 1674.0855 -7482.0503 289.7466 -9156.1358 -7380.5320 300.4338 213.0560 255.8248 29857.6718 -146.5098 -101.7010
ENERGY: 1200000 0.2747 1.4644 0.0000 0.0000 -10521.3740 1356.8666 0.0000 0.0000 1694.5254 -7468.2430 293.2842 -9162.7683 -7394.0105 300.0255 -573.0723 -465.4721 29955.2217 -165.6386 -118.2534
ENERGY: 1500000 0.4063 2.2119 0.0000 0.0000 -10539.4645 1341.0383 0.0000 0.0000 1707.8146 -7487.9935 295.5843 -9195.8080 -7404.5330 298.9613 -893.3111 -836.7939 30029.7848 -237.3117 -191.8187
TCL: Running FEP window  16: Lambda1 0.7500000000000001 Lambda2 0.8000000000000002 [dLambda 0.050000000000000044]
TCL: Setting parameter firsttimestep to 0
TCL: Setting parameter alchLambda to 0.7500000000000001
Info: NONBONDED TABLE R-SQUARED SPACING: 0.0625
Info: NONBONDED TABLE SIZE: 705 POINTS
TCL: Setting parameter alchLambda2 to 0.8000000000000002
Info: NONBONDED TABLE R-SQUARED SPACING: 0.0625
Info: NONBONDED TABLE SIZE: 705 POINTS
TCL: Running for 1500000 steps
ETITLE: TS BOND ANGLE DIHED IMPRP ELECT VDW BOUNDARY MISC KINETIC TOTAL TEMP POTENTIAL TOTALAVG TEMPAVG PRESSURE GPRESSURE VOLUME PRESSAVG GPRESSAVG
ENERGY: 0 0.4063 2.2119 0.0000 0.0000 -10539.5233 1340.5863 0.0000 0.0000 1706.9584 -7489.3604 295.4361 -9196.3188 -7489.3604 295.4361 -914.7249 -833.9941 30029.7848 -914.7249 -833.9941
ENERGY: 300000 0.7196 2.6222 0.0000 0.0000 -10480.6630 1356.3472 0.0000 0.0000 1726.8933 -7394.0807 298.8864 -9120.9740 -7442.7882 299.1934 -631.6244 -555.4717 30313.6035 -591.3565 -549.0265
ENERGY: 600000 2.1359 2.1226 0.0000 0.0000 -10438.8860 1339.8419 0.0000 0.0000 1721.5309 -7373.2547 297.9583 -9094.7856 -7432.6574 299.2535 -410.1465 -342.8427 29685.8505 -478.4181 -415.7656
ENERGY: 900000 0.1535 2.1659 0.0000 0.0000 -10607.4356 1438.6473 0.0000 0.0000 1738.1644 -7428.3044 300.8372 -9166.4689 -7417.1809 301.4556 -3.0367 26.4752 30228.6787 -226.1663 -166.9334
ENERGY: 1200000 1.0726 2.5998 0.0000 0.0000 -10684.4909 1468.1207 0.0000 0.0000 1796.8592 -7415.8385 310.9959 -9212.6977 -7413.2163 302.1857 588.4759 651.5130 29258.3143 -217.2260 -154.5766
ENERGY: 1500000 0.2955 2.3411 0.0000 0.0000 -10391.3036 1361.7075 0.0000 0.0000 1779.4786 -7247.4809 307.9877 -9026.9595 -7397.3250 302.0930 -175.8669 -118.7123 30339.1131 -233.1168 -165.2200
TCL: Running FEP window  17: Lambda1 0.8000000000000002 Lambda2 0.8500000000000002 [dLambda 0.050000000000000044]
TCL: Setting parameter firsttimestep to 0
TCL: Setting parameter alchLambda to 0.8000000000000002
Info: NONBONDED TABLE R-SQUARED SPACING: 0.0625
Info: NONBONDED TABLE SIZE: 705 POINTS
TCL: Setting parameter alchLambda2 to 0.8500000000000002
Info: NONBONDED TABLE R-SQUARED SPACING: 0.0625
Info: NONBONDED TABLE SIZE: 705 POINTS
TCL: Running for 1500000 steps
ETITLE: TS BOND ANGLE DIHED IMPRP ELECT VDW BOUNDARY MISC KINETIC TOTAL TEMP POTENTIAL TOTALAVG TEMPAVG PRESSURE GPRESSURE VOLUME PRESSAVG GPRESSAVG
ENERGY: 0 0.2955 2.3411 0.0000 0.0000 -10391.6190 1361.6125 0.0000 0.0000 1778.5886 -7248.7814 307.8337 -9027.3700 -7248.7814 307.8337 -190.3379 -113.7825 30339.1131 -190.3379 -113.7825
ENERGY: 300000 1.0350 1.3095 0.0000 0.0000 -10552.4124 1449.2106 0.0000 0.0000 1709.7084 -7391.1488 295.9121 -9100.8573 -7362.9132 301.5649 140.2310 219.1028 30506.7195 61.0742 132.0894
ENERGY: 600000 0.9913 0.7787 0.0000 0.0000 -10544.3135 1357.7622 0.0000 0.0000 1742.7603 -7442.0208 301.6326 -9184.7812 -7395.6851 301.4568 -691.7366 -631.6295 29858.7962 -164.2737 -93.5436
ENERGY: 900000 0.0495 3.6242 0.0000 0.0000 -10594.4072 1422.5985 0.0000 0.0000 1780.9058 -7387.2292 308.2348 -9168.1350 -7398.4005 302.6275 -33.0787 47.4853 30104.3094 -88.9037 -32.8266
ENERGY: 1200000 0.7378 1.0741 0.0000 0.0000 -10602.5195 1468.0257 0.0000 0.0000 1749.7073 -7382.9746 302.8350 -9132.6819 -7395.4185 301.7360 402.7291 482.3063 30142.4707 -11.8450 46.7182
ENERGY: 1500000 0.1744 1.2965 0.0000 0.0000 -10598.4756 1491.1118 0.0000 0.0000 1655.1290 -7450.7639 286.4656 -9105.8929 -7407.1982 300.4155 334.2385 392.0467 30472.0218 24.0058 79.5185
TCL: Running FEP window  18: Lambda1 0.8500000000000002 Lambda2 0.9000000000000002 [dLambda 0.050000000000000044]
TCL: Setting parameter firsttimestep to 0
TCL: Setting parameter alchLambda to 0.8500000000000002
Info: NONBONDED TABLE R-SQUARED SPACING: 0.0625
Info: NONBONDED TABLE SIZE: 705 POINTS
TCL: Setting parameter alchLambda2 to 0.9000000000000002
Info: NONBONDED TABLE R-SQUARED SPACING: 0.0625
Info: NONBONDED TABLE SIZE: 705 POINTS
TCL: Running for 1500000 steps
ETITLE: TS BOND ANGLE DIHED IMPRP ELECT VDW BOUNDARY MISC KINETIC TOTAL TEMP POTENTIAL TOTALAVG TEMPAVG PRESSURE GPRESSURE VOLUME PRESSAVG GPRESSAVG
ENERGY: 0 0.1744 1.2965 0.0000 0.0000 -10598.4982 1490.6806 0.0000 0.0000 1654.2734 -7452.0734 286.3175 -9106.3468 -7452.0734 286.3175 309.5563 391.6914 30472.0218 309.5563 391.6914
ENERGY: 300000 1.3325 1.1535 0.0000 0.0000 -10709.6649 1552.2942 0.0000 0.0000 1726.2195 -7428.6652 298.7698 -9154.8847 -7417.2060 295.5576 1023.5391 998.6599 29933.4953 271.7418 310.3287
ENERGY: 600000 0.7179 3.1148 0.0000 0.0000 -10577.9851 1416.3648 0.0000 0.0000 1692.5670 -7465.2206 292.9453 -9157.7876 -7433.0538 296.5127 -4.4549 68.4509 29810.7054 139.6945 193.2904
ENERGY: 900000 1.0439 2.3503 0.0000 0.0000 -10682.6707 1473.0072 0.0000 0.0000 1747.9309 -7458.3384 302.5276 -9206.2694 -7420.6619 298.6475 243.7084 274.5469 30070.0566 133.3946 187.4406
ENERGY: 1200000 1.1303 2.3534 0.0000 0.0000 -10526.4455 1399.1317 0.0000 0.0000 1649.3043 -7474.5257 285.4575 -9123.8300 -7427.1968 297.4620 -337.4957 -298.9915 30118.9085 21.1159 71.3480
ENERGY: 1500000 1.9261 1.5917 0.0000 0.0000 -10534.4827 1380.4654 0.0000 0.0000 1766.7202 -7383.7793 305.7795 -9150.4995 -7421.5682 297.9317 -234.4905 -185.9038 29877.9695 -2.8442 38.3994
TCL: Running FEP window  19: Lambda1 0.9000000000000002 Lambda2 0.9500000000000003 [dLambda 0.050000000000000044]
TCL: Setting parameter firsttimestep to 0
TCL: Setting parameter alchLambda to 0.9000000000000002
Info: NONBONDED TABLE R-SQUARED SPACING: 0.0625
Info: NONBONDED TABLE SIZE: 705 POINTS
TCL: Setting parameter alchLambda2 to 0.9500000000000003
Info: NONBONDED TABLE R-SQUARED SPACING: 0.0625
Info: NONBONDED TABLE SIZE: 705 POINTS
TCL: Running for 1500000 steps
ETITLE: TS BOND ANGLE DIHED IMPRP ELECT VDW BOUNDARY MISC KINETIC TOTAL TEMP POTENTIAL TOTALAVG TEMPAVG PRESSURE GPRESSURE VOLUME PRESSAVG GPRESSAVG
ENERGY: 0 1.9261 1.5917 0.0000 0.0000 -10534.4538 1380.0393 0.0000 0.0000 1765.8647 -7385.0320 305.6315 -9150.8967 -7385.0320 305.6315 -268.7016 -186.0219 29877.9695 -268.7016 -186.0219
ENERGY: 300000 1.1317 2.6975 0.0000 0.0000 -10666.3569 1423.5886 0.0000 0.0000 1753.6104 -7485.3288 303.5105 -9238.9392 -7406.3592 303.8559 -294.4913 -165.0609 30012.1938 -174.6710 -98.3614
ENERGY: 600000 2.0525 3.8479 0.0000 0.0000 -10606.5395 1430.6758 0.0000 0.0000 1717.3732 -7452.5900 297.2387 -9169.9632 -7413.0214 300.6755 154.9801 197.3130 29972.2705 -266.5702 -202.7690
ENERGY: 900000 0.7420 2.1837 0.0000 0.0000 -10584.9316 1443.1878 0.0000 0.0000 1723.7901 -7415.0280 298.3493 -9138.8181 -7423.9592 301.0067 371.3824 411.8840 29743.4159 -237.8687 -174.2724
ENERGY: 1200000 0.7281 5.7274 0.0000 0.0000 -10648.5659 1505.5866 0.0000 0.0000 1706.3118 -7430.2121 295.3242 -9136.5239 -7415.3228 300.7137 700.5134 675.0940 29833.6362 -75.6197 -18.6619
ENERGY: 1500000 0.6598 3.0681 0.0000 0.0000 -10699.8217 1559.2360 0.0000 0.0000 1773.1010 -7363.7568 306.8839 -9136.8578 -7414.6456 300.2114 1056.8744 1071.2149 29852.7164 9.8525 70.1306
TCL: Running FEP window  20: Lambda1 0.9500000000000003 Lambda2 1.0    [dLambda 0.04999999999999971]
TCL: Setting parameter firsttimestep to 0
TCL: Setting parameter alchLambda to 0.9500000000000003
Info: NONBONDED TABLE R-SQUARED SPACING: 0.0625
Info: NONBONDED TABLE SIZE: 705 POINTS
TCL: Setting parameter alchLambda2 to 1.0
Info: NONBONDED TABLE R-SQUARED SPACING: 0.0625
Info: NONBONDED TABLE SIZE: 705 POINTS
TCL: Running for 1500000 steps
ETITLE: TS BOND ANGLE DIHED IMPRP ELECT VDW BOUNDARY MISC KINETIC TOTAL TEMP POTENTIAL TOTALAVG TEMPAVG PRESSURE GPRESSURE VOLUME PRESSAVG GPRESSAVG
ENERGY: 0 0.6598 3.0681 0.0000 0.0000 -10699.7271 1559.4283 0.0000 0.0000 1772.2185 -7364.3523 306.7312 -9136.5709 -7364.3523 306.7312 1001.0063 1084.8402 29852.7164 1001.0063 1084.8402
ENERGY: 300000 0.1375 1.2659 0.0000 0.0000 -10565.9030 1423.5411 0.0000 0.0000 1714.2614 -7426.6972 296.7001 -9140.9586 -7429.9425 298.1687 68.3983 120.7886 29928.4489 89.6515 158.1317
ENERGY: 600000 0.4693 1.5118 0.0000 0.0000 -10568.0582 1473.5243 0.0000 0.0000 1791.6288 -7300.9239 310.0907 -9092.5528 -7399.1385 300.6009 651.7308 715.0839 30071.2540 -90.8938 -18.8642
ENERGY: 900000 1.3920 0.8249 0.0000 0.0000 -10560.9465 1361.8375 0.0000 0.0000 1720.9619 -7475.9303 297.8598 -9196.8921 -7418.3323 299.0341 -796.2035 -722.5530 30359.7749 -98.7059 -20.5030
ENERGY: 1200000 0.1388 2.3578 0.0000 0.0000 -10542.7716 1429.8962 0.0000 0.0000 1754.6040 -7355.7748 303.6825 -9110.3788 -7413.3194 299.6700 190.5699 225.3463 30143.8372 -15.5723 53.7709
ENERGY: 1500000 1.6585 1.5110 0.0000 0.0000 -10474.0585 1362.0036 0.0000 0.0000 1744.7290 -7364.1564 301.9734 -9108.8854 -7407.4930 299.9336 -169.3512 -136.8243 29928.0975 -70.2198 0.5042
TCL: Exiting due to exit command.
