Info: SIMULATION PARAMETERS:
Info: TIMESTEP               2
Info: NUMBER OF STEPS        0
Info: STEPS PER CYCLE        10
Info: PERIODIC CELL BASIS 1  36.005 0 0
Info: PERIODIC CELL BASIS 2  0 34.26 0
Info: PERIODIC CELL BASIS 3  0 0 35.856
Info: PERIODIC CELL CENTER   0 0 0
Info: WRAPPING WATERS AROUND PERIODIC BOUNDARIES ON OUTPUT.
Info: WRAPPING ALL CLUSTERS AROUND PERIODIC BOUNDARIES ON OUTPUT.
Info: FIRST LDB TIMESTEP     50
Info: LAST LDB TIMESTEP     -1
Info: HOM BACKGROUND SCALING 1
Info: PME BACKGROUND SCALING 1
Info: MIN ATOMS PER PATCH    40
Info: EMPTY PATCH LOAD       40 ATOMS
Info: INITIAL TEMPERATURE    300
Info: CENTER OF MASS MOVING INITIALLY? NO
Info: DIELECTRIC             1
Info: EXCLUDE                SCALED ONE-FOUR
Info: 1-4 ELECTROSTATICS SCALED BY 0.833333
Info: MODIFIED 1-4 VDW PARAMETERS WILL BE USED
Info: DCD FILENAME           mobley_3370989_equil.dcd
Info: DCD FREQUENCY          100000
Info: DCD FIRST STEP         100000
Info: DCD FILE WILL CONTAIN UNIT CELL DATA
Info: XST FILENAME           mobley_3370989_equil.xst
Info: XST FREQUENCY          100000
Info: NO VELOCITY DCD OUTPUT
Info: NO FORCE DCD OUTPUT
Info: OUTPUT FILENAME        mobley_3370989_equil
Info: BINARY OUTPUT FILES WILL BE USED
Info: RESTART FILENAME       mobley_3370989_equil.restart
Info: RESTART FREQUENCY      100000
Info: BINARY RESTART FILES WILL BE USED
Info: CUTOFF                 9
Info: PAIRLIST DISTANCE      11
Info: PAIRLIST SHRINK RATE   0.01
Info: PAIRLIST GROW RATE     0.01
Info: PAIRLIST TRIGGER       0.3
Info: PAIRLISTS PER CYCLE    2
Info: PAIRLISTS ENABLED
Info: MARGIN                 8
Info: HYDROGEN GROUP CUTOFF  2.5
Info: PATCH DIMENSION        21.5
Info: ENERGY OUTPUT STEPS    100000
Info: ENERGY EVALUATION STEPS    100000
Info: OUTPUT ENERGY PRECISION 4
Info: CROSSTERM ENERGY INCLUDED IN DIHEDRAL
Info: TIMING OUTPUT STEPS    1000000
Info: PRESSURE OUTPUT STEPS  100000
Info: LANGEVIN DYNAMICS ACTIVE
Info: LANGEVIN TEMPERATURE   30
Info: LANGEVIN USING BBK INTEGRATOR
Info: LANGEVIN DAMPING COEFFICIENT IS 1 INVERSE PS
Info: LANGEVIN DYNAMICS APPLIED TO HYDROGENS
Info: LANGEVIN PISTON PRESSURE CONTROL ACTIVE
Info:        TARGET PRESSURE IS 1.01325 BAR
Info:     OSCILLATION PERIOD IS 50 FS
Info:             DECAY TIME IS 25 FS
Info:     PISTON TEMPERATURE IS 300 K
Info:       PRESSURE CONTROL IS GROUP-BASED
Info:    INITIAL STRAIN RATE IS 0 0 0
Info:       CELL FLUCTUATION IS ISOTROPIC
Info: PARTICLE MESH EWALD (PME) ACTIVE
Info: PME TOLERANCE               1e-06
Info: PME EWALD COEFFICIENT       0.348832
Info: PME INTERPOLATION ORDER     4
Info: PME GRID DIMENSIONS         40 36 36
Info: PME MAXIMUM GRID SPACING    1
Info: FULL ELECTROSTATIC EVALUATION FREQUENCY      2
Info: USING VERLET I (r-RESPA) MTS SCHEME.
Info: C1 SPLITTING OF LONG RANGE ELECTROSTATICS
Info: PLACING ATOMS IN PATCHES BY HYDROGEN GROUPS
Info: RIGID BONDS TO HYDROGEN : ALL
Info:         ERROR TOLERANCE : 1e-08
Info:          MAX ITERATIONS : 100
Info: RIGID WATER USING SETTLE ALGORITHM
Info: RANDOM NUMBER SEED     1743157598
Info: USE HYDROGEN BONDS?    NO
Info: Using AMBER format force field!
Info: AMBER PARM FILE        mobley_3370989.prmtop
Info: COORDINATE PDB         mobley_3370989.pdb
Info: Exclusions will be read from PARM file!
Info: SCNB (VDW SCALING)     2
Info: USING ARITHMETIC MEAN TO COMBINE L-J SIGMA PARAMETERS
Info: BINARY COORDINATES     mobley_3370989_min.coor
Info: SUMMARY OF PARAMETERS:
Info: 6 BONDS
Info: 6 ANGLES
Info:   6 HARMONIC
Info:   0 COSINE-BASED
Info: 3 DIHEDRAL
Info: 0 IMPROPER
Info: 0 CROSSTERM
Info: 0 VDW
Info: 21 VDW_PAIRS
Info: 0 NBTHOLE_PAIRS
Info: STRUCTURE SUMMARY:
Info: 2969 ATOMS
Info: 2968 BONDS
Info: 12 ANGLES
Info: 15 DIHEDRALS
Info: 0 IMPROPERS
Info: 0 CROSSTERMS
Info: 2989 EXCLUSIONS
Info: 2965 RIGID BONDS
Info: 5942 DEGREES OF FREEDOM
Info: 991 HYDROGEN GROUPS
Info: 4 ATOMS IN LARGEST HYDROGEN GROUP
Info: 991 MIGRATION GROUPS
Info: 4 ATOMS IN LARGEST MIGRATION GROUP
Info: TOTAL MASS = 17847.8 amu
Info: TOTAL CHARGE = -0.000200003 e
Info: MASS DENSITY = 0.67009 g/cm^3
Info: ATOM DENSITY = 0.0671271 atoms/A^3
Info: ADDED 0 IMPLICIT EXCLUSIONS
Info: NONBONDED TABLE R-SQUARED SPACING: 0.0625
Info: NONBONDED TABLE SIZE: 705 POINTS
Info: REMOVING COM VELOCITY -0.0181005 -0.185953 -0.0558615
TCL: Running for 100000 steps
ETITLE: TS BOND ANGLE DIHED IMPRP ELECT VDW BOUNDARY MISC KINETIC TOTAL TEMP POTENTIAL TOTAL3 TEMPAVG PRESSURE GPRESSURE VOLUME PRESSAVG GPRESSAVG
ENERGY: 0 0.0024 0.0810 1.1416 0.0000 -13807.3569 2445.2492 0.0000 0.0000 1830.6282 -9530.2545 310.0687 -11360.8828 -9529.8763 310.0687 543.8568 577.6409 44229.4983 543.8568 577.6409
ENERGY: 100000 0.0259 0.6057 1.1838 0.0000 -14287.0428 2457.8576 0.0000 0.0000 173.7180 -11653.6518 29.4241 -11827.3698 -11653.1732 30.9071 -473.3693 -396.0896 29387.3849 4.1689 4.1986
TCL: Running 100000 steps at 60 kelvin.
TCL: Setting parameter langevinTemp to 60
TCL: Running for 100000 steps
ETITLE: TS BOND ANGLE DIHED IMPRP ELECT VDW BOUNDARY MISC KINETIC TOTAL TEMP POTENTIAL TOTAL3 TEMPAVG PRESSURE GPRESSURE VOLUME PRESSAVG GPRESSAVG
ENERGY: 100000 0.0259 0.6057 1.1838 0.0000 -14287.0428 2457.8576 0.0000 0.0000 173.6322 -11653.7376 29.4095 -11827.3698 -11653.4160 29.4095 -446.5029 -396.0587 29387.3849 -446.5029 -396.0587
ENERGY: 200000 0.4170 0.4005 1.1534 0.0000 -14304.3993 2529.7329 0.0000 0.0000 348.0178 -11424.6777 58.9467 -11772.6954 -11423.6755 60.1225 548.1206 557.4890 28966.9558 3.0955 3.1214
TCL: Running 100000 steps at 90 kelvin.
TCL: Setting parameter langevinTemp to 90
TCL: Running for 100000 steps
ETITLE: TS BOND ANGLE DIHED IMPRP ELECT VDW BOUNDARY MISC KINETIC TOTAL TEMP POTENTIAL TOTAL3 TEMPAVG PRESSURE GPRESSURE VOLUME PRESSAVG GPRESSAVG
ENERGY: 200000 0.4170 0.4005 1.1534 0.0000 -14304.3993 2529.7329 0.0000 0.0000 347.8476 -11424.8478 58.9178 -11772.6954 -11424.1804 58.9178 521.1814 557.6780 28966.9558 521.1814 557.6780
ENERGY: 300000 0.9971 1.4308 1.2251 0.0000 -13966.2196 2318.4609 0.0000 0.0000 535.2723 -11108.8334 90.6635 -11644.1057 -11107.8072 90.0129 -1000.7894 -950.7986 29595.3878 5.3416 5.3254
TCL: Running 100000 steps at 120 kelvin.
TCL: Setting parameter langevinTemp to 120
TCL: Running for 100000 steps
ETITLE: TS BOND ANGLE DIHED IMPRP ELECT VDW BOUNDARY MISC KINETIC TOTAL TEMP POTENTIAL TOTAL3 TEMPAVG PRESSURE GPRESSURE VOLUME PRESSAVG GPRESSAVG
ENERGY: 300000 0.9971 1.4308 1.2251 0.0000 -13966.2196 2318.4609 0.0000 0.0000 535.0069 -11109.0988 90.6186 -11644.1057 -11107.9988 90.6186 -1000.4087 -951.1865 29595.3878 -1000.4087 -951.1865
ENERGY: 400000 0.2440 1.1218 1.3062 0.0000 -13859.1075 2318.0168 0.0000 0.0000 708.3286 -10830.0901 119.9755 -11538.4187 -10827.6556 119.8172 -411.7080 -365.6865 29201.6366 4.9076 4.9183
TCL: Running 100000 steps at 150 kelvin.
TCL: Setting parameter langevinTemp to 150
TCL: Running for 100000 steps
ETITLE: TS BOND ANGLE DIHED IMPRP ELECT VDW BOUNDARY MISC KINETIC TOTAL TEMP POTENTIAL TOTAL3 TEMPAVG PRESSURE GPRESSURE VOLUME PRESSAVG GPRESSAVG
ENERGY: 400000 0.2440 1.1218 1.3062 0.0000 -13859.1075 2318.0168 0.0000 0.0000 707.9759 -10830.4428 119.9157 -11538.4187 -10829.1072 119.9157 -412.8484 -364.6992 29201.6366 -412.8484 -364.6992
ENERGY: 500000 0.1229 1.9847 1.1639 0.0000 -13680.0862 2313.6496 0.0000 0.0000 901.4909 -10461.6742 152.6930 -11363.1651 -10460.2238 150.0324 194.2645 223.2433 29461.8807 3.6958 3.6966
TCL: Running 100000 steps at 180 kelvin.
TCL: Setting parameter langevinTemp to 180
TCL: Running for 100000 steps
ETITLE: TS BOND ANGLE DIHED IMPRP ELECT VDW BOUNDARY MISC KINETIC TOTAL TEMP POTENTIAL TOTAL3 TEMPAVG PRESSURE GPRESSURE VOLUME PRESSAVG GPRESSAVG
ENERGY: 500000 0.1229 1.9847 1.1639 0.0000 -13680.0862 2313.6496 0.0000 0.0000 901.0465 -10462.1186 152.6177 -11363.1651 -10460.6110 152.6177 177.4098 223.0784 29461.8807 177.4098 223.0784
ENERGY: 600000 0.1138 1.6724 1.1402 0.0000 -13107.5576 2042.6099 0.0000 0.0000 1044.0389 -10017.9824 176.8375 -11062.0213 -10014.5788 179.6450 -642.3956 -577.8273 29050.2910 3.6500 3.6643
TCL: Running 100000 steps at 210 kelvin.
TCL: Setting parameter langevinTemp to 210
TCL: Running for 100000 steps
ETITLE: TS BOND ANGLE DIHED IMPRP ELECT VDW BOUNDARY MISC KINETIC TOTAL TEMP POTENTIAL TOTAL3 TEMPAVG PRESSURE GPRESSURE VOLUME PRESSAVG GPRESSAVG
ENERGY: 600000 0.1138 1.6724 1.1402 0.0000 -13107.5576 2042.6099 0.0000 0.0000 1043.5026 -10018.5187 176.7467 -11062.0213 -10016.0424 176.7467 -643.4435 -577.3813 29050.2910 -643.4435 -577.3813
ENERGY: 700000 0.3506 2.6060 1.4741 0.0000 -12541.2777 1928.5679 0.0000 0.0000 1280.7088 -9327.5704 216.9243 -10608.2791 -9325.0884 209.7767 258.4108 308.1557 28863.1562 3.5595 3.5380
TCL: Running 100000 steps at 240 kelvin.
TCL: Setting parameter langevinTemp to 240
TCL: Running for 100000 steps
ETITLE: TS BOND ANGLE DIHED IMPRP ELECT VDW BOUNDARY MISC KINETIC TOTAL TEMP POTENTIAL TOTAL3 TEMPAVG PRESSURE GPRESSURE VOLUME PRESSAVG GPRESSAVG
ENERGY: 700000 0.3506 2.6060 1.4741 0.0000 -12541.2777 1928.5679 0.0000 0.0000 1280.0913 -9328.1879 216.8197 -10608.2792 -9326.0100 216.8197 237.0811 308.4098 28863.1562 237.0811 308.4098
ENERGY: 800000 1.0212 3.5808 1.1626 0.0000 -11797.4499 1638.9125 0.0000 0.0000 1471.9312 -8680.8415 249.3132 -10152.7727 -8677.4784 239.6526 -955.2015 -842.9805 29528.0313 2.6935 2.6124
TCL: Running 100000 steps at 270 kelvin.
TCL: Setting parameter langevinTemp to 270
TCL: Running for 100000 steps
ETITLE: TS BOND ANGLE DIHED IMPRP ELECT VDW BOUNDARY MISC KINETIC TOTAL TEMP POTENTIAL TOTAL3 TEMPAVG PRESSURE GPRESSURE VOLUME PRESSAVG GPRESSAVG
ENERGY: 800000 1.0212 3.5808 1.1626 0.0000 -11797.4499 1638.9125 0.0000 0.0000 1471.2337 -8681.5390 249.1950 -10152.7727 -8679.0796 249.1950 -932.0567 -843.2245 29528.0313 -932.0567 -843.2245
ENERGY: 900000 0.1178 2.3221 1.1811 0.0000 -11446.6439 1660.6045 0.0000 0.0000 1634.7023 -8147.7161 276.8831 -9782.4184 -8145.2999 269.8981 635.4583 729.9711 29546.5795 3.4902 3.5699
TCL: Running 1000000 steps at 300 kelvin.
TCL: Setting parameter langevinTemp to 300
TCL: Running for 1000000 steps
ETITLE: TS BOND ANGLE DIHED IMPRP ELECT VDW BOUNDARY MISC KINETIC TOTAL TEMP POTENTIAL TOTAL3 TEMPAVG PRESSURE GPRESSURE VOLUME PRESSAVG GPRESSAVG
ENERGY: 900000 0.1178 2.3221 1.1811 0.0000 -11446.6439 1660.6045 0.0000 0.0000 1633.9134 -8148.5049 276.7495 -9782.4184 -8145.3695 276.7495 642.3973 730.2078 29546.5795 642.3973 730.2078
ENERGY: 1100000 0.0521 3.8866 1.1517 0.0000 -10874.1949 1457.6290 0.0000 0.0000 1754.5958 -7656.8798 297.1904 -9411.4755 -7654.7226 299.6948 -126.9600 -55.9374 30417.8222 2.6641 2.7720
ENERGY: 1300000 1.5537 1.3563 2.0355 0.0000 -10771.3530 1408.2470 0.0000 0.0000 1772.3539 -7585.8065 300.1983 -9358.1604 -7580.6692 300.0996 -665.9328 -541.0783 30663.2835 3.1349 3.1653
ENERGY: 1500000 1.1707 3.2758 1.1694 0.0000 -10922.0004 1512.5980 0.0000 0.0000 1759.7200 -7644.0665 298.0584 -9403.7865 -7638.6823 300.6734 4.3931 102.3737 30855.0674 3.1769 3.3323
ENERGY: 1700000 0.2503 2.2115 1.1378 0.0000 -10760.0841 1436.8059 0.0000 0.0000 1809.1918 -7510.4868 306.4378 -9319.6786 -7505.8730 301.0546 -108.3070 -12.7408 30802.2092 2.6462 2.7328
ENERGY: 1900000 1.2669 2.2352 1.9957 0.0000 -10907.1670 1574.9011 0.0000 0.0000 1773.4927 -7553.2753 300.3912 -9326.7680 -7550.6188 300.6356 937.0138 1051.6776 30536.9504 2.9262 2.9874
TCL: Exiting due to exit command.
