Info: SIMULATION PARAMETERS:
Info: TIMESTEP               2
Info: NUMBER OF STEPS        0
Info: STEPS PER CYCLE        10
Info: PERIODIC CELL BASIS 1  36.281 0 0
Info: PERIODIC CELL BASIS 2  0 34.26 0
Info: PERIODIC CELL BASIS 3  0 0 35.856
Info: PERIODIC CELL CENTER   0 0 0
Info: WRAPPING WATERS AROUND PERIODIC BOUNDARIES ON OUTPUT.
Info: WRAPPING ALL CLUSTERS AROUND PERIODIC BOUNDARIES ON OUTPUT.
Info: FIRST LDB TIMESTEP     50
Info: LAST LDB TIMESTEP     -1
Info: HOM BACKGROUND SCALING 1
Info: PME BACKGROUND SCALING 1
Info: MIN ATOMS PER PATCH    40
Info: EMPTY PATCH LOAD       40 ATOMS
Info: INITIAL TEMPERATURE    300
Info: CENTER OF MASS MOVING INITIALLY? NO
Info: DIELECTRIC             1
Info: EXCLUDE                SCALED ONE-FOUR
Info: 1-4 ELECTROSTATICS SCALED BY 0.833333
Info: MODIFIED 1-4 VDW PARAMETERS WILL BE USED
Info: DCD FILENAME           mobley_2371092_equil.dcd
Info: DCD FREQUENCY          100000
Info: DCD FIRST STEP         100000
Info: DCD FILE WILL CONTAIN UNIT CELL DATA
Info: XST FILENAME           mobley_2371092_equil.xst
Info: XST FREQUENCY          100000
Info: NO VELOCITY DCD OUTPUT
Info: NO FORCE DCD OUTPUT
Info: OUTPUT FILENAME        mobley_2371092_equil
Info: BINARY OUTPUT FILES WILL BE USED
Info: RESTART FILENAME       mobley_2371092_equil.restart
Info: RESTART FREQUENCY      100000
Info: BINARY RESTART FILES WILL BE USED
Info: CUTOFF                 9
Info: PAIRLIST DISTANCE      11
Info: PAIRLIST SHRINK RATE   0.01
Info: PAIRLIST GROW RATE     0.01
Info: PAIRLIST TRIGGER       0.3
Info: PAIRLISTS PER CYCLE    2
Info: PAIRLISTS ENABLED
Info: MARGIN                 8
Info: HYDROGEN GROUP CUTOFF  2.5
Info: PATCH DIMENSION        21.5
Info: ENERGY OUTPUT STEPS    100000
Info: ENERGY EVALUATION STEPS    100000
Info: OUTPUT ENERGY PRECISION 4
Info: CROSSTERM ENERGY INCLUDED IN DIHEDRAL
Info: TIMING OUTPUT STEPS    1000000
Info: PRESSURE OUTPUT STEPS  100000
Info: LANGEVIN DYNAMICS ACTIVE
Info: LANGEVIN TEMPERATURE   30
Info: LANGEVIN USING BBK INTEGRATOR
Info: LANGEVIN DAMPING COEFFICIENT IS 1 INVERSE PS
Info: LANGEVIN DYNAMICS APPLIED TO HYDROGENS
Info: LANGEVIN PISTON PRESSURE CONTROL ACTIVE
Info:        TARGET PRESSURE IS 1.01325 BAR
Info:     OSCILLATION PERIOD IS 50 FS
Info:             DECAY TIME IS 25 FS
Info:     PISTON TEMPERATURE IS 300 K
Info:       PRESSURE CONTROL IS GROUP-BASED
Info:    INITIAL STRAIN RATE IS 0 0 0
Info:       CELL FLUCTUATION IS ISOTROPIC
Info: PARTICLE MESH EWALD (PME) ACTIVE
Info: PME TOLERANCE               1e-06
Info: PME EWALD COEFFICIENT       0.348832
Info: PME INTERPOLATION ORDER     4
Info: PME GRID DIMENSIONS         40 36 36
Info: PME MAXIMUM GRID SPACING    1
Info: FULL ELECTROSTATIC EVALUATION FREQUENCY      2
Info: USING VERLET I (r-RESPA) MTS SCHEME.
Info: C1 SPLITTING OF LONG RANGE ELECTROSTATICS
Info: PLACING ATOMS IN PATCHES BY HYDROGEN GROUPS
Info: RIGID BONDS TO HYDROGEN : ALL
Info:         ERROR TOLERANCE : 1e-08
Info:          MAX ITERATIONS : 100
Info: RIGID WATER USING SETTLE ALGORITHM
Info: RANDOM NUMBER SEED     1743214840
Info: USE HYDROGEN BONDS?    NO
Info: Using AMBER format force field!
Info: AMBER PARM FILE        mobley_2371092.prmtop
Info: COORDINATE PDB         mobley_2371092.pdb
Info: Exclusions will be read from PARM file!
Info: SCNB (VDW SCALING)     2
Info: USING ARITHMETIC MEAN TO COMBINE L-J SIGMA PARAMETERS
Info: BINARY COORDINATES     mobley_2371092_min.coor
Info: SUMMARY OF PARAMETERS:
Info: 8 BONDS
Info: 9 ANGLES
Info:   9 HARMONIC
Info:   0 COSINE-BASED
Info: 4 DIHEDRAL
Info: 0 IMPROPER
Info: 0 CROSSTERM
Info: 0 VDW
Info: 36 VDW_PAIRS
Info: 0 NBTHOLE_PAIRS
Info: STRUCTURE SUMMARY:
Info: 2987 ATOMS
Info: 2987 BONDS
Info: 28 ANGLES
Info: 37 DIHEDRALS
Info: 0 IMPROPERS
Info: 0 CROSSTERMS
Info: 3044 EXCLUSIONS
Info: 2979 RIGID BONDS
Info: 5982 DEGREES OF FREEDOM
Info: 998 HYDROGEN GROUPS
Info: 4 ATOMS IN LARGEST HYDROGEN GROUP
Info: 998 MIGRATION GROUPS
Info: 4 ATOMS IN LARGEST MIGRATION GROUP
Info: TOTAL MASS = 17943 amu
Info: TOTAL CHARGE = 0.00029997 e
Info: MASS DENSITY = 0.668537 g/cm^3
Info: ATOM DENSITY = 0.0670204 atoms/A^3
Info: ADDED 0 IMPLICIT EXCLUSIONS
Info: NONBONDED TABLE R-SQUARED SPACING: 0.0625
Info: NONBONDED TABLE SIZE: 705 POINTS
Info: REMOVING COM VELOCITY 0.07047 0.0575661 -0.0275556
TCL: Running for 100000 steps
ETITLE: TS BOND ANGLE DIHED IMPRP ELECT VDW BOUNDARY MISC KINETIC TOTAL TEMP POTENTIAL TOTAL3 TEMPAVG PRESSURE GPRESSURE VOLUME PRESSAVG GPRESSAVG
ENERGY: 0 0.2844 0.4274 0.0754 0.0000 -13809.4827 2423.8425 0.0000 0.0000 1757.2302 -9627.6228 295.6464 -11384.8530 -9627.2725 295.6464 337.6369 378.1253 44568.5440 337.6369 378.1253
ENERGY: 100000 0.4955 0.7739 0.1217 0.0000 -14221.8964 2327.5229 0.0000 0.0000 176.7100 -11716.2724 29.7307 -11892.9824 -11715.5713 30.8322 -1295.7469 -1232.2813 29237.9365 3.7885 3.7004
TCL: Running 100000 steps at 60 kelvin.
TCL: Setting parameter langevinTemp to 60
TCL: Running for 100000 steps
ETITLE: TS BOND ANGLE DIHED IMPRP ELECT VDW BOUNDARY MISC KINETIC TOTAL TEMP POTENTIAL TOTAL3 TEMPAVG PRESSURE GPRESSURE VOLUME PRESSAVG GPRESSAVG
ENERGY: 100000 0.4955 0.7739 0.1217 0.0000 -14221.8964 2327.5229 0.0000 0.0000 176.6221 -11716.3603 29.7159 -11892.9824 -11715.8867 29.7159 -1274.8402 -1232.0930 29237.9365 -1274.8402 -1232.0930
ENERGY: 200000 1.1027 1.3805 0.4801 0.0000 -14100.6200 2303.4896 0.0000 0.0000 358.2334 -11435.9338 60.2712 -11794.1673 -11434.8779 59.9983 -1199.8985 -1159.3246 29292.7580 3.3211 3.3260
TCL: Running 100000 steps at 90 kelvin.
TCL: Setting parameter langevinTemp to 90
TCL: Running for 100000 steps
ETITLE: TS BOND ANGLE DIHED IMPRP ELECT VDW BOUNDARY MISC KINETIC TOTAL TEMP POTENTIAL TOTAL3 TEMPAVG PRESSURE GPRESSURE VOLUME PRESSAVG GPRESSAVG
ENERGY: 200000 1.1027 1.3805 0.4801 0.0000 -14100.6200 2303.4896 0.0000 0.0000 358.0571 -11436.1101 60.2416 -11794.1673 -11435.3497 60.2416 -1220.2917 -1159.8368 29292.7580 -1220.2917 -1159.8368
ENERGY: 300000 0.4610 1.3514 0.4156 0.0000 -14093.2885 2381.4637 0.0000 0.0000 534.0366 -11175.5603 89.8494 -11709.5968 -11174.7721 90.0661 7.9330 52.4548 28898.0016 4.8640 4.7888
TCL: Running 100000 steps at 120 kelvin.
TCL: Setting parameter langevinTemp to 120
TCL: Running for 100000 steps
ETITLE: TS BOND ANGLE DIHED IMPRP ELECT VDW BOUNDARY MISC KINETIC TOTAL TEMP POTENTIAL TOTAL3 TEMPAVG PRESSURE GPRESSURE VOLUME PRESSAVG GPRESSAVG
ENERGY: 300000 0.4610 1.3514 0.4156 0.0000 -14093.2885 2381.4637 0.0000 0.0000 533.7794 -11175.8175 89.8061 -11709.5968 -11174.7444 89.8061 -10.3762 51.7942 28898.0016 -10.3762 51.7942
ENERGY: 400000 0.9168 2.6705 1.3573 0.0000 -13953.3596 2363.3746 0.0000 0.0000 708.2720 -10876.7683 119.1637 -11585.0403 -10874.3868 119.9384 46.9144 60.4753 29150.9187 4.8446 4.8798
TCL: Running 100000 steps at 150 kelvin.
TCL: Setting parameter langevinTemp to 150
TCL: Running for 100000 steps
ETITLE: TS BOND ANGLE DIHED IMPRP ELECT VDW BOUNDARY MISC KINETIC TOTAL TEMP POTENTIAL TOTAL3 TEMPAVG PRESSURE GPRESSURE VOLUME PRESSAVG GPRESSAVG
ENERGY: 400000 0.9168 2.6705 1.3573 0.0000 -13953.3596 2363.3746 0.0000 0.0000 707.9309 -10877.1095 119.1063 -11585.0403 -10875.7274 119.1063 15.5460 60.9117 29150.9187 15.5460 60.9117
ENERGY: 500000 0.9568 1.8940 0.5142 0.0000 -13620.7836 2242.7864 0.0000 0.0000 879.9893 -10494.6428 148.0544 -11374.6322 -10493.6044 149.9368 -13.7334 81.3200 28847.0025 4.1192 3.9887
TCL: Running 100000 steps at 180 kelvin.
TCL: Setting parameter langevinTemp to 180
TCL: Running for 100000 steps
ETITLE: TS BOND ANGLE DIHED IMPRP ELECT VDW BOUNDARY MISC KINETIC TOTAL TEMP POTENTIAL TOTAL3 TEMPAVG PRESSURE GPRESSURE VOLUME PRESSAVG GPRESSAVG
ENERGY: 500000 0.9568 1.8940 0.5142 0.0000 -13620.7836 2242.7864 0.0000 0.0000 879.5413 -10495.0909 147.9790 -11374.6322 -10493.4788 147.9790 31.4731 80.9377 28847.0025 31.4731 80.9377
ENERGY: 600000 1.5049 3.2282 1.1091 0.0000 -13442.6840 2301.0802 0.0000 0.0000 1069.8965 -10065.8650 180.0055 -11135.7615 -10063.1077 180.0004 857.0187 1021.2644 29505.6099 3.6813 3.7890
TCL: Running 100000 steps at 210 kelvin.
TCL: Setting parameter langevinTemp to 210
TCL: Running for 100000 steps
ETITLE: TS BOND ANGLE DIHED IMPRP ELECT VDW BOUNDARY MISC KINETIC TOTAL TEMP POTENTIAL TOTAL3 TEMPAVG PRESSURE GPRESSURE VOLUME PRESSAVG GPRESSAVG
ENERGY: 600000 1.5049 3.2282 1.1091 0.0000 -13442.6840 2301.0802 0.0000 0.0000 1069.3715 -10066.3900 179.9172 -11135.7615 -10064.6521 179.9172 943.9721 1021.2461 29505.6099 943.9721 1021.2461
ENERGY: 700000 1.5759 1.5518 1.5102 0.0000 -12652.1650 1958.6741 0.0000 0.0000 1220.8847 -9467.9684 205.4086 -10688.8531 -9465.8664 209.6341 1.1090 100.8214 29270.3845 2.7695 2.5985
TCL: Running 100000 steps at 240 kelvin.
TCL: Setting parameter langevinTemp to 240
TCL: Running for 100000 steps
ETITLE: TS BOND ANGLE DIHED IMPRP ELECT VDW BOUNDARY MISC KINETIC TOTAL TEMP POTENTIAL TOTAL3 TEMPAVG PRESSURE GPRESSURE VOLUME PRESSAVG GPRESSAVG
ENERGY: 700000 1.5759 1.5518 1.5102 0.0000 -12652.1650 1958.6741 0.0000 0.0000 1220.2806 -9468.5725 205.3070 -10688.8531 -9466.1710 205.3070 21.0842 99.2626 29270.3845 21.0842 99.2626
ENERGY: 800000 2.3054 5.6130 2.7176 0.0000 -11935.0771 1753.4846 0.0000 0.0000 1410.1709 -8760.7856 237.2552 -10170.9565 -8758.0578 239.9582 307.6545 386.1467 29123.0379 2.7790 2.7748
TCL: Running 100000 steps at 270 kelvin.
TCL: Setting parameter langevinTemp to 270
TCL: Running for 100000 steps
ETITLE: TS BOND ANGLE DIHED IMPRP ELECT VDW BOUNDARY MISC KINETIC TOTAL TEMP POTENTIAL TOTAL3 TEMPAVG PRESSURE GPRESSURE VOLUME PRESSAVG GPRESSAVG
ENERGY: 800000 2.3054 5.6130 2.7176 0.0000 -11935.0771 1753.4846 0.0000 0.0000 1409.4756 -8761.4808 237.1382 -10170.9565 -8759.1941 237.1382 301.6175 385.8605 29123.0379 301.6175 385.8605
ENERGY: 900000 5.8765 7.3426 1.5516 0.0000 -11281.2363 1487.1295 0.0000 0.0000 1646.0969 -8133.2392 276.9487 -9779.3361 -8129.8884 269.8719 -843.6221 -681.8996 30010.4866 3.4816 3.3525
TCL: Running 1000000 steps at 300 kelvin.
TCL: Setting parameter langevinTemp to 300
TCL: Running for 1000000 steps
ETITLE: TS BOND ANGLE DIHED IMPRP ELECT VDW BOUNDARY MISC KINETIC TOTAL TEMP POTENTIAL TOTAL3 TEMPAVG PRESSURE GPRESSURE VOLUME PRESSAVG GPRESSAVG
ENERGY: 900000 5.8765 7.3426 1.5516 0.0000 -11281.2363 1487.1295 0.0000 0.0000 1645.2841 -8134.0520 276.8120 -9779.3361 -8130.7013 276.8120 -767.1304 -683.5470 30010.4866 -767.1304 -683.5470
ENERGY: 1100000 0.6432 3.5082 3.6212 0.0000 -10784.2240 1336.0579 0.0000 0.0000 1740.2097 -7700.1839 292.7828 -9440.3936 -7695.6602 299.5936 -1108.3820 -1059.5518 30666.8797 4.2943 4.3028
ENERGY: 1300000 2.4198 4.7935 1.3684 0.0000 -10943.1056 1517.8048 0.0000 0.0000 1729.9059 -7686.8133 291.0492 -9416.7192 -7683.7021 299.8223 194.2295 249.1019 30973.3441 3.2072 3.2256
ENERGY: 1500000 2.5031 4.6304 3.1950 0.0000 -10827.1459 1485.5257 0.0000 0.0000 1757.3341 -7573.9577 295.6639 -9331.2918 -7568.4802 300.2261 66.5441 104.1072 31325.5136 3.6228 3.5493
ENERGY: 1700000 1.0154 6.4925 1.1238 0.0000 -10720.6717 1417.2187 0.0000 0.0000 1746.1039 -7548.7174 293.7745 -9294.8213 -7546.5441 300.1623 -17.0150 66.0107 30792.5675 2.6238 2.6112
ENERGY: 1900000 3.6243 3.3336 1.9212 0.0000 -10830.8160 1434.7915 0.0000 0.0000 1795.7257 -7591.4197 302.1231 -9387.1455 -7588.0646 299.6167 -270.6760 -159.2198 30928.7072 4.2571 4.2494
TCL: Exiting due to exit command.
