Info: SIMULATION PARAMETERS:
Info: TIMESTEP               2
Info: NUMBER OF STEPS        0
Info: STEPS PER CYCLE        10
Info: PERIODIC CELL BASIS 1  34.986 0 0
Info: PERIODIC CELL BASIS 2  0 36.451 0
Info: PERIODIC CELL BASIS 3  0 0 34.954
Info: PERIODIC CELL CENTER   0 0 0
Info: WRAPPING WATERS AROUND PERIODIC BOUNDARIES ON OUTPUT.
Info: WRAPPING ALL CLUSTERS AROUND PERIODIC BOUNDARIES ON OUTPUT.
Info: FIRST LDB TIMESTEP     50
Info: LAST LDB TIMESTEP     -1
Info: HOM BACKGROUND SCALING 1
Info: PME BACKGROUND SCALING 1
Info: MIN ATOMS PER PATCH    40
Info: EMPTY PATCH LOAD       40 ATOMS
Info: INITIAL TEMPERATURE    300
Info: CENTER OF MASS MOVING INITIALLY? NO
Info: DIELECTRIC             1
Info: EXCLUDE                SCALED ONE-FOUR
Info: 1-4 ELECTROSTATICS SCALED BY 0.833333
Info: MODIFIED 1-4 VDW PARAMETERS WILL BE USED
Info: DCD FILENAME           mobley_9624458_equil.dcd
Info: DCD FREQUENCY          100000
Info: DCD FIRST STEP         100000
Info: DCD FILE WILL CONTAIN UNIT CELL DATA
Info: XST FILENAME           mobley_9624458_equil.xst
Info: XST FREQUENCY          100000
Info: NO VELOCITY DCD OUTPUT
Info: NO FORCE DCD OUTPUT
Info: OUTPUT FILENAME        mobley_9624458_equil
Info: BINARY OUTPUT FILES WILL BE USED
Info: RESTART FILENAME       mobley_9624458_equil.restart
Info: RESTART FREQUENCY      100000
Info: BINARY RESTART FILES WILL BE USED
Info: CUTOFF                 9
Info: PAIRLIST DISTANCE      11
Info: PAIRLIST SHRINK RATE   0.01
Info: PAIRLIST GROW RATE     0.01
Info: PAIRLIST TRIGGER       0.3
Info: PAIRLISTS PER CYCLE    2
Info: PAIRLISTS ENABLED
Info: MARGIN                 8
Info: HYDROGEN GROUP CUTOFF  2.5
Info: PATCH DIMENSION        21.5
Info: ENERGY OUTPUT STEPS    100000
Info: ENERGY EVALUATION STEPS    100000
Info: OUTPUT ENERGY PRECISION 4
Info: CROSSTERM ENERGY INCLUDED IN DIHEDRAL
Info: TIMING OUTPUT STEPS    1000000
Info: PRESSURE OUTPUT STEPS  100000
Info: LANGEVIN DYNAMICS ACTIVE
Info: LANGEVIN TEMPERATURE   30
Info: LANGEVIN USING BBK INTEGRATOR
Info: LANGEVIN DAMPING COEFFICIENT IS 1 INVERSE PS
Info: LANGEVIN DYNAMICS APPLIED TO HYDROGENS
Info: LANGEVIN PISTON PRESSURE CONTROL ACTIVE
Info:        TARGET PRESSURE IS 1.01325 BAR
Info:     OSCILLATION PERIOD IS 50 FS
Info:             DECAY TIME IS 25 FS
Info:     PISTON TEMPERATURE IS 300 K
Info:       PRESSURE CONTROL IS GROUP-BASED
Info:    INITIAL STRAIN RATE IS 0 0 0
Info:       CELL FLUCTUATION IS ISOTROPIC
Info: PARTICLE MESH EWALD (PME) ACTIVE
Info: PME TOLERANCE               1e-06
Info: PME EWALD COEFFICIENT       0.348832
Info: PME INTERPOLATION ORDER     4
Info: PME GRID DIMENSIONS         36 40 36
Info: PME MAXIMUM GRID SPACING    1
Info: FULL ELECTROSTATIC EVALUATION FREQUENCY      2
Info: USING VERLET I (r-RESPA) MTS SCHEME.
Info: C1 SPLITTING OF LONG RANGE ELECTROSTATICS
Info: PLACING ATOMS IN PATCHES BY HYDROGEN GROUPS
Info: RIGID BONDS TO HYDROGEN : ALL
Info:         ERROR TOLERANCE : 1e-08
Info:          MAX ITERATIONS : 100
Info: RIGID WATER USING SETTLE ALGORITHM
Info: RANDOM NUMBER SEED     1743238020
Info: USE HYDROGEN BONDS?    NO
Info: Using AMBER format force field!
Info: AMBER PARM FILE        mobley_9624458.prmtop
Info: COORDINATE PDB         mobley_9624458.pdb
Info: Exclusions will be read from PARM file!
Info: SCNB (VDW SCALING)     2
Info: USING ARITHMETIC MEAN TO COMBINE L-J SIGMA PARAMETERS
Info: BINARY COORDINATES     mobley_9624458_min.coor
Info: SUMMARY OF PARAMETERS:
Info: 6 BONDS
Info: 7 ANGLES
Info:   7 HARMONIC
Info:   0 COSINE-BASED
Info: 3 DIHEDRAL
Info: 0 IMPROPER
Info: 0 CROSSTERM
Info: 0 VDW
Info: 21 VDW_PAIRS
Info: 0 NBTHOLE_PAIRS
Info: STRUCTURE SUMMARY:
Info: 2909 ATOMS
Info: 2908 BONDS
Info: 18 ANGLES
Info: 22 DIHEDRALS
Info: 0 IMPROPERS
Info: 0 CROSSTERMS
Info: 2944 EXCLUSIONS
Info: 2904 RIGID BONDS
Info: 5823 DEGREES OF FREEDOM
Info: 971 HYDROGEN GROUPS
Info: 3 ATOMS IN LARGEST HYDROGEN GROUP
Info: 971 MIGRATION GROUPS
Info: 3 ATOMS IN LARGEST MIGRATION GROUP
Info: TOTAL MASS = 17516.4 amu
Info: TOTAL CHARGE = 0 e
Info: MASS DENSITY = 0.652536 g/cm^3
Info: ATOM DENSITY = 0.0652594 atoms/A^3
Info: ADDED 0 IMPLICIT EXCLUSIONS
Info: NONBONDED TABLE R-SQUARED SPACING: 0.0625
Info: NONBONDED TABLE SIZE: 705 POINTS
Info: REMOVING COM VELOCITY 0.184318 -0.0190863 0.101751
TCL: Running for 100000 steps
ETITLE: TS BOND ANGLE DIHED IMPRP ELECT VDW BOUNDARY MISC KINETIC TOTAL TEMP POTENTIAL TOTAL3 TEMPAVG PRESSURE GPRESSURE VOLUME PRESSAVG GPRESSAVG
ENERGY: 0 0.0527 0.3525 0.7627 0.0000 -13491.2174 2376.0084 0.0000 0.0000 1696.4336 -9417.6075 293.2111 -11114.0411 -9417.2759 293.2111 347.6541 387.4580 44575.9514 347.6541 387.4580
ENERGY: 100000 0.0904 0.3794 1.0141 0.0000 -13918.2718 2330.3627 0.0000 0.0000 179.1902 -11407.2352 30.9712 -11586.4253 -11406.6125 30.9423 -1087.0085 -1038.0700 28896.8196 3.7833 3.7934
TCL: Running 100000 steps at 60 kelvin.
TCL: Setting parameter langevinTemp to 60
TCL: Running for 100000 steps
ETITLE: TS BOND ANGLE DIHED IMPRP ELECT VDW BOUNDARY MISC KINETIC TOTAL TEMP POTENTIAL TOTAL3 TEMPAVG PRESSURE GPRESSURE VOLUME PRESSAVG GPRESSAVG
ENERGY: 100000 0.0904 0.3794 1.0141 0.0000 -13918.2718 2330.3627 0.0000 0.0000 179.1051 -11407.3202 30.9565 -11586.4253 -11406.7984 30.9565 -1093.7667 -1038.1115 28896.8196 -1093.7667 -1038.1115
ENERGY: 200000 0.1762 1.2176 0.9362 0.0000 -13864.0460 2370.4414 0.0000 0.0000 354.6720 -11136.6026 61.3014 -11491.2746 -11135.3380 60.0159 -2.2830 56.6036 28306.9837 5.0706 5.0301
TCL: Running 100000 steps at 90 kelvin.
TCL: Setting parameter langevinTemp to 90
TCL: Running for 100000 steps
ETITLE: TS BOND ANGLE DIHED IMPRP ELECT VDW BOUNDARY MISC KINETIC TOTAL TEMP POTENTIAL TOTAL3 TEMPAVG PRESSURE GPRESSURE VOLUME PRESSAVG GPRESSAVG
ENERGY: 200000 0.1762 1.2176 0.9362 0.0000 -13864.0460 2370.4414 0.0000 0.0000 354.4969 -11136.7777 61.2711 -11491.2746 -11136.2971 61.2711 -4.5664 57.3193 28306.9837 -4.5664 57.3193
ENERGY: 300000 0.8956 1.5068 0.8984 0.0000 -13750.4046 2311.1266 0.0000 0.0000 525.9212 -10910.0560 90.9001 -11435.9772 -10908.4982 89.9572 -397.8652 -355.6519 28337.1197 4.1316 4.0435
TCL: Running 100000 steps at 120 kelvin.
TCL: Setting parameter langevinTemp to 120
TCL: Running for 100000 steps
ETITLE: TS BOND ANGLE DIHED IMPRP ELECT VDW BOUNDARY MISC KINETIC TOTAL TEMP POTENTIAL TOTAL3 TEMPAVG PRESSURE GPRESSURE VOLUME PRESSAVG GPRESSAVG
ENERGY: 300000 0.8956 1.5068 0.8984 0.0000 -13750.4046 2311.1266 0.0000 0.0000 525.6632 -10910.3140 90.8555 -11435.9772 -10909.1436 90.8555 -409.2770 -356.0823 28337.1197 -409.2770 -356.0823
ENERGY: 400000 0.7178 1.0779 0.7431 0.0000 -13548.7368 2247.1982 0.0000 0.0000 687.1650 -10611.8348 118.7694 -11298.9998 -10610.4348 119.8911 -519.8644 -468.4431 28702.5661 4.5116 4.5892
TCL: Running 100000 steps at 150 kelvin.
TCL: Setting parameter langevinTemp to 150
TCL: Running for 100000 steps
ETITLE: TS BOND ANGLE DIHED IMPRP ELECT VDW BOUNDARY MISC KINETIC TOTAL TEMP POTENTIAL TOTAL3 TEMPAVG PRESSURE GPRESSURE VOLUME PRESSAVG GPRESSAVG
ENERGY: 400000 0.7178 1.0779 0.7431 0.0000 -13548.7368 2247.1982 0.0000 0.0000 686.8104 -10612.1894 118.7081 -11298.9998 -10610.7372 118.7081 -518.2917 -469.0332 28702.5661 -518.2917 -469.0332
ENERGY: 500000 0.3413 2.8102 0.8129 0.0000 -13424.4143 2308.0774 0.0000 0.0000 879.1756 -10233.1969 151.9565 -11112.3725 -10231.4034 149.9058 783.1155 796.1997 28368.1145 3.9064 3.8904
TCL: Running 100000 steps at 180 kelvin.
TCL: Setting parameter langevinTemp to 180
TCL: Running for 100000 steps
ETITLE: TS BOND ANGLE DIHED IMPRP ELECT VDW BOUNDARY MISC KINETIC TOTAL TEMP POTENTIAL TOTAL3 TEMPAVG PRESSURE GPRESSURE VOLUME PRESSAVG GPRESSAVG
ENERGY: 500000 0.3413 2.8102 0.8129 0.0000 -13424.4143 2308.0774 0.0000 0.0000 878.7443 -10233.6282 151.8819 -11112.3725 -10232.2296 151.8819 754.7845 796.4850 28368.1145 754.7845 796.4850
ENERGY: 600000 1.0827 1.1912 1.3071 0.0000 -12887.8558 2067.1700 0.0000 0.0000 1065.7888 -9751.3160 184.2107 -10817.1048 -9748.8972 179.8420 -297.4074 -201.3384 28691.1459 2.7221 2.6683
TCL: Running 100000 steps at 210 kelvin.
TCL: Setting parameter langevinTemp to 210
TCL: Running for 100000 steps
ETITLE: TS BOND ANGLE DIHED IMPRP ELECT VDW BOUNDARY MISC KINETIC TOTAL TEMP POTENTIAL TOTAL3 TEMPAVG PRESSURE GPRESSURE VOLUME PRESSAVG GPRESSAVG
ENERGY: 600000 1.0827 1.1912 1.3071 0.0000 -12887.8558 2067.1700 0.0000 0.0000 1065.3028 -9751.8020 184.1267 -10817.1048 -9749.3190 184.1267 -248.6178 -201.5835 28691.1459 -248.6178 -201.5835
ENERGY: 700000 0.5353 6.7389 1.9109 0.0000 -12224.5858 1875.6669 0.0000 0.0000 1188.3743 -9151.3595 205.3983 -10339.7338 -9148.4187 210.0067 49.6736 164.5952 28503.4259 3.5278 3.5802
TCL: Running 100000 steps at 240 kelvin.
TCL: Setting parameter langevinTemp to 240
TCL: Running for 100000 steps
ETITLE: TS BOND ANGLE DIHED IMPRP ELECT VDW BOUNDARY MISC KINETIC TOTAL TEMP POTENTIAL TOTAL3 TEMPAVG PRESSURE GPRESSURE VOLUME PRESSAVG GPRESSAVG
ENERGY: 700000 0.5353 6.7389 1.9109 0.0000 -12224.5858 1875.6669 0.0000 0.0000 1187.7791 -9151.9547 205.2954 -10339.7338 -9149.4102 205.2954 83.2950 165.1770 28503.4259 83.2950 165.1770
ENERGY: 800000 0.9147 2.0225 2.5175 0.0000 -11594.6083 1635.8376 0.0000 0.0000 1381.3168 -8571.9991 238.7464 -9953.3159 -8568.8675 240.5197 -528.4425 -465.2555 28655.2197 3.8287 3.8628
TCL: Running 100000 steps at 270 kelvin.
TCL: Setting parameter langevinTemp to 270
TCL: Running for 100000 steps
ETITLE: TS BOND ANGLE DIHED IMPRP ELECT VDW BOUNDARY MISC KINETIC TOTAL TEMP POTENTIAL TOTAL3 TEMPAVG PRESSURE GPRESSURE VOLUME PRESSAVG GPRESSAVG
ENERGY: 800000 0.9147 2.0225 2.5175 0.0000 -11594.6083 1635.8376 0.0000 0.0000 1380.6055 -8572.7105 238.6235 -9953.3159 -8569.8810 238.6235 -545.2467 -464.1350 28655.2197 -545.2467 -464.1350
ENERGY: 900000 0.3586 3.3948 3.1776 0.0000 -11039.9062 1598.0371 0.0000 0.0000 1571.2985 -7863.6396 271.5828 -9434.9381 -7859.8200 269.9257 775.0391 811.9001 29084.1591 4.9281 4.8615
TCL: Running 1000000 steps at 300 kelvin.
TCL: Setting parameter langevinTemp to 300
TCL: Running for 1000000 steps
ETITLE: TS BOND ANGLE DIHED IMPRP ELECT VDW BOUNDARY MISC KINETIC TOTAL TEMP POTENTIAL TOTAL3 TEMPAVG PRESSURE GPRESSURE VOLUME PRESSAVG GPRESSAVG
ENERGY: 900000 0.3586 3.3948 3.1776 0.0000 -11039.9062 1598.0371 0.0000 0.0000 1570.4942 -7864.4439 271.4438 -9434.9381 -7862.2352 271.4438 730.9250 812.7216 29084.1591 730.9250 812.7216
ENERGY: 1100000 0.6068 3.2383 1.4729 0.0000 -10526.0442 1444.3893 0.0000 0.0000 1716.0891 -7360.2478 296.6084 -9076.3369 -7359.1165 300.1260 483.5319 578.5135 29819.4566 3.0337 3.1307
ENERGY: 1300000 1.0516 3.1307 2.5148 0.0000 -10589.4363 1437.5402 0.0000 0.0000 1717.1871 -7428.0118 296.7982 -9145.1989 -7424.5592 300.4260 128.6297 185.6419 29975.9813 4.5282 4.6261
ENERGY: 1500000 1.2770 2.3311 1.1299 0.0000 -10442.7953 1378.7156 0.0000 0.0000 1703.8320 -7355.5097 294.4899 -9059.3417 -7351.7142 300.7931 -238.6398 -163.8034 30219.7768 2.8678 3.0072
ENERGY: 1700000 0.6870 3.7112 0.9855 0.0000 -10468.6616 1338.2792 0.0000 0.0000 1779.0198 -7345.9788 307.4853 -9124.9986 -7342.3767 300.2888 -836.1012 -692.4111 30227.3987 1.6837 1.8637
ENERGY: 1900000 1.8379 3.9227 1.2963 0.0000 -10571.7813 1386.7675 0.0000 0.0000 1733.7962 -7444.1608 299.6689 -9177.9570 -7441.3920 300.5403 -304.1537 -267.0701 30052.5451 2.5517 2.5597
TCL: Exiting due to exit command.
