Info: SIMULATION PARAMETERS:
Info: TIMESTEP               2
Info: NUMBER OF STEPS        0
Info: STEPS PER CYCLE        10
Info: PERIODIC CELL BASIS 1  35.01 0 0
Info: PERIODIC CELL BASIS 2  0 35.411 0
Info: PERIODIC CELL BASIS 3  0 0 35.644
Info: PERIODIC CELL CENTER   0 0 0
Info: WRAPPING WATERS AROUND PERIODIC BOUNDARIES ON OUTPUT.
Info: WRAPPING ALL CLUSTERS AROUND PERIODIC BOUNDARIES ON OUTPUT.
Info: FIRST LDB TIMESTEP     50
Info: LAST LDB TIMESTEP     -1
Info: HOM BACKGROUND SCALING 1
Info: PME BACKGROUND SCALING 1
Info: MIN ATOMS PER PATCH    40
Info: EMPTY PATCH LOAD       40 ATOMS
Info: INITIAL TEMPERATURE    300
Info: CENTER OF MASS MOVING INITIALLY? NO
Info: DIELECTRIC             1
Info: EXCLUDE                SCALED ONE-FOUR
Info: 1-4 ELECTROSTATICS SCALED BY 0.833333
Info: MODIFIED 1-4 VDW PARAMETERS WILL BE USED
Info: DCD FILENAME           mobley_3761215_equil.dcd
Info: DCD FREQUENCY          100000
Info: DCD FIRST STEP         100000
Info: DCD FILE WILL CONTAIN UNIT CELL DATA
Info: XST FILENAME           mobley_3761215_equil.xst
Info: XST FREQUENCY          100000
Info: NO VELOCITY DCD OUTPUT
Info: NO FORCE DCD OUTPUT
Info: OUTPUT FILENAME        mobley_3761215_equil
Info: BINARY OUTPUT FILES WILL BE USED
Info: RESTART FILENAME       mobley_3761215_equil.restart
Info: RESTART FREQUENCY      100000
Info: BINARY RESTART FILES WILL BE USED
Info: CUTOFF                 9
Info: PAIRLIST DISTANCE      11
Info: PAIRLIST SHRINK RATE   0.01
Info: PAIRLIST GROW RATE     0.01
Info: PAIRLIST TRIGGER       0.3
Info: PAIRLISTS PER CYCLE    2
Info: PAIRLISTS ENABLED
Info: MARGIN                 8
Info: HYDROGEN GROUP CUTOFF  2.5
Info: PATCH DIMENSION        21.5
Info: ENERGY OUTPUT STEPS    100000
Info: ENERGY EVALUATION STEPS    100000
Info: OUTPUT ENERGY PRECISION 4
Info: CROSSTERM ENERGY INCLUDED IN DIHEDRAL
Info: TIMING OUTPUT STEPS    1000000
Info: PRESSURE OUTPUT STEPS  100000
Info: LANGEVIN DYNAMICS ACTIVE
Info: LANGEVIN TEMPERATURE   30
Info: LANGEVIN USING BBK INTEGRATOR
Info: LANGEVIN DAMPING COEFFICIENT IS 1 INVERSE PS
Info: LANGEVIN DYNAMICS APPLIED TO HYDROGENS
Info: LANGEVIN PISTON PRESSURE CONTROL ACTIVE
Info:        TARGET PRESSURE IS 1.01325 BAR
Info:     OSCILLATION PERIOD IS 50 FS
Info:             DECAY TIME IS 25 FS
Info:     PISTON TEMPERATURE IS 300 K
Info:       PRESSURE CONTROL IS GROUP-BASED
Info:    INITIAL STRAIN RATE IS 0 0 0
Info:       CELL FLUCTUATION IS ISOTROPIC
Info: PARTICLE MESH EWALD (PME) ACTIVE
Info: PME TOLERANCE               1e-06
Info: PME EWALD COEFFICIENT       0.348832
Info: PME INTERPOLATION ORDER     4
Info: PME GRID DIMENSIONS         36 36 36
Info: PME MAXIMUM GRID SPACING    1
Info: FULL ELECTROSTATIC EVALUATION FREQUENCY      2
Info: USING VERLET I (r-RESPA) MTS SCHEME.
Info: C1 SPLITTING OF LONG RANGE ELECTROSTATICS
Info: PLACING ATOMS IN PATCHES BY HYDROGEN GROUPS
Info: RIGID BONDS TO HYDROGEN : ALL
Info:         ERROR TOLERANCE : 1e-08
Info:          MAX ITERATIONS : 100
Info: RIGID WATER USING SETTLE ALGORITHM
Info: RANDOM NUMBER SEED     1743157736
Info: USE HYDROGEN BONDS?    NO
Info: Using AMBER format force field!
Info: AMBER PARM FILE        mobley_3761215.prmtop
Info: COORDINATE PDB         mobley_3761215.pdb
Info: Exclusions will be read from PARM file!
Info: SCNB (VDW SCALING)     2
Info: USING ARITHMETIC MEAN TO COMBINE L-J SIGMA PARAMETERS
Info: BINARY COORDINATES     mobley_3761215_min.coor
Info: SUMMARY OF PARAMETERS:
Info: 5 BONDS
Info: 4 ANGLES
Info:   4 HARMONIC
Info:   0 COSINE-BASED
Info: 2 DIHEDRAL
Info: 0 IMPROPER
Info: 0 CROSSTERM
Info: 0 VDW
Info: 15 VDW_PAIRS
Info: 0 NBTHOLE_PAIRS
Info: STRUCTURE SUMMARY:
Info: 2954 ATOMS
Info: 2953 BONDS
Info: 12 ANGLES
Info: 18 DIHEDRALS
Info: 0 IMPROPERS
Info: 0 CROSSTERMS
Info: 2974 EXCLUSIONS
Info: 2949 RIGID BONDS
Info: 5913 DEGREES OF FREEDOM
Info: 987 HYDROGEN GROUPS
Info: 4 ATOMS IN LARGEST HYDROGEN GROUP
Info: 987 MIGRATION GROUPS
Info: 4 ATOMS IN LARGEST MIGRATION GROUP
Info: TOTAL MASS = 17825.1 amu
Info: TOTAL CHARGE = 0.000100031 e
Info: MASS DENSITY = 0.669845 g/cm^3
Info: ATOM DENSITY = 0.0668488 atoms/A^3
Info: ADDED 0 IMPLICIT EXCLUSIONS
Info: NONBONDED TABLE R-SQUARED SPACING: 0.0625
Info: NONBONDED TABLE SIZE: 705 POINTS
Info: REMOVING COM VELOCITY 0.0180227 0.1567 -0.173213
TCL: Running for 100000 steps
ETITLE: TS BOND ANGLE DIHED IMPRP ELECT VDW BOUNDARY MISC KINETIC TOTAL TEMP POTENTIAL TOTAL3 TEMPAVG PRESSURE GPRESSURE VOLUME PRESSAVG GPRESSAVG
ENERGY: 0 0.0018 0.0935 2.2500 0.0000 -13696.9685 2410.1229 0.0000 0.0000 1714.5746 -9569.9257 291.8360 -11284.5002 -9569.6188 291.8360 481.5872 516.0620 44189.2608 481.5872 516.0620
ENERGY: 100000 0.1726 0.2141 2.2499 0.0000 -14417.5420 2600.8698 0.0000 0.0000 175.2082 -11638.8274 29.8220 -11814.0356 -11638.5627 30.8542 1117.1269 1169.0624 28453.0068 3.0699 3.0988
TCL: Running 100000 steps at 60 kelvin.
TCL: Setting parameter langevinTemp to 60
TCL: Running for 100000 steps
ETITLE: TS BOND ANGLE DIHED IMPRP ELECT VDW BOUNDARY MISC KINETIC TOTAL TEMP POTENTIAL TOTAL3 TEMPAVG PRESSURE GPRESSURE VOLUME PRESSAVG GPRESSAVG
ENERGY: 100000 0.1726 0.2141 2.2499 0.0000 -14417.5420 2600.8698 0.0000 0.0000 175.1241 -11638.9114 29.8077 -11814.0356 -11638.5783 29.8077 1129.1748 1168.7588 28453.0068 1129.1748 1168.7588
ENERGY: 200000 0.0427 0.9004 2.2504 0.0000 -14250.3180 2522.4908 0.0000 0.0000 349.2770 -11375.3566 59.4501 -11724.6337 -11374.3275 59.9859 810.1796 855.0072 28352.6872 5.0702 4.9938
TCL: Running 100000 steps at 90 kelvin.
TCL: Setting parameter langevinTemp to 90
TCL: Running for 100000 steps
ETITLE: TS BOND ANGLE DIHED IMPRP ELECT VDW BOUNDARY MISC KINETIC TOTAL TEMP POTENTIAL TOTAL3 TEMPAVG PRESSURE GPRESSURE VOLUME PRESSAVG GPRESSAVG
ENERGY: 200000 0.0427 0.9004 2.2504 0.0000 -14250.3180 2522.4908 0.0000 0.0000 349.0986 -11375.5351 59.4197 -11724.6337 -11375.0113 59.4197 806.8758 855.0319 28352.6872 806.8758 855.0319
ENERGY: 300000 0.3467 0.2806 2.2503 0.0000 -13974.2760 2362.9753 0.0000 0.0000 525.0067 -11083.4163 89.3609 -11608.4231 -11082.2286 89.8548 -103.7795 -55.6800 28603.7888 4.3378 4.2692
TCL: Running 100000 steps at 120 kelvin.
TCL: Setting parameter langevinTemp to 120
TCL: Running for 100000 steps
ETITLE: TS BOND ANGLE DIHED IMPRP ELECT VDW BOUNDARY MISC KINETIC TOTAL TEMP POTENTIAL TOTAL3 TEMPAVG PRESSURE GPRESSURE VOLUME PRESSAVG GPRESSAVG
ENERGY: 300000 0.3467 0.2806 2.2503 0.0000 -13974.2760 2362.9753 0.0000 0.0000 524.7441 -11083.6790 89.3162 -11608.4231 -11082.4128 89.3162 -107.9392 -55.8473 28603.7888 -107.9392 -55.8473
ENERGY: 400000 0.4823 1.6623 2.2482 0.0000 -13931.0122 2440.0244 0.0000 0.0000 702.8565 -10783.7384 119.6325 -11486.5949 -10782.1775 120.1127 1049.5546 1075.4890 28503.1009 3.6350 3.5929
TCL: Running 100000 steps at 150 kelvin.
TCL: Setting parameter langevinTemp to 150
TCL: Running for 100000 steps
ETITLE: TS BOND ANGLE DIHED IMPRP ELECT VDW BOUNDARY MISC KINETIC TOTAL TEMP POTENTIAL TOTAL3 TEMPAVG PRESSURE GPRESSURE VOLUME PRESSAVG GPRESSAVG
ENERGY: 400000 0.4823 1.6623 2.2482 0.0000 -13931.0122 2440.0244 0.0000 0.0000 702.5106 -10784.0843 119.5736 -11486.5949 -10782.7653 119.5736 1014.2385 1075.3473 28503.1009 1014.2385 1075.3473
ENERGY: 500000 0.1833 1.7903 2.2502 0.0000 -13548.1911 2240.2540 0.0000 0.0000 903.0182 -10400.6950 153.7018 -11303.7132 -10399.7220 149.7192 -81.9157 12.9902 28847.6052 3.1098 3.1654
TCL: Running 100000 steps at 180 kelvin.
TCL: Setting parameter langevinTemp to 180
TCL: Running for 100000 steps
ETITLE: TS BOND ANGLE DIHED IMPRP ELECT VDW BOUNDARY MISC KINETIC TOTAL TEMP POTENTIAL TOTAL3 TEMPAVG PRESSURE GPRESSURE VOLUME PRESSAVG GPRESSAVG
ENERGY: 500000 0.1833 1.7903 2.2502 0.0000 -13548.1911 2240.2540 0.0000 0.0000 902.5830 -10401.1302 153.6278 -11303.7132 -10399.4639 153.6278 -43.2304 12.6247 28847.6052 -43.2304 12.6247
ENERGY: 600000 0.2278 1.9435 2.2517 0.0000 -13165.3621 2134.8577 0.0000 0.0000 1049.2783 -9976.8030 178.5966 -11026.0813 -9973.7303 180.1515 -20.6155 23.4788 29062.6456 1.8298 1.8040
TCL: Running 100000 steps at 210 kelvin.
TCL: Setting parameter langevinTemp to 210
TCL: Running for 100000 steps
ETITLE: TS BOND ANGLE DIHED IMPRP ELECT VDW BOUNDARY MISC KINETIC TOTAL TEMP POTENTIAL TOTAL3 TEMPAVG PRESSURE GPRESSURE VOLUME PRESSAVG GPRESSAVG
ENERGY: 600000 0.2278 1.9435 2.2517 0.0000 -13165.3621 2134.8577 0.0000 0.0000 1048.7688 -9977.3126 178.5099 -11026.0813 -9975.0862 178.5099 -51.6252 24.5895 29062.6456 -51.6252 24.5895
ENERGY: 700000 1.2857 1.0661 2.2493 0.0000 -12424.3069 1849.5006 0.0000 0.0000 1216.1905 -9354.0147 207.0066 -10570.2052 -9352.2111 210.3138 -583.4146 -494.5213 28972.1244 2.9594 3.0271
TCL: Running 100000 steps at 240 kelvin.
TCL: Setting parameter langevinTemp to 240
TCL: Running for 100000 steps
ETITLE: TS BOND ANGLE DIHED IMPRP ELECT VDW BOUNDARY MISC KINETIC TOTAL TEMP POTENTIAL TOTAL3 TEMPAVG PRESSURE GPRESSURE VOLUME PRESSAVG GPRESSAVG
ENERGY: 700000 1.2857 1.0661 2.2493 0.0000 -12424.3069 1849.5006 0.0000 0.0000 1215.5882 -9354.6170 206.9040 -10570.2052 -9352.2706 206.9040 -563.6437 -494.4223 28972.1244 -563.6437 -494.4223
ENERGY: 800000 0.5205 2.4406 2.2520 0.0000 -11818.9433 1723.2401 0.0000 0.0000 1367.5639 -8722.9263 232.7717 -10090.4901 -8720.1833 239.2589 -259.9032 -107.9737 29293.9721 2.5920 2.5391
TCL: Running 100000 steps at 270 kelvin.
TCL: Setting parameter langevinTemp to 270
TCL: Running for 100000 steps
ETITLE: TS BOND ANGLE DIHED IMPRP ELECT VDW BOUNDARY MISC KINETIC TOTAL TEMP POTENTIAL TOTAL3 TEMPAVG PRESSURE GPRESSURE VOLUME PRESSAVG GPRESSAVG
ENERGY: 800000 0.5205 2.4406 2.2520 0.0000 -11818.9433 1723.2401 0.0000 0.0000 1366.8772 -8723.6129 232.6548 -10090.4901 -8721.0944 232.6548 -206.2908 -108.6564 29293.9721 -206.2908 -108.6564
ENERGY: 900000 1.5232 2.3646 2.2499 0.0000 -11307.8777 1569.0586 0.0000 0.0000 1626.8873 -8105.7941 276.9109 -9732.6814 -8101.8340 269.3418 -85.8855 34.0469 29677.4877 4.1733 4.1183
TCL: Running 1000000 steps at 300 kelvin.
TCL: Setting parameter langevinTemp to 300
TCL: Running for 1000000 steps
ETITLE: TS BOND ANGLE DIHED IMPRP ELECT VDW BOUNDARY MISC KINETIC TOTAL TEMP POTENTIAL TOTAL3 TEMPAVG PRESSURE GPRESSURE VOLUME PRESSAVG GPRESSAVG
ENERGY: 900000 1.5232 2.3646 2.2499 0.0000 -11307.8777 1569.0586 0.0000 0.0000 1626.1406 -8106.5408 276.7837 -9732.6814 -8103.8917 276.7837 -50.1322 36.1988 29677.4877 -50.1322 36.1988
ENERGY: 1100000 1.0522 3.6098 2.2515 0.0000 -10906.4038 1538.2661 0.0000 0.0000 1697.1279 -7664.0962 288.8664 -9361.2241 -7658.7354 300.4557 399.8345 518.1436 30353.2631 2.7226 2.8809
ENERGY: 1300000 0.3931 4.3797 2.2480 0.0000 -10714.4008 1424.0903 0.0000 0.0000 1727.3103 -7555.9794 294.0038 -9283.2897 -7552.7450 299.9284 -174.0463 -71.1873 30476.7961 2.7656 2.6644
ENERGY: 1500000 0.5812 2.0162 2.2498 0.0000 -10727.8781 1408.6781 0.0000 0.0000 1777.5062 -7536.8467 302.5475 -9314.3529 -7536.1159 300.2740 -230.3168 -180.3874 30530.5817 2.3997 2.5885
ENERGY: 1700000 2.7862 3.7739 2.2495 0.0000 -10673.1236 1405.3316 0.0000 0.0000 1750.2461 -7508.7364 297.9076 -9258.9825 -7503.7124 299.9736 25.6729 103.5703 30039.2423 2.8363 2.8825
ENERGY: 1900000 0.3416 4.3684 2.2521 0.0000 -10675.2653 1427.0684 0.0000 0.0000 1773.1764 -7468.0585 301.8106 -9241.2349 -7464.1829 300.7792 -208.8643 -101.7886 31008.3760 4.5372 4.4408
TCL: Exiting due to exit command.
