Info: SIMULATION PARAMETERS:
Info: TIMESTEP               2
Info: NUMBER OF STEPS        0
Info: STEPS PER CYCLE        10
Info: PERIODIC CELL BASIS 1  35.01 0 0
Info: PERIODIC CELL BASIS 2  0 35.267 0
Info: PERIODIC CELL BASIS 3  0 0 35.723
Info: PERIODIC CELL CENTER   0 0 0
Info: WRAPPING WATERS AROUND PERIODIC BOUNDARIES ON OUTPUT.
Info: WRAPPING ALL CLUSTERS AROUND PERIODIC BOUNDARIES ON OUTPUT.
Info: FIRST LDB TIMESTEP     50
Info: LAST LDB TIMESTEP     -1
Info: HOM BACKGROUND SCALING 1
Info: PME BACKGROUND SCALING 1
Info: MIN ATOMS PER PATCH    40
Info: EMPTY PATCH LOAD       40 ATOMS
Info: INITIAL TEMPERATURE    300
Info: CENTER OF MASS MOVING INITIALLY? NO
Info: DIELECTRIC             1
Info: EXCLUDE                SCALED ONE-FOUR
Info: 1-4 ELECTROSTATICS SCALED BY 0.833333
Info: MODIFIED 1-4 VDW PARAMETERS WILL BE USED
Info: DCD FILENAME           mobley_4434915_equil.dcd
Info: DCD FREQUENCY          100000
Info: DCD FIRST STEP         100000
Info: DCD FILE WILL CONTAIN UNIT CELL DATA
Info: XST FILENAME           mobley_4434915_equil.xst
Info: XST FREQUENCY          100000
Info: NO VELOCITY DCD OUTPUT
Info: NO FORCE DCD OUTPUT
Info: OUTPUT FILENAME        mobley_4434915_equil
Info: BINARY OUTPUT FILES WILL BE USED
Info: RESTART FILENAME       mobley_4434915_equil.restart
Info: RESTART FREQUENCY      100000
Info: BINARY RESTART FILES WILL BE USED
Info: CUTOFF                 9
Info: PAIRLIST DISTANCE      11
Info: PAIRLIST SHRINK RATE   0.01
Info: PAIRLIST GROW RATE     0.01
Info: PAIRLIST TRIGGER       0.3
Info: PAIRLISTS PER CYCLE    2
Info: PAIRLISTS ENABLED
Info: MARGIN                 8
Info: HYDROGEN GROUP CUTOFF  2.5
Info: PATCH DIMENSION        21.5
Info: ENERGY OUTPUT STEPS    100000
Info: ENERGY EVALUATION STEPS    100000
Info: OUTPUT ENERGY PRECISION 4
Info: CROSSTERM ENERGY INCLUDED IN DIHEDRAL
Info: TIMING OUTPUT STEPS    1000000
Info: PRESSURE OUTPUT STEPS  100000
Info: LANGEVIN DYNAMICS ACTIVE
Info: LANGEVIN TEMPERATURE   30
Info: LANGEVIN USING BBK INTEGRATOR
Info: LANGEVIN DAMPING COEFFICIENT IS 1 INVERSE PS
Info: LANGEVIN DYNAMICS APPLIED TO HYDROGENS
Info: LANGEVIN PISTON PRESSURE CONTROL ACTIVE
Info:        TARGET PRESSURE IS 1.01325 BAR
Info:     OSCILLATION PERIOD IS 50 FS
Info:             DECAY TIME IS 25 FS
Info:     PISTON TEMPERATURE IS 300 K
Info:       PRESSURE CONTROL IS GROUP-BASED
Info:    INITIAL STRAIN RATE IS 0 0 0
Info:       CELL FLUCTUATION IS ISOTROPIC
Info: PARTICLE MESH EWALD (PME) ACTIVE
Info: PME TOLERANCE               1e-06
Info: PME EWALD COEFFICIENT       0.348832
Info: PME INTERPOLATION ORDER     4
Info: PME GRID DIMENSIONS         36 36 36
Info: PME MAXIMUM GRID SPACING    1
Info: FULL ELECTROSTATIC EVALUATION FREQUENCY      2
Info: USING VERLET I (r-RESPA) MTS SCHEME.
Info: C1 SPLITTING OF LONG RANGE ELECTROSTATICS
Info: PLACING ATOMS IN PATCHES BY HYDROGEN GROUPS
Info: RIGID BONDS TO HYDROGEN : ALL
Info:         ERROR TOLERANCE : 1e-08
Info:          MAX ITERATIONS : 100
Info: RIGID WATER USING SETTLE ALGORITHM
Info: RANDOM NUMBER SEED     1743152647
Info: USE HYDROGEN BONDS?    NO
Info: Using AMBER format force field!
Info: AMBER PARM FILE        mobley_4434915.prmtop
Info: COORDINATE PDB         mobley_4434915.pdb
Info: Exclusions will be read from PARM file!
Info: SCNB (VDW SCALING)     2
Info: USING ARITHMETIC MEAN TO COMBINE L-J SIGMA PARAMETERS
Info: BINARY COORDINATES     mobley_4434915_min.coor
Info: SUMMARY OF PARAMETERS:
Info: 4 BONDS
Info: 2 ANGLES
Info:   2 HARMONIC
Info:   0 COSINE-BASED
Info: 0 DIHEDRAL
Info: 0 IMPROPER
Info: 0 CROSSTERM
Info: 0 VDW
Info: 15 VDW_PAIRS
Info: 0 NBTHOLE_PAIRS
Info: STRUCTURE SUMMARY:
Info: 2984 ATOMS
Info: 2983 BONDS
Info: 6 ANGLES
Info: 0 DIHEDRALS
Info: 0 IMPROPERS
Info: 0 CROSSTERMS
Info: 2989 EXCLUSIONS
Info: 2982 RIGID BONDS
Info: 5970 DEGREES OF FREEDOM
Info: 995 HYDROGEN GROUPS
Info: 4 ATOMS IN LARGEST HYDROGEN GROUP
Info: 995 MIGRATION GROUPS
Info: 4 ATOMS IN LARGEST MIGRATION GROUP
Info: TOTAL MASS = 17940.4 amu
Info: TOTAL CHARGE = -0.000100018 e
Info: MASS DENSITY = 0.675433 g/cm^3
Info: ATOM DENSITY = 0.0676535 atoms/A^3
Info: ADDED 0 IMPLICIT EXCLUSIONS
Info: NONBONDED TABLE R-SQUARED SPACING: 0.0625
Info: NONBONDED TABLE SIZE: 705 POINTS
Info: REMOVING COM VELOCITY 0.00251862 -0.112896 -0.237954
TCL: Running for 100000 steps
ETITLE: TS BOND ANGLE DIHED IMPRP ELECT VDW BOUNDARY MISC KINETIC TOTAL TEMP POTENTIAL TOTAL3 TEMPAVG PRESSURE GPRESSURE VOLUME PRESSAVG GPRESSAVG
ENERGY: 0 0.0002 0.2490 0.0000 0.0000 -13858.5170 2447.0232 0.0000 0.0000 1767.2823 -9643.9622 297.9353 -11411.2445 -9643.6091 297.9353 447.7539 486.8197 44107.1049 447.7539 486.8197
ENERGY: 100000 0.0058 0.4647 0.0000 0.0000 -14434.3402 2511.3886 0.0000 0.0000 176.3896 -11746.0916 29.7364 -11922.4812 -11745.5775 30.8604 -102.7539 -15.9864 29220.6463 3.4111 3.4254
TCL: Running 100000 steps at 60 kelvin.
TCL: Setting parameter langevinTemp to 60
TCL: Running for 100000 steps
ETITLE: TS BOND ANGLE DIHED IMPRP ELECT VDW BOUNDARY MISC KINETIC TOTAL TEMP POTENTIAL TOTAL3 TEMPAVG PRESSURE GPRESSURE VOLUME PRESSAVG GPRESSAVG
ENERGY: 100000 0.0058 0.4647 0.0000 0.0000 -14434.3402 2511.3886 0.0000 0.0000 176.3006 -11746.1806 29.7214 -11922.4812 -11745.8454 29.7214 -83.7105 -15.9109 29220.6463 -83.7105 -15.9109
ENERGY: 200000 0.0109 0.3826 0.0000 0.0000 -14273.0871 2440.5153 0.0000 0.0000 344.4577 -11487.7205 58.0700 -11832.1782 -11486.6435 60.0127 -492.8541 -439.2241 29700.7149 3.2952 3.2970
TCL: Running 100000 steps at 90 kelvin.
TCL: Setting parameter langevinTemp to 90
TCL: Running for 100000 steps
ETITLE: TS BOND ANGLE DIHED IMPRP ELECT VDW BOUNDARY MISC KINETIC TOTAL TEMP POTENTIAL TOTAL3 TEMPAVG PRESSURE GPRESSURE VOLUME PRESSAVG GPRESSAVG
ENERGY: 200000 0.0109 0.3826 0.0000 0.0000 -14273.0871 2440.5153 0.0000 0.0000 344.2786 -11487.8996 58.0398 -11832.1782 -11487.1101 58.0398 -516.7740 -439.2034 29700.7149 -516.7740 -439.2034
ENERGY: 300000 0.0072 0.5978 0.0000 0.0000 -14135.9502 2413.8639 0.0000 0.0000 541.5258 -11179.9555 91.2925 -11721.4813 -11178.7832 89.8764 -193.3961 -148.9585 29490.3391 2.8285 3.0050
TCL: Running 100000 steps at 120 kelvin.
TCL: Setting parameter langevinTemp to 120
TCL: Running for 100000 steps
ETITLE: TS BOND ANGLE DIHED IMPRP ELECT VDW BOUNDARY MISC KINETIC TOTAL TEMP POTENTIAL TOTAL3 TEMPAVG PRESSURE GPRESSURE VOLUME PRESSAVG GPRESSAVG
ENERGY: 300000 0.0072 0.5978 0.0000 0.0000 -14135.9502 2413.8639 0.0000 0.0000 541.2642 -11180.2171 91.2484 -11721.4813 -11179.1389 91.2484 -205.5005 -149.7841 29490.3391 -205.5005 -149.7841
ENERGY: 400000 0.0216 0.5117 0.0000 0.0000 -13992.6496 2395.2633 0.0000 0.0000 706.6794 -10890.1737 119.1348 -11596.8531 -10888.9433 120.0295 184.5996 229.2312 29398.2142 3.8990 3.9419
TCL: Running 100000 steps at 150 kelvin.
TCL: Setting parameter langevinTemp to 150
TCL: Running for 100000 steps
ETITLE: TS BOND ANGLE DIHED IMPRP ELECT VDW BOUNDARY MISC KINETIC TOTAL TEMP POTENTIAL TOTAL3 TEMPAVG PRESSURE GPRESSURE VOLUME PRESSAVG GPRESSAVG
ENERGY: 400000 0.0216 0.5117 0.0000 0.0000 -13992.6496 2395.2633 0.0000 0.0000 706.3188 -10890.5343 119.0740 -11596.8531 -10889.3370 119.0740 179.7886 228.9342 29398.2142 179.7886 228.9342
ENERGY: 500000 0.0454 1.5403 0.0000 0.0000 -13662.7657 2265.2461 0.0000 0.0000 890.4734 -10505.4605 150.1195 -11395.9339 -10503.4668 149.9307 -252.3256 -195.4476 29564.3418 4.6887 4.5675
TCL: Running 100000 steps at 180 kelvin.
TCL: Setting parameter langevinTemp to 180
TCL: Running for 100000 steps
ETITLE: TS BOND ANGLE DIHED IMPRP ELECT VDW BOUNDARY MISC KINETIC TOTAL TEMP POTENTIAL TOTAL3 TEMPAVG PRESSURE GPRESSURE VOLUME PRESSAVG GPRESSAVG
ENERGY: 500000 0.0454 1.5403 0.0000 0.0000 -13662.7657 2265.2461 0.0000 0.0000 890.0352 -10505.8987 150.0456 -11395.9339 -10504.1942 150.0456 -243.2409 -196.6754 29564.3418 -243.2409 -196.6754
ENERGY: 600000 0.0335 0.8874 0.0000 0.0000 -13345.8752 2181.2534 0.0000 0.0000 1055.8109 -10107.8900 177.9927 -11163.7009 -10106.6840 179.8158 71.5685 100.0542 29194.7421 2.4832 2.4927
TCL: Running 100000 steps at 210 kelvin.
TCL: Setting parameter langevinTemp to 210
TCL: Running for 100000 steps
ETITLE: TS BOND ANGLE DIHED IMPRP ELECT VDW BOUNDARY MISC KINETIC TOTAL TEMP POTENTIAL TOTAL3 TEMPAVG PRESSURE GPRESSURE VOLUME PRESSAVG GPRESSAVG
ENERGY: 600000 0.0335 0.8874 0.0000 0.0000 -13345.8752 2181.2534 0.0000 0.0000 1055.2920 -10108.4089 177.9052 -11163.7009 -10106.1868 177.9052 38.1775 99.7235 29194.7421 38.1775 99.7235
ENERGY: 700000 0.1754 1.4521 0.0000 0.0000 -12740.4623 2075.0093 0.0000 0.0000 1211.4078 -9452.4177 204.2238 -10663.8255 -9449.8955 209.9713 1106.8375 1191.1252 29032.4907 3.6514 3.5343
TCL: Running 100000 steps at 240 kelvin.
TCL: Setting parameter langevinTemp to 240
TCL: Running for 100000 steps
ETITLE: TS BOND ANGLE DIHED IMPRP ELECT VDW BOUNDARY MISC KINETIC TOTAL TEMP POTENTIAL TOTAL3 TEMPAVG PRESSURE GPRESSURE VOLUME PRESSAVG GPRESSAVG
ENERGY: 700000 0.1754 1.4521 0.0000 0.0000 -12740.4623 2075.0093 0.0000 0.0000 1210.7646 -9453.0609 204.1154 -10663.8255 -9451.8080 204.1154 1108.9899 1192.8178 29032.4907 1108.9899 1192.8178
ENERGY: 800000 0.0218 1.3163 0.0000 0.0000 -12058.5900 1759.8727 0.0000 0.0000 1405.4519 -8891.9272 236.9365 -10297.3791 -8889.4963 239.8860 -106.5253 30.4247 29256.1177 1.9138 2.0485
TCL: Running 100000 steps at 270 kelvin.
TCL: Setting parameter langevinTemp to 270
TCL: Running for 100000 steps
ETITLE: TS BOND ANGLE DIHED IMPRP ELECT VDW BOUNDARY MISC KINETIC TOTAL TEMP POTENTIAL TOTAL3 TEMPAVG PRESSURE GPRESSURE VOLUME PRESSAVG GPRESSAVG
ENERGY: 800000 0.0218 1.3163 0.0000 0.0000 -12058.5900 1759.8727 0.0000 0.0000 1404.7293 -8892.6498 236.8147 -10297.3791 -8890.2145 236.8147 -39.6474 30.5804 29256.1177 -39.6474 30.5804
ENERGY: 900000 0.0967 0.7838 0.0000 0.0000 -11421.6439 1655.2398 0.0000 0.0000 1619.2434 -8146.2802 272.9783 -9765.5237 -8143.4172 270.1478 549.2366 713.8727 29822.3486 2.1382 2.1732
TCL: Running 1000000 steps at 300 kelvin.
TCL: Setting parameter langevinTemp to 300
TCL: Running for 1000000 steps
ETITLE: TS BOND ANGLE DIHED IMPRP ELECT VDW BOUNDARY MISC KINETIC TOTAL TEMP POTENTIAL TOTAL3 TEMPAVG PRESSURE GPRESSURE VOLUME PRESSAVG GPRESSAVG
ENERGY: 900000 0.0967 0.7838 0.0000 0.0000 -11421.6439 1655.2398 0.0000 0.0000 1618.4394 -8147.0842 272.8428 -9765.5237 -8144.9392 272.8428 630.1017 714.1691 29822.3486 630.1017 714.1691
ENERGY: 1100000 0.0922 1.6301 0.0000 0.0000 -10806.1936 1392.8413 0.0000 0.0000 1771.5675 -7640.0626 298.6577 -9411.6300 -7634.0761 300.9681 -732.2318 -634.6961 30936.2226 4.0042 4.0215
ENERGY: 1300000 0.1388 1.7013 0.0000 0.0000 -10795.7633 1385.2628 0.0000 0.0000 1768.0766 -7640.5838 298.0692 -9408.6603 -7636.8811 300.2441 -554.2605 -477.6889 30955.0605 3.7935 3.7641
ENERGY: 1500000 0.1325 1.4354 0.0000 0.0000 -10904.0298 1449.9067 0.0000 0.0000 1752.0017 -7700.5535 295.3592 -9452.5552 -7697.3036 300.0490 -252.0698 -221.4842 30814.7187 2.7009 2.5892
ENERGY: 1700000 0.0889 1.2087 0.0000 0.0000 -10799.1113 1387.9804 0.0000 0.0000 1755.9603 -7653.8731 296.0266 -9409.8333 -7651.6641 300.1288 -413.5695 -379.1201 30369.0819 2.3246 2.1780
ENERGY: 1900000 1.6795 1.2018 0.0000 0.0000 -10802.2823 1362.4859 0.0000 0.0000 1847.7474 -7589.1677 311.5004 -9436.9151 -7583.9624 301.1603 -769.5260 -635.9083 30553.7085 2.8742 3.0498
TCL: Exiting due to exit command.
