Info: SIMULATION PARAMETERS:
Info: TIMESTEP               2
Info: NUMBER OF STEPS        0
Info: STEPS PER CYCLE        10
Info: PERIODIC CELL BASIS 1  34.986 0 0
Info: PERIODIC CELL BASIS 2  0 33.399 0
Info: PERIODIC CELL BASIS 3  0 0 37.195
Info: PERIODIC CELL CENTER   0 0 0
Info: WRAPPING WATERS AROUND PERIODIC BOUNDARIES ON OUTPUT.
Info: WRAPPING ALL CLUSTERS AROUND PERIODIC BOUNDARIES ON OUTPUT.
Info: FIRST LDB TIMESTEP     50
Info: LAST LDB TIMESTEP     -1
Info: HOM BACKGROUND SCALING 1
Info: PME BACKGROUND SCALING 1
Info: MIN ATOMS PER PATCH    40
Info: EMPTY PATCH LOAD       40 ATOMS
Info: INITIAL TEMPERATURE    300
Info: CENTER OF MASS MOVING INITIALLY? NO
Info: DIELECTRIC             1
Info: EXCLUDE                SCALED ONE-FOUR
Info: 1-4 ELECTROSTATICS SCALED BY 0.833333
Info: MODIFIED 1-4 VDW PARAMETERS WILL BE USED
Info: DCD FILENAME           mobley_7608462_equil.dcd
Info: DCD FREQUENCY          100000
Info: DCD FIRST STEP         100000
Info: DCD FILE WILL CONTAIN UNIT CELL DATA
Info: XST FILENAME           mobley_7608462_equil.xst
Info: XST FREQUENCY          100000
Info: NO VELOCITY DCD OUTPUT
Info: NO FORCE DCD OUTPUT
Info: OUTPUT FILENAME        mobley_7608462_equil
Info: BINARY OUTPUT FILES WILL BE USED
Info: RESTART FILENAME       mobley_7608462_equil.restart
Info: RESTART FREQUENCY      100000
Info: BINARY RESTART FILES WILL BE USED
Info: CUTOFF                 9
Info: PAIRLIST DISTANCE      11
Info: PAIRLIST SHRINK RATE   0.01
Info: PAIRLIST GROW RATE     0.01
Info: PAIRLIST TRIGGER       0.3
Info: PAIRLISTS PER CYCLE    2
Info: PAIRLISTS ENABLED
Info: MARGIN                 8
Info: HYDROGEN GROUP CUTOFF  2.5
Info: PATCH DIMENSION        21.5
Info: ENERGY OUTPUT STEPS    100000
Info: ENERGY EVALUATION STEPS    100000
Info: OUTPUT ENERGY PRECISION 4
Info: CROSSTERM ENERGY INCLUDED IN DIHEDRAL
Info: TIMING OUTPUT STEPS    1000000
Info: PRESSURE OUTPUT STEPS  100000
Info: LANGEVIN DYNAMICS ACTIVE
Info: LANGEVIN TEMPERATURE   30
Info: LANGEVIN USING BBK INTEGRATOR
Info: LANGEVIN DAMPING COEFFICIENT IS 1 INVERSE PS
Info: LANGEVIN DYNAMICS APPLIED TO HYDROGENS
Info: LANGEVIN PISTON PRESSURE CONTROL ACTIVE
Info:        TARGET PRESSURE IS 1.01325 BAR
Info:     OSCILLATION PERIOD IS 50 FS
Info:             DECAY TIME IS 25 FS
Info:     PISTON TEMPERATURE IS 300 K
Info:       PRESSURE CONTROL IS GROUP-BASED
Info:    INITIAL STRAIN RATE IS 0 0 0
Info:       CELL FLUCTUATION IS ISOTROPIC
Info: PARTICLE MESH EWALD (PME) ACTIVE
Info: PME TOLERANCE               1e-06
Info: PME EWALD COEFFICIENT       0.348832
Info: PME INTERPOLATION ORDER     4
Info: PME GRID DIMENSIONS         36 36 40
Info: PME MAXIMUM GRID SPACING    1
Info: FULL ELECTROSTATIC EVALUATION FREQUENCY      2
Info: USING VERLET I (r-RESPA) MTS SCHEME.
Info: C1 SPLITTING OF LONG RANGE ELECTROSTATICS
Info: PLACING ATOMS IN PATCHES BY HYDROGEN GROUPS
Info: RIGID BONDS TO HYDROGEN : ALL
Info:         ERROR TOLERANCE : 1e-08
Info:          MAX ITERATIONS : 100
Info: RIGID WATER USING SETTLE ALGORITHM
Info: RANDOM NUMBER SEED     1742863980
Info: USE HYDROGEN BONDS?    NO
Info: Using AMBER format force field!
Info: AMBER PARM FILE        mobley_7608462.prmtop
Info: COORDINATE PDB         mobley_7608462.pdb
Info: Exclusions will be read from PARM file!
Info: SCNB (VDW SCALING)     2
Info: USING ARITHMETIC MEAN TO COMBINE L-J SIGMA PARAMETERS
Info: BINARY COORDINATES     mobley_7608462_min.coor
Info: SUMMARY OF PARAMETERS:
Info: 5 BONDS
Info: 3 ANGLES
Info:   3 HARMONIC
Info:   0 COSINE-BASED
Info: 2 DIHEDRAL
Info: 0 IMPROPER
Info: 0 CROSSTERM
Info: 0 VDW
Info: 15 VDW_PAIRS
Info: 0 NBTHOLE_PAIRS
Info: STRUCTURE SUMMARY:
Info: 2916 ATOMS
Info: 2916 BONDS
Info: 18 ANGLES
Info: 30 DIHEDRALS
Info: 0 IMPROPERS
Info: 0 CROSSTERMS
Info: 2955 EXCLUSIONS
Info: 2909 RIGID BONDS
Info: 5839 DEGREES OF FREEDOM
Info: 975 HYDROGEN GROUPS
Info: 3 ATOMS IN LARGEST HYDROGEN GROUP
Info: 975 MIGRATION GROUPS
Info: 3 ATOMS IN LARGEST MIGRATION GROUP
Info: TOTAL MASS = 17552 amu
Info: TOTAL CHARGE = 9.99775e-05 e
Info: MASS DENSITY = 0.670617 g/cm^3
Info: ATOM DENSITY = 0.0670927 atoms/A^3
Info: ADDED 0 IMPLICIT EXCLUSIONS
Info: NONBONDED TABLE R-SQUARED SPACING: 0.0625
Info: NONBONDED TABLE SIZE: 705 POINTS
Info: REMOVING COM VELOCITY -0.0521225 0.0110249 0.0663288
TCL: Running for 100000 steps
ETITLE: TS BOND ANGLE DIHED IMPRP ELECT VDW BOUNDARY MISC KINETIC TOTAL TEMP POTENTIAL TOTAL3 TEMPAVG PRESSURE GPRESSURE VOLUME PRESSAVG GPRESSAVG
ENERGY: 0 0.1229 0.0297 0.0068 0.0000 -13456.0413 2375.0341 0.0000 0.0000 1738.4850 -9342.3629 299.6559 -11080.8479 -9341.9969 299.6559 586.1115 622.5914 43462.2613 586.1115 622.5914
ENERGY: 100000 0.2383 0.1340 0.2122 0.0000 -14107.0345 2457.5884 0.0000 0.0000 173.0791 -11475.7825 29.8330 -11648.8616 -11475.4688 30.8494 336.2722 371.2591 27607.3698 5.5493 5.5473
TCL: Running 100000 steps at 60 kelvin.
TCL: Setting parameter langevinTemp to 60
TCL: Running for 100000 steps
ETITLE: TS BOND ANGLE DIHED IMPRP ELECT VDW BOUNDARY MISC KINETIC TOTAL TEMP POTENTIAL TOTAL3 TEMPAVG PRESSURE GPRESSURE VOLUME PRESSAVG GPRESSAVG
ENERGY: 100000 0.2383 0.1340 0.2122 0.0000 -14107.0345 2457.5884 0.0000 0.0000 172.9938 -11475.8679 29.8183 -11648.8616 -11475.5035 29.8183 302.8954 371.1355 27607.3698 302.8954 371.1355
ENERGY: 200000 0.5469 0.6236 0.4238 0.0000 -14037.4127 2472.6966 0.0000 0.0000 351.8673 -11211.2545 60.6500 -11563.1219 -11210.6376 59.9758 712.6354 770.5938 27773.7658 3.6460 3.6711
TCL: Running 100000 steps at 90 kelvin.
TCL: Setting parameter langevinTemp to 90
TCL: Running for 100000 steps
ETITLE: TS BOND ANGLE DIHED IMPRP ELECT VDW BOUNDARY MISC KINETIC TOTAL TEMP POTENTIAL TOTAL3 TEMPAVG PRESSURE GPRESSURE VOLUME PRESSAVG GPRESSAVG
ENERGY: 200000 0.5469 0.6236 0.4238 0.0000 -14037.4127 2472.6966 0.0000 0.0000 351.6981 -11211.4238 60.6208 -11563.1219 -11210.7215 60.6208 710.2343 770.1193 27773.7658 710.2343 770.1193
ENERGY: 300000 0.6971 1.5500 0.8077 0.0000 -13857.6433 2410.6710 0.0000 0.0000 509.9348 -10933.9827 87.8955 -11443.9175 -10932.5735 90.0918 528.9228 603.0550 27908.5671 4.7605 4.6993
TCL: Running 100000 steps at 120 kelvin.
TCL: Setting parameter langevinTemp to 120
TCL: Running for 100000 steps
ETITLE: TS BOND ANGLE DIHED IMPRP ELECT VDW BOUNDARY MISC KINETIC TOTAL TEMP POTENTIAL TOTAL3 TEMPAVG PRESSURE GPRESSURE VOLUME PRESSAVG GPRESSAVG
ENERGY: 300000 0.6971 1.5500 0.8077 0.0000 -13857.6433 2410.6710 0.0000 0.0000 509.6778 -10934.2397 87.8512 -11443.9175 -10933.2384 87.8512 545.7755 603.6422 27908.5671 545.7755 603.6422
ENERGY: 400000 1.2160 1.1764 0.9661 0.0000 -13692.0832 2371.6470 0.0000 0.0000 696.4465 -10620.6312 120.0438 -11317.0777 -10619.2765 120.0929 805.8806 847.6832 27824.0120 4.1599 4.1142
TCL: Running 100000 steps at 150 kelvin.
TCL: Setting parameter langevinTemp to 150
TCL: Running for 100000 steps
ETITLE: TS BOND ANGLE DIHED IMPRP ELECT VDW BOUNDARY MISC KINETIC TOTAL TEMP POTENTIAL TOTAL3 TEMPAVG PRESSURE GPRESSURE VOLUME PRESSAVG GPRESSAVG
ENERGY: 400000 1.2160 1.1764 0.9661 0.0000 -13692.0832 2371.6470 0.0000 0.0000 696.1067 -10620.9710 119.9852 -11317.0777 -10619.5521 119.9852 783.1014 847.8505 27824.0120 783.1014 847.8505
ENERGY: 500000 0.1663 2.4293 0.8683 0.0000 -13418.5869 2265.3869 0.0000 0.0000 891.8194 -10257.9167 153.7194 -11149.7360 -10255.7450 150.3175 428.4633 475.3204 28199.2696 5.0089 5.0301
TCL: Running 100000 steps at 180 kelvin.
TCL: Setting parameter langevinTemp to 180
TCL: Running for 100000 steps
ETITLE: TS BOND ANGLE DIHED IMPRP ELECT VDW BOUNDARY MISC KINETIC TOTAL TEMP POTENTIAL TOTAL3 TEMPAVG PRESSURE GPRESSURE VOLUME PRESSAVG GPRESSAVG
ENERGY: 500000 0.1663 2.4293 0.8683 0.0000 -13418.5869 2265.3869 0.0000 0.0000 891.3668 -10258.3693 153.6414 -11149.7360 -10256.6981 153.6414 417.0456 475.7694 28199.2696 417.0456 475.7694
ENERGY: 600000 1.2619 1.9161 2.4213 0.0000 -13023.9526 2086.4169 0.0000 0.0000 1042.4136 -9889.5229 179.6768 -10931.9364 -9886.2569 179.6483 -484.4403 -397.3611 28783.4614 2.4091 2.4759
TCL: Running 100000 steps at 210 kelvin.
TCL: Setting parameter langevinTemp to 210
TCL: Running for 100000 steps
ETITLE: TS BOND ANGLE DIHED IMPRP ELECT VDW BOUNDARY MISC KINETIC TOTAL TEMP POTENTIAL TOTAL3 TEMPAVG PRESSURE GPRESSURE VOLUME PRESSAVG GPRESSAVG
ENERGY: 600000 1.2619 1.9161 2.4213 0.0000 -13023.9526 2086.4169 0.0000 0.0000 1041.8545 -9890.0820 179.5804 -10931.9364 -9887.7321 179.5804 -443.5688 -396.7907 28783.4614 -443.5688 -396.7907
ENERGY: 700000 2.9499 2.0464 0.9283 0.0000 -12330.7324 1884.6628 0.0000 0.0000 1198.1170 -9242.0280 206.5148 -10440.1450 -9237.8440 210.4520 -384.3114 -296.9095 28860.5982 3.9758 3.9956
TCL: Running 100000 steps at 240 kelvin.
TCL: Setting parameter langevinTemp to 240
TCL: Running for 100000 steps
ETITLE: TS BOND ANGLE DIHED IMPRP ELECT VDW BOUNDARY MISC KINETIC TOTAL TEMP POTENTIAL TOTAL3 TEMPAVG PRESSURE GPRESSURE VOLUME PRESSAVG GPRESSAVG
ENERGY: 700000 2.9499 2.0464 0.9283 0.0000 -12330.7324 1884.6628 0.0000 0.0000 1197.5211 -9242.6239 206.4121 -10440.1450 -9240.3269 206.4121 -363.7887 -296.6987 28860.5982 -363.7887 -296.6987
ENERGY: 800000 2.6298 2.9269 2.3491 0.0000 -11625.3039 1698.0042 0.0000 0.0000 1434.5809 -8484.8130 247.2731 -9919.3940 -8482.4439 239.6056 -31.5926 127.5926 28833.3544 2.8719 2.7114
TCL: Running 100000 steps at 270 kelvin.
TCL: Setting parameter langevinTemp to 270
TCL: Running for 100000 steps
ETITLE: TS BOND ANGLE DIHED IMPRP ELECT VDW BOUNDARY MISC KINETIC TOTAL TEMP POTENTIAL TOTAL3 TEMPAVG PRESSURE GPRESSURE VOLUME PRESSAVG GPRESSAVG
ENERGY: 800000 2.6298 2.9269 2.3491 0.0000 -11625.3039 1698.0042 0.0000 0.0000 1433.9050 -8485.4890 247.1566 -9919.3940 -8483.3923 247.1566 43.2366 127.5335 28833.3544 43.2366 127.5335
ENERGY: 900000 2.7484 2.0808 2.1091 0.0000 -10989.0391 1454.5597 0.0000 0.0000 1562.4206 -7965.1205 269.3084 -9527.5411 -7963.2637 269.6407 -430.4966 -302.8370 28923.2431 2.8714 3.0559
TCL: Running 1000000 steps at 300 kelvin.
TCL: Setting parameter langevinTemp to 300
TCL: Running for 1000000 steps
ETITLE: TS BOND ANGLE DIHED IMPRP ELECT VDW BOUNDARY MISC KINETIC TOTAL TEMP POTENTIAL TOTAL3 TEMPAVG PRESSURE GPRESSURE VOLUME PRESSAVG GPRESSAVG
ENERGY: 900000 2.7484 2.0808 2.1091 0.0000 -10989.0391 1454.5597 0.0000 0.0000 1561.6183 -7965.9228 269.1701 -9527.5411 -7962.8170 269.1701 -397.8257 -302.6855 28923.2431 -397.8257 -302.6855
ENERGY: 1100000 1.6327 3.7135 2.8420 0.0000 -10467.2549 1332.9012 0.0000 0.0000 1697.7089 -7428.4567 292.6275 -9126.1656 -7424.8120 299.6389 -774.2808 -696.7098 30702.4368 2.7263 2.7563
ENERGY: 1300000 2.0020 1.9309 1.3173 0.0000 -10673.0146 1482.7632 0.0000 0.0000 1719.8206 -7465.1806 296.4388 -9185.0012 -7461.7867 299.5791 241.0889 304.9480 29834.9732 2.7816 2.7167
ENERGY: 1500000 1.2913 2.6296 1.4481 0.0000 -10621.3908 1443.7351 0.0000 0.0000 1679.8164 -7492.4704 289.5434 -9172.2868 -7488.1716 299.9244 -55.9021 85.4843 30285.3635 3.3642 3.2809
ENERGY: 1700000 1.5072 1.0599 4.8601 0.0000 -10434.6487 1306.5158 0.0000 0.0000 1743.5684 -7377.1373 300.5321 -9120.7057 -7372.2591 300.6064 -980.7237 -927.3123 30405.4087 3.1668 3.1452
ENERGY: 1900000 0.8354 0.6446 3.6992 0.0000 -10642.6524 1442.9096 0.0000 0.0000 1780.6083 -7413.9553 306.9166 -9194.5636 -7410.5861 300.3032 327.3560 356.8563 29731.5391 3.4994 3.4187
TCL: Exiting due to exit command.
