Info: SIMULATION PARAMETERS:
Info: TIMESTEP               2
Info: NUMBER OF STEPS        0
Info: STEPS PER CYCLE        10
Info: PERIODIC CELL BASIS 1  34.986 0 0
Info: PERIODIC CELL BASIS 2  0 36.032 0
Info: PERIODIC CELL BASIS 3  0 0 35.723
Info: PERIODIC CELL CENTER   0 0 0
Info: WRAPPING WATERS AROUND PERIODIC BOUNDARIES ON OUTPUT.
Info: WRAPPING ALL CLUSTERS AROUND PERIODIC BOUNDARIES ON OUTPUT.
Info: FIRST LDB TIMESTEP     50
Info: LAST LDB TIMESTEP     -1
Info: HOM BACKGROUND SCALING 1
Info: PME BACKGROUND SCALING 1
Info: MIN ATOMS PER PATCH    40
Info: EMPTY PATCH LOAD       40 ATOMS
Info: INITIAL TEMPERATURE    300
Info: CENTER OF MASS MOVING INITIALLY? NO
Info: DIELECTRIC             1
Info: EXCLUDE                SCALED ONE-FOUR
Info: 1-4 ELECTROSTATICS SCALED BY 0.833333
Info: MODIFIED 1-4 VDW PARAMETERS WILL BE USED
Info: DCD FILENAME           mobley_7326706_equil.dcd
Info: DCD FREQUENCY          100000
Info: DCD FIRST STEP         100000
Info: DCD FILE WILL CONTAIN UNIT CELL DATA
Info: XST FILENAME           mobley_7326706_equil.xst
Info: XST FREQUENCY          100000
Info: NO VELOCITY DCD OUTPUT
Info: NO FORCE DCD OUTPUT
Info: OUTPUT FILENAME        mobley_7326706_equil
Info: BINARY OUTPUT FILES WILL BE USED
Info: RESTART FILENAME       mobley_7326706_equil.restart
Info: RESTART FREQUENCY      100000
Info: BINARY RESTART FILES WILL BE USED
Info: CUTOFF                 9
Info: PAIRLIST DISTANCE      11
Info: PAIRLIST SHRINK RATE   0.01
Info: PAIRLIST GROW RATE     0.01
Info: PAIRLIST TRIGGER       0.3
Info: PAIRLISTS PER CYCLE    2
Info: PAIRLISTS ENABLED
Info: MARGIN                 8
Info: HYDROGEN GROUP CUTOFF  2.5
Info: PATCH DIMENSION        21.5
Info: ENERGY OUTPUT STEPS    100000
Info: ENERGY EVALUATION STEPS    100000
Info: OUTPUT ENERGY PRECISION 4
Info: CROSSTERM ENERGY INCLUDED IN DIHEDRAL
Info: TIMING OUTPUT STEPS    1000000
Info: PRESSURE OUTPUT STEPS  100000
Info: LANGEVIN DYNAMICS ACTIVE
Info: LANGEVIN TEMPERATURE   30
Info: LANGEVIN USING BBK INTEGRATOR
Info: LANGEVIN DAMPING COEFFICIENT IS 1 INVERSE PS
Info: LANGEVIN DYNAMICS APPLIED TO HYDROGENS
Info: LANGEVIN PISTON PRESSURE CONTROL ACTIVE
Info:        TARGET PRESSURE IS 1.01325 BAR
Info:     OSCILLATION PERIOD IS 50 FS
Info:             DECAY TIME IS 25 FS
Info:     PISTON TEMPERATURE IS 300 K
Info:       PRESSURE CONTROL IS GROUP-BASED
Info:    INITIAL STRAIN RATE IS 0 0 0
Info:       CELL FLUCTUATION IS ISOTROPIC
Info: PARTICLE MESH EWALD (PME) ACTIVE
Info: PME TOLERANCE               1e-06
Info: PME EWALD COEFFICIENT       0.348832
Info: PME INTERPOLATION ORDER     4
Info: PME GRID DIMENSIONS         36 40 36
Info: PME MAXIMUM GRID SPACING    1
Info: FULL ELECTROSTATIC EVALUATION FREQUENCY      2
Info: USING VERLET I (r-RESPA) MTS SCHEME.
Info: C1 SPLITTING OF LONG RANGE ELECTROSTATICS
Info: PLACING ATOMS IN PATCHES BY HYDROGEN GROUPS
Info: RIGID BONDS TO HYDROGEN : ALL
Info:         ERROR TOLERANCE : 1e-08
Info:          MAX ITERATIONS : 100
Info: RIGID WATER USING SETTLE ALGORITHM
Info: RANDOM NUMBER SEED     1743262381
Info: USE HYDROGEN BONDS?    NO
Info: Using AMBER format force field!
Info: AMBER PARM FILE        mobley_7326706.prmtop
Info: COORDINATE PDB         mobley_7326706.pdb
Info: Exclusions will be read from PARM file!
Info: SCNB (VDW SCALING)     2
Info: USING ARITHMETIC MEAN TO COMBINE L-J SIGMA PARAMETERS
Info: BINARY COORDINATES     mobley_7326706_min.coor
Info: SUMMARY OF PARAMETERS:
Info: 13 BONDS
Info: 18 ANGLES
Info:   18 HARMONIC
Info:   0 COSINE-BASED
Info: 13 DIHEDRAL
Info: 0 IMPROPER
Info: 0 CROSSTERM
Info: 0 VDW
Info: 78 VDW_PAIRS
Info: 0 NBTHOLE_PAIRS
Info: STRUCTURE SUMMARY:
Info: 2954 ATOMS
Info: 2954 BONDS
Info: 49 ANGLES
Info: 72 DIHEDRALS
Info: 0 IMPROPERS
Info: 0 CROSSTERMS
Info: 3055 EXCLUSIONS
Info: 2936 RIGID BONDS
Info: 5926 DEGREES OF FREEDOM
Info: 993 HYDROGEN GROUPS
Info: 4 ATOMS IN LARGEST HYDROGEN GROUP
Info: 993 MIGRATION GROUPS
Info: 4 ATOMS IN LARGEST MIGRATION GROUP
Info: TOTAL MASS = 17916.2 amu
Info: TOTAL CHARGE = -0.000100015 e
Info: MASS DENSITY = 0.660654 g/cm^3
Info: ATOM DENSITY = 0.0655964 atoms/A^3
Info: ADDED 0 IMPLICIT EXCLUSIONS
Info: NONBONDED TABLE R-SQUARED SPACING: 0.0625
Info: NONBONDED TABLE SIZE: 705 POINTS
Info: REMOVING COM VELOCITY 0.0705635 -0.0611015 0.0182376
TCL: Running for 100000 steps
ETITLE: TS BOND ANGLE DIHED IMPRP ELECT VDW BOUNDARY MISC KINETIC TOTAL TEMP POTENTIAL TOTAL3 TEMPAVG PRESSURE GPRESSURE VOLUME PRESSAVG GPRESSAVG
ENERGY: 0 0.3539 1.1144 26.0671 0.0000 -13677.6737 2399.5496 0.0000 0.0000 1778.4473 -9472.1414 302.0437 -11250.5887 -9471.7986 302.0437 560.7496 594.8265 45032.9694 560.7496 594.8265
ENERGY: 100000 1.2017 1.7501 26.2759 0.0000 -14314.0546 2449.6271 0.0000 0.0000 178.8928 -11656.3070 30.3824 -11835.1998 -11655.5978 30.9722 -307.1579 -238.5266 28911.7289 5.0412 5.0173
TCL: Running 100000 steps at 60 kelvin.
TCL: Setting parameter langevinTemp to 60
TCL: Running for 100000 steps
ETITLE: TS BOND ANGLE DIHED IMPRP ELECT VDW BOUNDARY MISC KINETIC TOTAL TEMP POTENTIAL TOTAL3 TEMPAVG PRESSURE GPRESSURE VOLUME PRESSAVG GPRESSAVG
ENERGY: 100000 1.2017 1.7501 26.2759 0.0000 -14314.0546 2449.6271 0.0000 0.0000 178.8087 -11656.3912 30.3681 -11835.1998 -11655.9107 30.3681 -312.7699 -238.3388 28911.7289 -312.7699 -238.3388
ENERGY: 200000 1.4010 5.8156 24.0176 0.0000 -14070.7629 2296.9088 0.0000 0.0000 351.1194 -11391.5004 59.6326 -11742.6198 -11390.8435 59.7796 -1084.8566 -1008.0305 28844.5189 4.1749 4.1170
TCL: Running 100000 steps at 90 kelvin.
TCL: Setting parameter langevinTemp to 90
TCL: Running for 100000 steps
ETITLE: TS BOND ANGLE DIHED IMPRP ELECT VDW BOUNDARY MISC KINETIC TOTAL TEMP POTENTIAL TOTAL3 TEMPAVG PRESSURE GPRESSURE VOLUME PRESSAVG GPRESSAVG
ENERGY: 200000 1.4010 5.8156 24.0176 0.0000 -14070.7629 2296.9088 0.0000 0.0000 350.9521 -11391.6678 59.6042 -11742.6198 -11390.8853 59.6042 -1073.2938 -1008.4761 28844.5189 -1073.2938 -1008.4761
ENERGY: 300000 1.9983 7.3763 18.0742 0.0000 -14007.3574 2322.4371 0.0000 0.0000 532.2460 -11125.2255 90.3943 -11657.4715 -11122.9921 90.0166 -507.7354 -410.5519 28764.4536 3.3589 3.3484
TCL: Running 100000 steps at 120 kelvin.
TCL: Setting parameter langevinTemp to 120
TCL: Running for 100000 steps
ETITLE: TS BOND ANGLE DIHED IMPRP ELECT VDW BOUNDARY MISC KINETIC TOTAL TEMP POTENTIAL TOTAL3 TEMPAVG PRESSURE GPRESSURE VOLUME PRESSAVG GPRESSAVG
ENERGY: 300000 1.9983 7.3763 18.0742 0.0000 -14007.3574 2322.4371 0.0000 0.0000 531.9982 -11125.4733 90.3522 -11657.4715 -11124.2989 90.3522 -468.2194 -410.0346 28764.4536 -468.2194 -410.0346
ENERGY: 400000 2.3996 7.4335 20.2788 0.0000 -13910.3499 2360.4887 0.0000 0.0000 704.4341 -10815.3152 119.6380 -11519.7493 -10814.4899 120.2426 539.4027 560.9706 28319.3178 3.9512 4.0480
TCL: Running 100000 steps at 150 kelvin.
TCL: Setting parameter langevinTemp to 150
TCL: Running for 100000 steps
ETITLE: TS BOND ANGLE DIHED IMPRP ELECT VDW BOUNDARY MISC KINETIC TOTAL TEMP POTENTIAL TOTAL3 TEMPAVG PRESSURE GPRESSURE VOLUME PRESSAVG GPRESSAVG
ENERGY: 400000 2.3996 7.4335 20.2788 0.0000 -13910.3499 2360.4887 0.0000 0.0000 704.0775 -10815.6718 119.5774 -11519.7493 -10814.5001 119.5774 498.9706 560.3779 28319.3178 498.9706 560.3779
ENERGY: 500000 2.7500 8.6188 22.5030 0.0000 -13466.8804 2086.7715 0.0000 0.0000 901.4781 -10444.7590 153.1031 -11346.2371 -10441.8798 150.0739 -1348.2531 -1311.0038 29351.9822 3.4434 3.4934
TCL: Running 100000 steps at 180 kelvin.
TCL: Setting parameter langevinTemp to 180
TCL: Running for 100000 steps
ETITLE: TS BOND ANGLE DIHED IMPRP ELECT VDW BOUNDARY MISC KINETIC TOTAL TEMP POTENTIAL TOTAL3 TEMPAVG PRESSURE GPRESSURE VOLUME PRESSAVG GPRESSAVG
ENERGY: 500000 2.7500 8.6188 22.5030 0.0000 -13466.8804 2086.7715 0.0000 0.0000 901.0413 -10445.1958 153.0289 -11346.2371 -10442.5373 153.0289 -1359.4114 -1311.7225 29351.9822 -1359.4114 -1311.7225
ENERGY: 600000 4.7418 10.6855 17.3491 0.0000 -13223.7974 2132.4128 0.0000 0.0000 1071.5879 -9987.0203 181.9938 -11058.6082 -9984.1239 179.7668 87.4110 149.8904 29004.1949 4.6985 4.7052
TCL: Running 100000 steps at 210 kelvin.
TCL: Setting parameter langevinTemp to 210
TCL: Running for 100000 steps
ETITLE: TS BOND ANGLE DIHED IMPRP ELECT VDW BOUNDARY MISC KINETIC TOTAL TEMP POTENTIAL TOTAL3 TEMPAVG PRESSURE GPRESSURE VOLUME PRESSAVG GPRESSAVG
ENERGY: 600000 4.7418 10.6855 17.3491 0.0000 -13223.7974 2132.4128 0.0000 0.0000 1071.0749 -9987.5333 181.9067 -11058.6082 -9985.3405 181.9067 81.2589 148.6359 29004.1949 81.2589 148.6359
ENERGY: 700000 3.0915 10.7788 16.7630 0.0000 -12421.0499 1828.3438 0.0000 0.0000 1244.1486 -9317.9242 211.3007 -10562.0728 -9317.2373 210.1360 -472.0581 -379.1416 28681.1555 4.9496 5.0877
TCL: Running 100000 steps at 240 kelvin.
TCL: Setting parameter langevinTemp to 240
TCL: Running for 100000 steps
ETITLE: TS BOND ANGLE DIHED IMPRP ELECT VDW BOUNDARY MISC KINETIC TOTAL TEMP POTENTIAL TOTAL3 TEMPAVG PRESSURE GPRESSURE VOLUME PRESSAVG GPRESSAVG
ENERGY: 700000 3.0915 10.7788 16.7630 0.0000 -12421.0499 1828.3438 0.0000 0.0000 1243.5217 -9318.5511 211.1943 -10562.0728 -9315.9978 211.1943 -450.3965 -380.5591 28681.1555 -450.3965 -380.5591
ENERGY: 800000 3.1728 11.2825 22.0528 0.0000 -11884.6286 1696.3425 0.0000 0.0000 1397.3064 -8754.4717 237.3124 -10151.7780 -8751.1720 239.9808 9.9090 90.0613 28917.3480 2.5799 2.4720
TCL: Running 100000 steps at 270 kelvin.
TCL: Setting parameter langevinTemp to 270
TCL: Running for 100000 steps
ETITLE: TS BOND ANGLE DIHED IMPRP ELECT VDW BOUNDARY MISC KINETIC TOTAL TEMP POTENTIAL TOTAL3 TEMPAVG PRESSURE GPRESSURE VOLUME PRESSAVG GPRESSAVG
ENERGY: 800000 3.1728 11.2825 22.0528 0.0000 -11884.6286 1696.3425 0.0000 0.0000 1396.5608 -8755.2172 237.1858 -10151.7780 -8753.1904 237.1858 -1.4561 90.1275 28917.3480 -1.4561 90.1275
ENERGY: 900000 6.5825 9.9836 19.6069 0.0000 -11151.4838 1429.4446 0.0000 0.0000 1594.6503 -8091.2159 270.8284 -9685.8662 -8087.4590 270.2919 -748.7113 -722.3052 29466.6042 2.6870 2.7114
TCL: Running 1000000 steps at 300 kelvin.
TCL: Setting parameter langevinTemp to 300
TCL: Running for 1000000 steps
ETITLE: TS BOND ANGLE DIHED IMPRP ELECT VDW BOUNDARY MISC KINETIC TOTAL TEMP POTENTIAL TOTAL3 TEMPAVG PRESSURE GPRESSURE VOLUME PRESSAVG GPRESSAVG
ENERGY: 900000 6.5825 9.9836 19.6069 0.0000 -11151.4838 1429.4446 0.0000 0.0000 1593.8720 -8091.9942 270.6962 -9685.8662 -8089.4540 270.6962 -802.4090 -722.0214 29466.6042 -802.4090 -722.0214
ENERGY: 1100000 2.5832 12.4814 18.9713 0.0000 -10732.6428 1404.0417 0.0000 0.0000 1797.3324 -7497.2328 305.2510 -9294.5652 -7493.5284 299.9447 -314.6359 -230.0636 30917.6135 2.2626 2.2899
ENERGY: 1300000 5.8443 16.6696 15.8571 0.0000 -10797.4337 1441.3301 0.0000 0.0000 1862.5265 -7455.2061 316.3233 -9317.7326 -7447.3725 300.6347 417.0612 531.6799 30243.3991 3.5658 3.5723
ENERGY: 1500000 5.3856 13.8185 15.0855 0.0000 -10892.8233 1463.5032 0.0000 0.0000 1713.4230 -7681.6075 291.0002 -9395.0305 -7677.8966 299.9949 322.6993 483.5396 29929.4759 2.5131 2.5612
ENERGY: 1700000 3.4978 11.0578 19.4129 0.0000 -10897.8822 1501.5778 0.0000 0.0000 1762.7233 -7599.6127 299.3732 -9362.3360 -7596.7577 299.9422 318.8063 461.3707 30752.4334 2.9842 3.1032
ENERGY: 1900000 9.4197 11.8330 18.8435 0.0000 -10635.3127 1315.8452 0.0000 0.0000 1785.3876 -7493.9838 303.2224 -9279.3713 -7489.7249 299.6706 -720.9171 -542.3116 30607.5377 3.5615 3.7216
TCL: Exiting due to exit command.
