Info: SIMULATION PARAMETERS:
Info: TIMESTEP               2
Info: NUMBER OF STEPS        0
Info: STEPS PER CYCLE        10
Info: PERIODIC CELL BASIS 1  35.89 0 0
Info: PERIODIC CELL BASIS 2  0 34.26 0
Info: PERIODIC CELL BASIS 3  0 0 36.583
Info: PERIODIC CELL CENTER   0 0 0
Info: WRAPPING WATERS AROUND PERIODIC BOUNDARIES ON OUTPUT.
Info: WRAPPING ALL CLUSTERS AROUND PERIODIC BOUNDARIES ON OUTPUT.
Info: FIRST LDB TIMESTEP     50
Info: LAST LDB TIMESTEP     -1
Info: HOM BACKGROUND SCALING 1
Info: PME BACKGROUND SCALING 1
Info: MIN ATOMS PER PATCH    40
Info: EMPTY PATCH LOAD       40 ATOMS
Info: INITIAL TEMPERATURE    300
Info: CENTER OF MASS MOVING INITIALLY? NO
Info: DIELECTRIC             1
Info: EXCLUDE                SCALED ONE-FOUR
Info: 1-4 ELECTROSTATICS SCALED BY 0.833333
Info: MODIFIED 1-4 VDW PARAMETERS WILL BE USED
Info: DCD FILENAME           mobley_5708811_equil.dcd
Info: DCD FREQUENCY          100000
Info: DCD FIRST STEP         100000
Info: DCD FILE WILL CONTAIN UNIT CELL DATA
Info: XST FILENAME           mobley_5708811_equil.xst
Info: XST FREQUENCY          100000
Info: NO VELOCITY DCD OUTPUT
Info: NO FORCE DCD OUTPUT
Info: OUTPUT FILENAME        mobley_5708811_equil
Info: BINARY OUTPUT FILES WILL BE USED
Info: RESTART FILENAME       mobley_5708811_equil.restart
Info: RESTART FREQUENCY      100000
Info: BINARY RESTART FILES WILL BE USED
Info: CUTOFF                 9
Info: PAIRLIST DISTANCE      11
Info: PAIRLIST SHRINK RATE   0.01
Info: PAIRLIST GROW RATE     0.01
Info: PAIRLIST TRIGGER       0.3
Info: PAIRLISTS PER CYCLE    2
Info: PAIRLISTS ENABLED
Info: MARGIN                 8
Info: HYDROGEN GROUP CUTOFF  2.5
Info: PATCH DIMENSION        21.5
Info: ENERGY OUTPUT STEPS    100000
Info: ENERGY EVALUATION STEPS    100000
Info: OUTPUT ENERGY PRECISION 4
Info: CROSSTERM ENERGY INCLUDED IN DIHEDRAL
Info: TIMING OUTPUT STEPS    1000000
Info: PRESSURE OUTPUT STEPS  100000
Info: LANGEVIN DYNAMICS ACTIVE
Info: LANGEVIN TEMPERATURE   30
Info: LANGEVIN USING BBK INTEGRATOR
Info: LANGEVIN DAMPING COEFFICIENT IS 1 INVERSE PS
Info: LANGEVIN DYNAMICS APPLIED TO HYDROGENS
Info: LANGEVIN PISTON PRESSURE CONTROL ACTIVE
Info:        TARGET PRESSURE IS 1.01325 BAR
Info:     OSCILLATION PERIOD IS 50 FS
Info:             DECAY TIME IS 25 FS
Info:     PISTON TEMPERATURE IS 300 K
Info:       PRESSURE CONTROL IS GROUP-BASED
Info:    INITIAL STRAIN RATE IS 0 0 0
Info:       CELL FLUCTUATION IS ISOTROPIC
Info: PARTICLE MESH EWALD (PME) ACTIVE
Info: PME TOLERANCE               1e-06
Info: PME EWALD COEFFICIENT       0.348832
Info: PME INTERPOLATION ORDER     4
Info: PME GRID DIMENSIONS         36 36 40
Info: PME MAXIMUM GRID SPACING    1
Info: FULL ELECTROSTATIC EVALUATION FREQUENCY      2
Info: USING VERLET I (r-RESPA) MTS SCHEME.
Info: C1 SPLITTING OF LONG RANGE ELECTROSTATICS
Info: PLACING ATOMS IN PATCHES BY HYDROGEN GROUPS
Info: RIGID BONDS TO HYDROGEN : ALL
Info:         ERROR TOLERANCE : 1e-08
Info:          MAX ITERATIONS : 100
Info: RIGID WATER USING SETTLE ALGORITHM
Info: RANDOM NUMBER SEED     1743242977
Info: USE HYDROGEN BONDS?    NO
Info: Using AMBER format force field!
Info: AMBER PARM FILE        mobley_5708811.prmtop
Info: COORDINATE PDB         mobley_5708811.pdb
Info: Exclusions will be read from PARM file!
Info: SCNB (VDW SCALING)     2
Info: USING ARITHMETIC MEAN TO COMBINE L-J SIGMA PARAMETERS
Info: BINARY COORDINATES     mobley_5708811_min.coor
Info: SUMMARY OF PARAMETERS:
Info: 12 BONDS
Info: 12 ANGLES
Info:   12 HARMONIC
Info:   0 COSINE-BASED
Info: 7 DIHEDRAL
Info: 0 IMPROPER
Info: 0 CROSSTERM
Info: 0 VDW
Info: 55 VDW_PAIRS
Info: 0 NBTHOLE_PAIRS
Info: STRUCTURE SUMMARY:
Info: 2989 ATOMS
Info: 2989 BONDS
Info: 29 ANGLES
Info: 43 DIHEDRALS
Info: 0 IMPROPERS
Info: 0 CROSSTERMS
Info: 3050 EXCLUSIONS
Info: 2976 RIGID BONDS
Info: 5991 DEGREES OF FREEDOM
Info: 1003 HYDROGEN GROUPS
Info: 4 ATOMS IN LARGEST HYDROGEN GROUP
Info: 1003 MIGRATION GROUPS
Info: 4 ATOMS IN LARGEST MIGRATION GROUP
Info: TOTAL MASS = 18056.9 amu
Info: TOTAL CHARGE = -0.000100004 e
Info: MASS DENSITY = 0.666594 g/cm^3
Info: ATOM DENSITY = 0.0664486 atoms/A^3
Info: ADDED 0 IMPLICIT EXCLUSIONS
Info: NONBONDED TABLE R-SQUARED SPACING: 0.0625
Info: NONBONDED TABLE SIZE: 705 POINTS
Info: REMOVING COM VELOCITY -0.05908 0.0435855 -0.0666095
TCL: Running for 100000 steps
ETITLE: TS BOND ANGLE DIHED IMPRP ELECT VDW BOUNDARY MISC KINETIC TOTAL TEMP POTENTIAL TOTAL3 TEMPAVG PRESSURE GPRESSURE VOLUME PRESSAVG GPRESSAVG
ENERGY: 0 0.5027 1.4026 11.8853 0.0000 -13803.2737 2398.7378 0.0000 0.0000 1795.4425 -9595.3027 301.6217 -11390.7452 -9594.9199 301.6217 415.5283 446.4784 44982.1422 415.5283 446.4784
ENERGY: 100000 0.6661 2.1451 11.1032 0.0000 -14281.7474 2393.1220 0.0000 0.0000 180.8764 -11693.8345 30.3860 -11874.7110 -11693.3033 30.9585 -800.1412 -751.4439 29959.5108 5.2663 5.2665
TCL: Running 100000 steps at 60 kelvin.
TCL: Setting parameter langevinTemp to 60
TCL: Running for 100000 steps
ETITLE: TS BOND ANGLE DIHED IMPRP ELECT VDW BOUNDARY MISC KINETIC TOTAL TEMP POTENTIAL TOTAL3 TEMPAVG PRESSURE GPRESSURE VOLUME PRESSAVG GPRESSAVG
ENERGY: 100000 0.6661 2.1451 11.1032 0.0000 -14281.7474 2393.1220 0.0000 0.0000 180.7894 -11693.9216 30.3713 -11874.7110 -11693.5214 30.3713 -803.2503 -751.5361 29959.5108 -803.2503 -751.5361
ENERGY: 200000 0.8732 4.7934 11.6031 0.0000 -14273.9104 2461.7682 0.0000 0.0000 364.2243 -11430.6483 61.1871 -11794.8726 -11429.6950 59.8129 101.1343 125.1895 29547.0826 4.9769 4.9006
TCL: Running 100000 steps at 90 kelvin.
TCL: Setting parameter langevinTemp to 90
TCL: Running for 100000 steps
ETITLE: TS BOND ANGLE DIHED IMPRP ELECT VDW BOUNDARY MISC KINETIC TOTAL TEMP POTENTIAL TOTAL3 TEMPAVG PRESSURE GPRESSURE VOLUME PRESSAVG GPRESSAVG
ENERGY: 200000 0.8732 4.7934 11.6031 0.0000 -14273.9104 2461.7682 0.0000 0.0000 364.0517 -11430.8209 61.1581 -11794.8726 -11429.8682 61.1581 85.5216 124.7589 29547.0826 85.5216 124.7589
ENERGY: 300000 1.9287 3.2137 13.7616 0.0000 -14219.7400 2500.7355 0.0000 0.0000 532.0041 -11168.0965 89.3729 -11700.1006 -11167.0077 89.9794 892.6381 901.1262 29168.1480 3.3057 3.2944
TCL: Running 100000 steps at 120 kelvin.
TCL: Setting parameter langevinTemp to 120
TCL: Running for 100000 steps
ETITLE: TS BOND ANGLE DIHED IMPRP ELECT VDW BOUNDARY MISC KINETIC TOTAL TEMP POTENTIAL TOTAL3 TEMPAVG PRESSURE GPRESSURE VOLUME PRESSAVG GPRESSAVG
ENERGY: 300000 1.9287 3.2137 13.7616 0.0000 -14219.7400 2500.7355 0.0000 0.0000 531.7409 -11168.3597 89.3287 -11700.1006 -11167.2747 89.3287 852.8714 901.3126 29168.1480 852.8714 901.3126
ENERGY: 400000 1.7524 4.3241 12.1939 0.0000 -13956.4432 2380.0617 0.0000 0.0000 698.3623 -10859.7489 117.3199 -11558.1112 -10858.6150 120.2947 194.1320 244.5143 29528.2258 5.0524 5.1889
TCL: Running 100000 steps at 150 kelvin.
TCL: Setting parameter langevinTemp to 150
TCL: Running for 100000 steps
ETITLE: TS BOND ANGLE DIHED IMPRP ELECT VDW BOUNDARY MISC KINETIC TOTAL TEMP POTENTIAL TOTAL3 TEMPAVG PRESSURE GPRESSURE VOLUME PRESSAVG GPRESSAVG
ENERGY: 400000 1.7524 4.3241 12.1939 0.0000 -13956.4432 2380.0617 0.0000 0.0000 698.0018 -10860.1094 117.2594 -11558.1112 -10858.7349 117.2594 192.2961 244.2757 29528.2258 192.2961 244.2757
ENERGY: 500000 4.1702 4.3589 11.3894 0.0000 -13767.2917 2311.1363 0.0000 0.0000 904.1111 -10532.1257 151.8843 -11436.2368 -10530.2002 149.9997 417.8004 476.2388 28974.0294 5.2717 5.2316
TCL: Running 100000 steps at 180 kelvin.
TCL: Setting parameter langevinTemp to 180
TCL: Running for 100000 steps
ETITLE: TS BOND ANGLE DIHED IMPRP ELECT VDW BOUNDARY MISC KINETIC TOTAL TEMP POTENTIAL TOTAL3 TEMPAVG PRESSURE GPRESSURE VOLUME PRESSAVG GPRESSAVG
ENERGY: 500000 4.1702 4.3589 11.3894 0.0000 -13767.2917 2311.1363 0.0000 0.0000 903.6406 -10532.5962 151.8053 -11436.2368 -10531.1613 151.8053 427.6729 476.2971 28974.0294 427.6729 476.2971
ENERGY: 600000 0.9625 7.1780 13.6757 0.0000 -13132.6827 1954.9902 0.0000 0.0000 1061.1270 -10094.7493 178.2619 -11155.8763 -10092.0781 180.1112 -1531.3848 -1464.9629 29357.8104 3.7398 3.8798
TCL: Running 100000 steps at 210 kelvin.
TCL: Setting parameter langevinTemp to 210
TCL: Running for 100000 steps
ETITLE: TS BOND ANGLE DIHED IMPRP ELECT VDW BOUNDARY MISC KINETIC TOTAL TEMP POTENTIAL TOTAL3 TEMPAVG PRESSURE GPRESSURE VOLUME PRESSAVG GPRESSAVG
ENERGY: 600000 0.9625 7.1780 13.6757 0.0000 -13132.6827 1954.9902 0.0000 0.0000 1060.6228 -10095.2535 178.1772 -11155.8763 -10092.6199 178.1772 -1517.2796 -1464.4031 29357.8104 -1517.2796 -1464.4031
ENERGY: 700000 3.2464 3.2109 16.3808 0.0000 -12722.2342 2012.5761 0.0000 0.0000 1304.7437 -9382.0763 219.1878 -10686.8201 -9378.9083 210.0643 893.7456 942.6309 28997.8217 4.0799 4.1065
TCL: Running 100000 steps at 240 kelvin.
TCL: Setting parameter langevinTemp to 240
TCL: Running for 100000 steps
ETITLE: TS BOND ANGLE DIHED IMPRP ELECT VDW BOUNDARY MISC KINETIC TOTAL TEMP POTENTIAL TOTAL3 TEMPAVG PRESSURE GPRESSURE VOLUME PRESSAVG GPRESSAVG
ENERGY: 700000 3.2464 3.2109 16.3808 0.0000 -12722.2342 2012.5761 0.0000 0.0000 1304.1376 -9382.6825 219.0859 -10686.8201 -9380.8131 219.0859 867.8790 943.3196 28997.8217 867.8790 943.3196
ENERGY: 800000 1.9589 5.3454 15.7794 0.0000 -11890.8832 1678.1528 0.0000 0.0000 1406.2872 -8783.3596 236.2463 -10189.6468 -8781.9301 239.5671 -294.4348 -173.7651 29411.2446 4.4458 4.4434
TCL: Running 100000 steps at 270 kelvin.
TCL: Setting parameter langevinTemp to 270
TCL: Running for 100000 steps
ETITLE: TS BOND ANGLE DIHED IMPRP ELECT VDW BOUNDARY MISC KINETIC TOTAL TEMP POTENTIAL TOTAL3 TEMPAVG PRESSURE GPRESSURE VOLUME PRESSAVG GPRESSAVG
ENERGY: 800000 1.9589 5.3454 15.7794 0.0000 -11890.8832 1678.1528 0.0000 0.0000 1405.5751 -8784.0717 236.1267 -10189.6468 -8781.3699 236.1267 -246.8451 -174.3813 29411.2446 -246.8451 -174.3813
ENERGY: 900000 4.2551 5.6390 12.9031 0.0000 -11289.2720 1537.7754 0.0000 0.0000 1598.3237 -8130.3759 268.5071 -9728.6995 -8126.8136 270.1869 -375.0583 -306.9103 30348.0238 5.0633 5.1691
TCL: Running 1000000 steps at 300 kelvin.
TCL: Setting parameter langevinTemp to 300
TCL: Running for 1000000 steps
ETITLE: TS BOND ANGLE DIHED IMPRP ELECT VDW BOUNDARY MISC KINETIC TOTAL TEMP POTENTIAL TOTAL3 TEMPAVG PRESSURE GPRESSURE VOLUME PRESSAVG GPRESSAVG
ENERGY: 900000 4.2551 5.6390 12.9031 0.0000 -11289.2720 1537.7754 0.0000 0.0000 1597.5571 -8131.1425 268.3783 -9728.6995 -8128.3396 268.3783 -392.6234 -306.1458 30348.0238 -392.6234 -306.1458
ENERGY: 1100000 4.6555 4.2658 15.5660 0.0000 -10851.1959 1459.9569 0.0000 0.0000 1799.5604 -7567.1914 302.3135 -9366.7518 -7566.2583 299.9602 100.3387 171.9021 30934.5340 3.5096 3.4510
ENERGY: 1300000 6.2740 6.8640 12.7837 0.0000 -10937.4526 1520.2246 0.0000 0.0000 1749.4493 -7641.8568 293.8952 -9391.3062 -7638.6380 299.9491 555.3025 609.6249 30791.0202 3.8485 3.7544
ENERGY: 1500000 6.5503 4.1182 16.9419 0.0000 -10972.9437 1481.7758 0.0000 0.0000 1758.8317 -7704.7259 295.4713 -9463.5576 -7700.0012 299.7956 214.9182 279.5769 30536.4546 3.4032 3.3513
ENERGY: 1700000 3.7888 8.2938 13.8288 0.0000 -10853.3440 1456.2119 0.0000 0.0000 1846.4694 -7524.7512 310.1939 -9371.2206 -7518.9502 300.1406 323.0124 458.5501 30386.3043 3.3320 3.2419
ENERGY: 1900000 3.9507 7.5451 16.0716 0.0000 -10833.2711 1495.4603 0.0000 0.0000 1813.5088 -7496.7346 304.6567 -9310.2434 -7492.5607 300.6361 450.3962 491.4673 30885.6156 2.9632 2.7710
TCL: Exiting due to exit command.
