Info: SIMULATION PARAMETERS:
Info: TIMESTEP               2
Info: NUMBER OF STEPS        0
Info: STEPS PER CYCLE        10
Info: PERIODIC CELL BASIS 1  36.005 0 0
Info: PERIODIC CELL BASIS 2  0 34.26 0
Info: PERIODIC CELL BASIS 3  0 0 36.199
Info: PERIODIC CELL CENTER   0 0 0
Info: WRAPPING WATERS AROUND PERIODIC BOUNDARIES ON OUTPUT.
Info: WRAPPING ALL CLUSTERS AROUND PERIODIC BOUNDARIES ON OUTPUT.
Info: FIRST LDB TIMESTEP     50
Info: LAST LDB TIMESTEP     -1
Info: HOM BACKGROUND SCALING 1
Info: PME BACKGROUND SCALING 1
Info: MIN ATOMS PER PATCH    40
Info: EMPTY PATCH LOAD       40 ATOMS
Info: INITIAL TEMPERATURE    300
Info: CENTER OF MASS MOVING INITIALLY? NO
Info: DIELECTRIC             1
Info: EXCLUDE                SCALED ONE-FOUR
Info: 1-4 ELECTROSTATICS SCALED BY 0.833333
Info: MODIFIED 1-4 VDW PARAMETERS WILL BE USED
Info: DCD FILENAME           mobley_4584540_equil.dcd
Info: DCD FREQUENCY          100000
Info: DCD FIRST STEP         100000
Info: DCD FILE WILL CONTAIN UNIT CELL DATA
Info: XST FILENAME           mobley_4584540_equil.xst
Info: XST FREQUENCY          100000
Info: NO VELOCITY DCD OUTPUT
Info: NO FORCE DCD OUTPUT
Info: OUTPUT FILENAME        mobley_4584540_equil
Info: BINARY OUTPUT FILES WILL BE USED
Info: RESTART FILENAME       mobley_4584540_equil.restart
Info: RESTART FREQUENCY      100000
Info: BINARY RESTART FILES WILL BE USED
Info: CUTOFF                 9
Info: PAIRLIST DISTANCE      11
Info: PAIRLIST SHRINK RATE   0.01
Info: PAIRLIST GROW RATE     0.01
Info: PAIRLIST TRIGGER       0.3
Info: PAIRLISTS PER CYCLE    2
Info: PAIRLISTS ENABLED
Info: MARGIN                 8
Info: HYDROGEN GROUP CUTOFF  2.5
Info: PATCH DIMENSION        21.5
Info: ENERGY OUTPUT STEPS    100000
Info: ENERGY EVALUATION STEPS    100000
Info: OUTPUT ENERGY PRECISION 4
Info: CROSSTERM ENERGY INCLUDED IN DIHEDRAL
Info: TIMING OUTPUT STEPS    1000000
Info: PRESSURE OUTPUT STEPS  100000
Info: LANGEVIN DYNAMICS ACTIVE
Info: LANGEVIN TEMPERATURE   30
Info: LANGEVIN USING BBK INTEGRATOR
Info: LANGEVIN DAMPING COEFFICIENT IS 1 INVERSE PS
Info: LANGEVIN DYNAMICS APPLIED TO HYDROGENS
Info: LANGEVIN PISTON PRESSURE CONTROL ACTIVE
Info:        TARGET PRESSURE IS 1.01325 BAR
Info:     OSCILLATION PERIOD IS 50 FS
Info:             DECAY TIME IS 25 FS
Info:     PISTON TEMPERATURE IS 300 K
Info:       PRESSURE CONTROL IS GROUP-BASED
Info:    INITIAL STRAIN RATE IS 0 0 0
Info:       CELL FLUCTUATION IS ISOTROPIC
Info: PARTICLE MESH EWALD (PME) ACTIVE
Info: PME TOLERANCE               1e-06
Info: PME EWALD COEFFICIENT       0.348832
Info: PME INTERPOLATION ORDER     4
Info: PME GRID DIMENSIONS         40 36 40
Info: PME MAXIMUM GRID SPACING    1
Info: FULL ELECTROSTATIC EVALUATION FREQUENCY      2
Info: USING VERLET I (r-RESPA) MTS SCHEME.
Info: C1 SPLITTING OF LONG RANGE ELECTROSTATICS
Info: PLACING ATOMS IN PATCHES BY HYDROGEN GROUPS
Info: RIGID BONDS TO HYDROGEN : ALL
Info:         ERROR TOLERANCE : 1e-08
Info:          MAX ITERATIONS : 100
Info: RIGID WATER USING SETTLE ALGORITHM
Info: RANDOM NUMBER SEED     1743213822
Info: USE HYDROGEN BONDS?    NO
Info: Using AMBER format force field!
Info: AMBER PARM FILE        mobley_4584540.prmtop
Info: COORDINATE PDB         mobley_4584540.pdb
Info: Exclusions will be read from PARM file!
Info: SCNB (VDW SCALING)     2
Info: USING ARITHMETIC MEAN TO COMBINE L-J SIGMA PARAMETERS
Info: BINARY COORDINATES     mobley_4584540_min.coor
Info: SUMMARY OF PARAMETERS:
Info: 7 BONDS
Info: 8 ANGLES
Info:   8 HARMONIC
Info:   0 COSINE-BASED
Info: 4 DIHEDRAL
Info: 0 IMPROPER
Info: 0 CROSSTERM
Info: 0 VDW
Info: 28 VDW_PAIRS
Info: 0 NBTHOLE_PAIRS
Info: STRUCTURE SUMMARY:
Info: 2981 ATOMS
Info: 2981 BONDS
Info: 28 ANGLES
Info: 37 DIHEDRALS
Info: 0 IMPROPERS
Info: 0 CROSSTERMS
Info: 3038 EXCLUSIONS
Info: 2973 RIGID BONDS
Info: 5970 DEGREES OF FREEDOM
Info: 996 HYDROGEN GROUPS
Info: 4 ATOMS IN LARGEST HYDROGEN GROUP
Info: 996 MIGRATION GROUPS
Info: 4 ATOMS IN LARGEST MIGRATION GROUP
Info: TOTAL MASS = 17907 amu
Info: TOTAL CHARGE = -0.000499979 e
Info: MASS DENSITY = 0.665939 g/cm^3
Info: ATOM DENSITY = 0.0667598 atoms/A^3
Info: ADDED 0 IMPLICIT EXCLUSIONS
Info: NONBONDED TABLE R-SQUARED SPACING: 0.0625
Info: NONBONDED TABLE SIZE: 705 POINTS
Info: REMOVING COM VELOCITY 0.167633 -0.0631007 -0.0340512
TCL: Running for 100000 steps
ETITLE: TS BOND ANGLE DIHED IMPRP ELECT VDW BOUNDARY MISC KINETIC TOTAL TEMP POTENTIAL TOTAL3 TEMPAVG PRESSURE GPRESSURE VOLUME PRESSAVG GPRESSAVG
ENERGY: 0 0.1443 0.2555 0.0973 0.0000 -13798.5632 2405.9679 0.0000 0.0000 1764.2905 -9627.8078 297.4309 -11392.0983 -9627.4454 297.4309 243.3401 279.1307 44652.5995 243.3401 279.1307
ENERGY: 100000 0.2205 0.6739 0.2038 0.0000 -14458.4509 2557.9255 0.0000 0.0000 181.8265 -11717.6007 30.6530 -11899.4272 -11717.0415 30.8617 389.2959 442.8451 29121.6413 4.0237 4.0813
TCL: Running 100000 steps at 60 kelvin.
TCL: Setting parameter langevinTemp to 60
TCL: Running for 100000 steps
ETITLE: TS BOND ANGLE DIHED IMPRP ELECT VDW BOUNDARY MISC KINETIC TOTAL TEMP POTENTIAL TOTAL3 TEMPAVG PRESSURE GPRESSURE VOLUME PRESSAVG GPRESSAVG
ENERGY: 100000 0.2205 0.6739 0.2038 0.0000 -14458.4509 2557.9255 0.0000 0.0000 181.7435 -11717.6837 30.6390 -11899.4272 -11717.3091 30.6390 386.3781 443.0002 29121.6413 386.3781 443.0002
ENERGY: 200000 0.4337 1.5491 0.6605 0.0000 -14401.9871 2573.4405 0.0000 0.0000 355.8829 -11470.0204 59.9961 -11825.9034 -11469.5887 59.8817 997.9776 1082.7654 28892.1937 5.0543 5.1398
TCL: Running 100000 steps at 90 kelvin.
TCL: Setting parameter langevinTemp to 90
TCL: Running for 100000 steps
ETITLE: TS BOND ANGLE DIHED IMPRP ELECT VDW BOUNDARY MISC KINETIC TOTAL TEMP POTENTIAL TOTAL3 TEMPAVG PRESSURE GPRESSURE VOLUME PRESSAVG GPRESSAVG
ENERGY: 200000 0.4337 1.5491 0.6605 0.0000 -14401.9871 2573.4405 0.0000 0.0000 355.7108 -11470.1926 59.9671 -11825.9034 -11469.6109 59.9671 1028.8510 1082.5397 28892.1937 1028.8510 1082.5397
ENERGY: 300000 0.7339 1.8109 0.6027 0.0000 -14215.5465 2470.9592 0.0000 0.0000 544.6117 -11196.8280 91.8128 -11741.4397 -11195.5790 90.0379 608.8447 633.8200 28721.6926 5.4331 5.4271
TCL: Running 100000 steps at 120 kelvin.
TCL: Setting parameter langevinTemp to 120
TCL: Running for 100000 steps
ETITLE: TS BOND ANGLE DIHED IMPRP ELECT VDW BOUNDARY MISC KINETIC TOTAL TEMP POTENTIAL TOTAL3 TEMPAVG PRESSURE GPRESSURE VOLUME PRESSAVG GPRESSAVG
ENERGY: 300000 0.7339 1.8109 0.6027 0.0000 -14215.5465 2470.9592 0.0000 0.0000 544.3597 -11197.0801 91.7703 -11741.4397 -11195.9228 91.7703 575.1126 633.5972 28721.6926 575.1126 633.5972
ENERGY: 400000 0.5847 1.4581 0.5387 0.0000 -13954.7564 2330.5417 0.0000 0.0000 706.3704 -10915.2628 119.0827 -11621.6332 -10913.3819 119.9954 -227.2616 -168.2864 28905.7824 4.8594 4.7351
TCL: Running 100000 steps at 150 kelvin.
TCL: Setting parameter langevinTemp to 150
TCL: Running for 100000 steps
ETITLE: TS BOND ANGLE DIHED IMPRP ELECT VDW BOUNDARY MISC KINETIC TOTAL TEMP POTENTIAL TOTAL3 TEMPAVG PRESSURE GPRESSURE VOLUME PRESSAVG GPRESSAVG
ENERGY: 400000 0.5847 1.4581 0.5387 0.0000 -13954.7564 2330.5417 0.0000 0.0000 706.0093 -10915.6239 119.0218 -11621.6332 -10914.1510 119.0218 -220.1181 -168.4962 28905.7824 -220.1181 -168.4962
ENERGY: 500000 0.6935 4.9724 1.5796 0.0000 -13683.4848 2274.1808 0.0000 0.0000 897.4642 -10504.5943 151.2980 -11402.0586 -10502.0313 149.9900 -130.9248 -91.1845 29334.2957 5.1069 5.0573
TCL: Running 100000 steps at 180 kelvin.
TCL: Setting parameter langevinTemp to 180
TCL: Running for 100000 steps
ETITLE: TS BOND ANGLE DIHED IMPRP ELECT VDW BOUNDARY MISC KINETIC TOTAL TEMP POTENTIAL TOTAL3 TEMPAVG PRESSURE GPRESSURE VOLUME PRESSAVG GPRESSAVG
ENERGY: 500000 0.6935 4.9724 1.5796 0.0000 -13683.4848 2274.1808 0.0000 0.0000 897.0351 -10505.0235 151.2257 -11402.0586 -10503.1076 151.2257 -156.7321 -90.6502 29334.2957 -156.7321 -90.6502
ENERGY: 600000 2.7591 4.9848 1.2994 0.0000 -13308.3007 2150.5054 0.0000 0.0000 1096.7288 -10052.0232 184.8908 -11148.7520 -10048.7322 180.2407 22.4035 126.8722 29357.4658 4.4996 4.4725
TCL: Running 100000 steps at 210 kelvin.
TCL: Setting parameter langevinTemp to 210
TCL: Running for 100000 steps
ETITLE: TS BOND ANGLE DIHED IMPRP ELECT VDW BOUNDARY MISC KINETIC TOTAL TEMP POTENTIAL TOTAL3 TEMPAVG PRESSURE GPRESSURE VOLUME PRESSAVG GPRESSAVG
ENERGY: 600000 2.7591 4.9848 1.2994 0.0000 -13308.3007 2150.5054 0.0000 0.0000 1096.1740 -10052.5780 184.7973 -11148.7520 -10050.6084 184.7973 59.9951 127.2236 29357.4658 59.9951 127.2236
ENERGY: 700000 4.7292 4.4687 1.6049 0.0000 -12524.1971 1886.3730 0.0000 0.0000 1226.6587 -9400.3627 206.7949 -10627.0214 -9398.4822 209.6763 -218.0216 -189.0039 29064.9432 2.8712 2.6992
TCL: Running 100000 steps at 240 kelvin.
TCL: Setting parameter langevinTemp to 240
TCL: Running for 100000 steps
ETITLE: TS BOND ANGLE DIHED IMPRP ELECT VDW BOUNDARY MISC KINETIC TOTAL TEMP POTENTIAL TOTAL3 TEMPAVG PRESSURE GPRESSURE VOLUME PRESSAVG GPRESSAVG
ENERGY: 700000 4.7292 4.4687 1.6049 0.0000 -12524.1971 1886.3730 0.0000 0.0000 1226.0303 -9400.9911 206.6889 -10627.0214 -9398.8547 206.6889 -274.3683 -189.8479 29064.9432 -274.3683 -189.8479
ENERGY: 800000 1.2940 3.7271 3.3369 0.0000 -11887.3962 1715.7446 0.0000 0.0000 1450.6985 -8712.5951 244.5644 -10163.2936 -8709.6829 240.0191 -33.2075 61.7777 29502.8156 3.1577 3.3125
TCL: Running 100000 steps at 270 kelvin.
TCL: Setting parameter langevinTemp to 270
TCL: Running for 100000 steps
ETITLE: TS BOND ANGLE DIHED IMPRP ELECT VDW BOUNDARY MISC KINETIC TOTAL TEMP POTENTIAL TOTAL3 TEMPAVG PRESSURE GPRESSURE VOLUME PRESSAVG GPRESSAVG
ENERGY: 800000 1.2940 3.7271 3.3369 0.0000 -11887.3962 1715.7446 0.0000 0.0000 1450.0231 -8713.2705 244.4505 -10163.2936 -8711.4084 244.4505 -21.9897 60.9819 29502.8156 -21.9897 60.9819
ENERGY: 900000 4.2263 5.9120 3.4273 0.0000 -11465.4083 1637.5733 0.0000 0.0000 1537.9907 -8276.2787 259.2804 -9814.2694 -8273.6145 270.7043 368.3436 429.3630 29770.5518 2.4816 2.5587
TCL: Running 1000000 steps at 300 kelvin.
TCL: Setting parameter langevinTemp to 300
TCL: Running for 1000000 steps
ETITLE: TS BOND ANGLE DIHED IMPRP ELECT VDW BOUNDARY MISC KINETIC TOTAL TEMP POTENTIAL TOTAL3 TEMPAVG PRESSURE GPRESSURE VOLUME PRESSAVG GPRESSAVG
ENERGY: 900000 4.2263 5.9120 3.4273 0.0000 -11465.4083 1637.5733 0.0000 0.0000 1537.2183 -8277.0512 259.1502 -9814.2694 -8274.8928 259.1502 344.2401 429.7880 29770.5518 344.2401 429.7880
ENERGY: 1100000 2.2566 4.7468 1.7782 0.0000 -10827.5992 1432.8592 0.0000 0.0000 1813.6927 -7572.2658 305.7594 -9385.9585 -7569.8595 300.2720 -135.2011 -61.6989 30761.9523 2.8481 2.7850
ENERGY: 1300000 4.5459 4.4485 2.2878 0.0000 -11041.6310 1556.0137 0.0000 0.0000 1826.1126 -7648.2224 307.8532 -9474.3351 -7642.3036 300.0940 796.5453 875.3157 30386.4129 4.2023 4.0010
ENERGY: 1500000 2.9066 6.9765 1.1220 0.0000 -10958.8695 1487.3558 0.0000 0.0000 1720.2749 -7740.2337 290.0106 -9460.5086 -7738.1746 300.3270 -196.1851 -132.1620 30741.7459 3.3555 3.3154
ENERGY: 1700000 4.1584 4.8885 4.8583 0.0000 -10865.9641 1517.8968 0.0000 0.0000 1810.1104 -7524.0518 305.1554 -9334.1622 -7519.1153 300.2364 706.8715 807.6584 30496.6019 3.3282 3.2705
ENERGY: 1900000 2.5015 5.6977 1.2616 0.0000 -10765.9307 1413.5777 0.0000 0.0000 1750.1984 -7592.6937 295.0552 -9342.8921 -7589.1456 300.2517 -398.6667 -285.1190 31182.7250 2.4249 2.6092
TCL: Exiting due to exit command.
