Info: SIMULATION PARAMETERS:
Info: TIMESTEP               2
Info: NUMBER OF STEPS        0
Info: STEPS PER CYCLE        10
Info: PERIODIC CELL BASIS 1  34.207 0 0
Info: PERIODIC CELL BASIS 2  0 33.542 0
Info: PERIODIC CELL BASIS 3  0 0 38.379
Info: PERIODIC CELL CENTER   0 0 0
Info: WRAPPING WATERS AROUND PERIODIC BOUNDARIES ON OUTPUT.
Info: WRAPPING ALL CLUSTERS AROUND PERIODIC BOUNDARIES ON OUTPUT.
Info: FIRST LDB TIMESTEP     50
Info: LAST LDB TIMESTEP     -1
Info: HOM BACKGROUND SCALING 1
Info: PME BACKGROUND SCALING 1
Info: MIN ATOMS PER PATCH    40
Info: EMPTY PATCH LOAD       40 ATOMS
Info: INITIAL TEMPERATURE    300
Info: CENTER OF MASS MOVING INITIALLY? NO
Info: DIELECTRIC             1
Info: EXCLUDE                SCALED ONE-FOUR
Info: 1-4 ELECTROSTATICS SCALED BY 0.833333
Info: MODIFIED 1-4 VDW PARAMETERS WILL BE USED
Info: DCD FILENAME           mobley_2923700_equil.dcd
Info: DCD FREQUENCY          100000
Info: DCD FIRST STEP         100000
Info: DCD FILE WILL CONTAIN UNIT CELL DATA
Info: XST FILENAME           mobley_2923700_equil.xst
Info: XST FREQUENCY          100000
Info: NO VELOCITY DCD OUTPUT
Info: NO FORCE DCD OUTPUT
Info: OUTPUT FILENAME        mobley_2923700_equil
Info: BINARY OUTPUT FILES WILL BE USED
Info: RESTART FILENAME       mobley_2923700_equil.restart
Info: RESTART FREQUENCY      100000
Info: BINARY RESTART FILES WILL BE USED
Info: CUTOFF                 9
Info: PAIRLIST DISTANCE      11
Info: PAIRLIST SHRINK RATE   0.01
Info: PAIRLIST GROW RATE     0.01
Info: PAIRLIST TRIGGER       0.3
Info: PAIRLISTS PER CYCLE    2
Info: PAIRLISTS ENABLED
Info: MARGIN                 8
Info: HYDROGEN GROUP CUTOFF  2.5
Info: PATCH DIMENSION        21.5
Info: ENERGY OUTPUT STEPS    100000
Info: ENERGY EVALUATION STEPS    100000
Info: OUTPUT ENERGY PRECISION 4
Info: CROSSTERM ENERGY INCLUDED IN DIHEDRAL
Info: TIMING OUTPUT STEPS    1000000
Info: PRESSURE OUTPUT STEPS  100000
Info: LANGEVIN DYNAMICS ACTIVE
Info: LANGEVIN TEMPERATURE   30
Info: LANGEVIN USING BBK INTEGRATOR
Info: LANGEVIN DAMPING COEFFICIENT IS 1 INVERSE PS
Info: LANGEVIN DYNAMICS APPLIED TO HYDROGENS
Info: LANGEVIN PISTON PRESSURE CONTROL ACTIVE
Info:        TARGET PRESSURE IS 1.01325 BAR
Info:     OSCILLATION PERIOD IS 50 FS
Info:             DECAY TIME IS 25 FS
Info:     PISTON TEMPERATURE IS 300 K
Info:       PRESSURE CONTROL IS GROUP-BASED
Info:    INITIAL STRAIN RATE IS 0 0 0
Info:       CELL FLUCTUATION IS ISOTROPIC
Info: PARTICLE MESH EWALD (PME) ACTIVE
Info: PME TOLERANCE               1e-06
Info: PME EWALD COEFFICIENT       0.348832
Info: PME INTERPOLATION ORDER     4
Info: PME GRID DIMENSIONS         36 36 40
Info: PME MAXIMUM GRID SPACING    1
Info: FULL ELECTROSTATIC EVALUATION FREQUENCY      2
Info: USING VERLET I (r-RESPA) MTS SCHEME.
Info: C1 SPLITTING OF LONG RANGE ELECTROSTATICS
Info: PLACING ATOMS IN PATCHES BY HYDROGEN GROUPS
Info: RIGID BONDS TO HYDROGEN : ALL
Info:         ERROR TOLERANCE : 1e-08
Info:          MAX ITERATIONS : 100
Info: RIGID WATER USING SETTLE ALGORITHM
Info: RANDOM NUMBER SEED     1743233853
Info: USE HYDROGEN BONDS?    NO
Info: Using AMBER format force field!
Info: AMBER PARM FILE        mobley_2923700.prmtop
Info: COORDINATE PDB         mobley_2923700.pdb
Info: Exclusions will be read from PARM file!
Info: SCNB (VDW SCALING)     2
Info: USING ARITHMETIC MEAN TO COMBINE L-J SIGMA PARAMETERS
Info: BINARY COORDINATES     mobley_2923700_min.coor
Info: SUMMARY OF PARAMETERS:
Info: 9 BONDS
Info: 9 ANGLES
Info:   9 HARMONIC
Info:   0 COSINE-BASED
Info: 6 DIHEDRAL
Info: 0 IMPROPER
Info: 0 CROSSTERM
Info: 0 VDW
Info: 28 VDW_PAIRS
Info: 0 NBTHOLE_PAIRS
Info: STRUCTURE SUMMARY:
Info: 2989 ATOMS
Info: 2989 BONDS
Info: 31 ANGLES
Info: 47 DIHEDRALS
Info: 0 IMPROPERS
Info: 0 CROSSTERMS
Info: 3058 EXCLUSIONS
Info: 2980 RIGID BONDS
Info: 5987 DEGREES OF FREEDOM
Info: 999 HYDROGEN GROUPS
Info: 4 ATOMS IN LARGEST HYDROGEN GROUP
Info: 999 MIGRATION GROUPS
Info: 4 ATOMS IN LARGEST MIGRATION GROUP
Info: TOTAL MASS = 17958 amu
Info: TOTAL CHARGE = -9.99607e-05 e
Info: MASS DENSITY = 0.677204 g/cm^3
Info: ATOM DENSITY = 0.0678779 atoms/A^3
Info: ADDED 0 IMPLICIT EXCLUSIONS
Info: NONBONDED TABLE R-SQUARED SPACING: 0.0625
Info: NONBONDED TABLE SIZE: 705 POINTS
Info: REMOVING COM VELOCITY -0.0723983 -0.189399 0.0932442
TCL: Running for 100000 steps
ETITLE: TS BOND ANGLE DIHED IMPRP ELECT VDW BOUNDARY MISC KINETIC TOTAL TEMP POTENTIAL TOTAL3 TEMPAVG PRESSURE GPRESSURE VOLUME PRESSAVG GPRESSAVG
ENERGY: 0 0.1349 0.2330 0.7025 0.0000 -13845.8039 2447.8567 0.0000 0.0000 1739.0158 -9657.8611 292.3376 -11396.8768 -9657.5398 292.3376 637.4546 670.8435 44034.9591 637.4546 670.8435
ENERGY: 100000 0.4906 0.8255 0.7397 0.0000 -14392.1819 2457.8149 0.0000 0.0000 181.3966 -11750.9145 30.4937 -11932.3111 -11750.4859 30.8911 -465.3855 -399.9699 28985.6172 3.8316 3.7841
TCL: Running 100000 steps at 60 kelvin.
TCL: Setting parameter langevinTemp to 60
TCL: Running for 100000 steps
ETITLE: TS BOND ANGLE DIHED IMPRP ELECT VDW BOUNDARY MISC KINETIC TOTAL TEMP POTENTIAL TOTAL3 TEMPAVG PRESSURE GPRESSURE VOLUME PRESSAVG GPRESSAVG
ENERGY: 100000 0.4906 0.8255 0.7397 0.0000 -14392.1819 2457.8149 0.0000 0.0000 181.3068 -11751.0043 30.4786 -11932.3111 -11750.5107 30.4786 -469.8488 -400.1780 28985.6172 -469.8488 -400.1780
ENERGY: 200000 1.2382 1.5890 1.6892 0.0000 -14368.9031 2529.0289 0.0000 0.0000 369.4029 -11465.9549 62.0985 -11835.3578 -11465.1520 59.9545 674.4641 715.1956 28761.8056 3.9536 3.8463
TCL: Running 100000 steps at 90 kelvin.
TCL: Setting parameter langevinTemp to 90
TCL: Running for 100000 steps
ETITLE: TS BOND ANGLE DIHED IMPRP ELECT VDW BOUNDARY MISC KINETIC TOTAL TEMP POTENTIAL TOTAL3 TEMPAVG PRESSURE GPRESSURE VOLUME PRESSAVG GPRESSAVG
ENERGY: 200000 1.2382 1.5890 1.6892 0.0000 -14368.9031 2529.0289 0.0000 0.0000 369.2263 -11466.1315 62.0689 -11835.3578 -11465.2516 62.0689 655.6686 715.2248 28761.8056 655.6686 715.2248
ENERGY: 300000 1.0763 2.2229 2.1737 0.0000 -14084.4075 2337.5980 0.0000 0.0000 558.8813 -11182.4554 93.9508 -11741.3367 -11180.7959 90.0934 -553.4192 -491.6276 28891.5558 2.9635 2.9842
TCL: Running 100000 steps at 120 kelvin.
TCL: Setting parameter langevinTemp to 120
TCL: Running for 100000 steps
ETITLE: TS BOND ANGLE DIHED IMPRP ELECT VDW BOUNDARY MISC KINETIC TOTAL TEMP POTENTIAL TOTAL3 TEMPAVG PRESSURE GPRESSURE VOLUME PRESSAVG GPRESSAVG
ENERGY: 300000 1.0763 2.2229 2.1737 0.0000 -14084.4075 2337.5980 0.0000 0.0000 558.6196 -11182.7171 93.9068 -11741.3367 -11181.6571 93.9068 -552.7514 -492.1974 28891.5558 -552.7514 -492.1974
ENERGY: 400000 0.9023 3.2936 1.0082 0.0000 -13959.1989 2363.8203 0.0000 0.0000 711.5644 -10878.6101 119.6177 -11590.1745 -10877.0016 119.8567 267.3303 293.5236 28900.2160 4.0283 4.0222
TCL: Running 100000 steps at 150 kelvin.
TCL: Setting parameter langevinTemp to 150
TCL: Running for 100000 steps
ETITLE: TS BOND ANGLE DIHED IMPRP ELECT VDW BOUNDARY MISC KINETIC TOTAL TEMP POTENTIAL TOTAL3 TEMPAVG PRESSURE GPRESSURE VOLUME PRESSAVG GPRESSAVG
ENERGY: 400000 0.9023 3.2936 1.0082 0.0000 -13959.1989 2363.8203 0.0000 0.0000 711.2248 -10878.9497 119.5606 -11590.1745 -10877.7852 119.5606 238.5195 293.6804 28900.2160 238.5195 293.6804
ENERGY: 500000 3.1288 1.7395 1.5230 0.0000 -13627.2666 2211.9615 0.0000 0.0000 876.0825 -10532.8314 147.2740 -11408.9138 -10529.8619 150.2575 -518.5454 -479.0298 29441.2184 2.4899 2.4106
TCL: Running 100000 steps at 180 kelvin.
TCL: Setting parameter langevinTemp to 180
TCL: Running for 100000 steps
ETITLE: TS BOND ANGLE DIHED IMPRP ELECT VDW BOUNDARY MISC KINETIC TOTAL TEMP POTENTIAL TOTAL3 TEMPAVG PRESSURE GPRESSURE VOLUME PRESSAVG GPRESSAVG
ENERGY: 500000 3.1288 1.7395 1.5230 0.0000 -13627.2666 2211.9615 0.0000 0.0000 875.6164 -10533.2975 147.1957 -11408.9138 -10531.6224 147.1957 -534.0249 -478.3917 29441.2184 -534.0249 -478.3917
ENERGY: 600000 0.8207 3.7555 2.0301 0.0000 -13214.9615 2143.7782 0.0000 0.0000 1039.2621 -10025.3150 174.7054 -11064.5771 -10022.0838 179.9369 318.1999 389.7531 28973.2741 3.2383 3.2578
TCL: Running 100000 steps at 210 kelvin.
TCL: Setting parameter langevinTemp to 210
TCL: Running for 100000 steps
ETITLE: TS BOND ANGLE DIHED IMPRP ELECT VDW BOUNDARY MISC KINETIC TOTAL TEMP POTENTIAL TOTAL3 TEMPAVG PRESSURE GPRESSURE VOLUME PRESSAVG GPRESSAVG
ENERGY: 600000 0.8207 3.7555 2.0301 0.0000 -13214.9615 2143.7782 0.0000 0.0000 1038.7345 -10025.8426 174.6167 -11064.5771 -10024.0768 174.6167 330.1974 389.0688 28973.2741 330.1974 389.0688
ENERGY: 700000 2.3174 5.5948 1.4315 0.0000 -12696.2539 2016.9576 0.0000 0.0000 1233.0437 -9436.9090 207.2811 -10669.9527 -9434.4999 209.5526 533.7696 550.3014 29374.5536 3.3077 3.2882
TCL: Running 100000 steps at 240 kelvin.
TCL: Setting parameter langevinTemp to 240
TCL: Running for 100000 steps
ETITLE: TS BOND ANGLE DIHED IMPRP ELECT VDW BOUNDARY MISC KINETIC TOTAL TEMP POTENTIAL TOTAL3 TEMPAVG PRESSURE GPRESSURE VOLUME PRESSAVG GPRESSAVG
ENERGY: 700000 2.3174 5.5948 1.4315 0.0000 -12696.2539 2016.9576 0.0000 0.0000 1232.4273 -9437.5254 207.1774 -10669.9527 -9435.5823 207.1774 463.6455 550.4737 29374.5536 463.6455 550.4737
ENERGY: 800000 3.2297 6.8145 2.4728 0.0000 -11819.4972 1676.8964 0.0000 0.0000 1485.8441 -8644.2398 249.7781 -10130.0839 -8639.9804 239.5945 -178.2529 -110.6391 29351.2611 3.5676 3.5900
TCL: Running 100000 steps at 270 kelvin.
TCL: Setting parameter langevinTemp to 270
TCL: Running for 100000 steps
ETITLE: TS BOND ANGLE DIHED IMPRP ELECT VDW BOUNDARY MISC KINETIC TOTAL TEMP POTENTIAL TOTAL3 TEMPAVG PRESSURE GPRESSURE VOLUME PRESSAVG GPRESSAVG
ENERGY: 800000 3.2297 6.8145 2.4728 0.0000 -11819.4972 1676.8964 0.0000 0.0000 1485.1289 -8644.9550 249.6579 -10130.0839 -8642.6451 249.6579 -191.2042 -110.3189 29351.2611 -191.2042 -110.3189
ENERGY: 900000 2.1700 5.4889 3.4546 0.0000 -11297.5508 1495.1048 0.0000 0.0000 1589.6864 -8201.6461 267.2345 -9791.3325 -8198.2489 269.7307 -837.5851 -742.6954 30311.4203 2.6178 2.7090
TCL: Running 1000000 steps at 300 kelvin.
TCL: Setting parameter langevinTemp to 300
TCL: Running for 1000000 steps
ETITLE: TS BOND ANGLE DIHED IMPRP ELECT VDW BOUNDARY MISC KINETIC TOTAL TEMP POTENTIAL TOTAL3 TEMPAVG PRESSURE GPRESSURE VOLUME PRESSAVG GPRESSAVG
ENERGY: 900000 2.1700 5.4889 3.4546 0.0000 -11297.5508 1495.1048 0.0000 0.0000 1588.9148 -8202.4177 267.1048 -9791.3325 -8200.1647 267.1048 -829.5094 -741.4211 30311.4203 -829.5094 -741.4211
ENERGY: 1100000 1.7528 6.7064 4.6672 0.0000 -10769.1157 1414.2427 0.0000 0.0000 1794.3244 -7547.4221 301.6353 -9341.7465 -7542.8162 300.0254 -63.8173 54.4479 30580.1117 4.7070 4.4114
ENERGY: 1300000 4.0802 7.4254 0.8418 0.0000 -10856.1838 1446.6337 0.0000 0.0000 1738.8393 -7658.3634 292.3079 -9397.2027 -7655.7331 300.0741 -234.6102 -181.5131 31174.8346 3.6401 3.4968
ENERGY: 1500000 5.2784 6.8370 2.1780 0.0000 -10827.8032 1430.9618 0.0000 0.0000 1752.5682 -7629.9798 294.6158 -9382.5479 -7626.2741 299.9074 -297.1938 -213.4294 31121.4185 3.3092 3.2957
ENERGY: 1700000 2.0228 3.9210 7.3566 0.0000 -10901.4731 1548.2432 0.0000 0.0000 1780.8700 -7559.0594 299.3735 -9339.9294 -7556.5978 300.3295 698.6032 778.5016 30857.1418 3.0031 2.9129
ENERGY: 1900000 4.2466 4.7670 2.4603 0.0000 -10878.4615 1477.9815 0.0000 0.0000 1762.7650 -7626.2411 296.3299 -9389.0061 -7622.2675 299.8299 60.3925 70.7194 30865.4790 3.9400 3.7966
TCL: Exiting due to exit command.
