Info: SIMULATION PARAMETERS:
Info: TIMESTEP               2
Info: NUMBER OF STEPS        0
Info: STEPS PER CYCLE        10
Info: PERIODIC CELL BASIS 1  34.207 0 0
Info: PERIODIC CELL BASIS 2  0 34.1 0
Info: PERIODIC CELL BASIS 3  0 0 37.451
Info: PERIODIC CELL CENTER   0 0 0
Info: WRAPPING WATERS AROUND PERIODIC BOUNDARIES ON OUTPUT.
Info: WRAPPING ALL CLUSTERS AROUND PERIODIC BOUNDARIES ON OUTPUT.
Info: FIRST LDB TIMESTEP     50
Info: LAST LDB TIMESTEP     -1
Info: HOM BACKGROUND SCALING 1
Info: PME BACKGROUND SCALING 1
Info: MIN ATOMS PER PATCH    40
Info: EMPTY PATCH LOAD       40 ATOMS
Info: INITIAL TEMPERATURE    300
Info: CENTER OF MASS MOVING INITIALLY? NO
Info: DIELECTRIC             1
Info: EXCLUDE                SCALED ONE-FOUR
Info: 1-4 ELECTROSTATICS SCALED BY 0.833333
Info: MODIFIED 1-4 VDW PARAMETERS WILL BE USED
Info: DCD FILENAME           mobley_628951_equil.dcd
Info: DCD FREQUENCY          100000
Info: DCD FIRST STEP         100000
Info: DCD FILE WILL CONTAIN UNIT CELL DATA
Info: XST FILENAME           mobley_628951_equil.xst
Info: XST FREQUENCY          100000
Info: NO VELOCITY DCD OUTPUT
Info: NO FORCE DCD OUTPUT
Info: OUTPUT FILENAME        mobley_628951_equil
Info: BINARY OUTPUT FILES WILL BE USED
Info: RESTART FILENAME       mobley_628951_equil.restart
Info: RESTART FREQUENCY      100000
Info: BINARY RESTART FILES WILL BE USED
Info: CUTOFF                 9
Info: PAIRLIST DISTANCE      11
Info: PAIRLIST SHRINK RATE   0.01
Info: PAIRLIST GROW RATE     0.01
Info: PAIRLIST TRIGGER       0.3
Info: PAIRLISTS PER CYCLE    2
Info: PAIRLISTS ENABLED
Info: MARGIN                 8
Info: HYDROGEN GROUP CUTOFF  2.5
Info: PATCH DIMENSION        21.5
Info: ENERGY OUTPUT STEPS    100000
Info: ENERGY EVALUATION STEPS    100000
Info: OUTPUT ENERGY PRECISION 4
Info: CROSSTERM ENERGY INCLUDED IN DIHEDRAL
Info: TIMING OUTPUT STEPS    1000000
Info: PRESSURE OUTPUT STEPS  100000
Info: LANGEVIN DYNAMICS ACTIVE
Info: LANGEVIN TEMPERATURE   30
Info: LANGEVIN USING BBK INTEGRATOR
Info: LANGEVIN DAMPING COEFFICIENT IS 1 INVERSE PS
Info: LANGEVIN DYNAMICS APPLIED TO HYDROGENS
Info: LANGEVIN PISTON PRESSURE CONTROL ACTIVE
Info:        TARGET PRESSURE IS 1.01325 BAR
Info:     OSCILLATION PERIOD IS 50 FS
Info:             DECAY TIME IS 25 FS
Info:     PISTON TEMPERATURE IS 300 K
Info:       PRESSURE CONTROL IS GROUP-BASED
Info:    INITIAL STRAIN RATE IS 0 0 0
Info:       CELL FLUCTUATION IS ISOTROPIC
Info: PARTICLE MESH EWALD (PME) ACTIVE
Info: PME TOLERANCE               1e-06
Info: PME EWALD COEFFICIENT       0.348832
Info: PME INTERPOLATION ORDER     4
Info: PME GRID DIMENSIONS         36 36 40
Info: PME MAXIMUM GRID SPACING    1
Info: FULL ELECTROSTATIC EVALUATION FREQUENCY      2
Info: USING VERLET I (r-RESPA) MTS SCHEME.
Info: C1 SPLITTING OF LONG RANGE ELECTROSTATICS
Info: PLACING ATOMS IN PATCHES BY HYDROGEN GROUPS
Info: RIGID BONDS TO HYDROGEN : ALL
Info:         ERROR TOLERANCE : 1e-08
Info:          MAX ITERATIONS : 100
Info: RIGID WATER USING SETTLE ALGORITHM
Info: RANDOM NUMBER SEED     1743235168
Info: USE HYDROGEN BONDS?    NO
Info: Using AMBER format force field!
Info: AMBER PARM FILE        mobley_628951.prmtop
Info: COORDINATE PDB         mobley_628951.pdb
Info: Exclusions will be read from PARM file!
Info: SCNB (VDW SCALING)     2
Info: USING ARITHMETIC MEAN TO COMBINE L-J SIGMA PARAMETERS
Info: BINARY COORDINATES     mobley_628951_min.coor
Info: SUMMARY OF PARAMETERS:
Info: 7 BONDS
Info: 7 ANGLES
Info:   7 HARMONIC
Info:   0 COSINE-BASED
Info: 3 DIHEDRAL
Info: 0 IMPROPER
Info: 0 CROSSTERM
Info: 0 VDW
Info: 15 VDW_PAIRS
Info: 0 NBTHOLE_PAIRS
Info: STRUCTURE SUMMARY:
Info: 2935 ATOMS
Info: 2936 BONDS
Info: 36 ANGLES
Info: 64 DIHEDRALS
Info: 0 IMPROPERS
Info: 0 CROSSTERMS
Info: 3018 EXCLUSIONS
Info: 2919 RIGID BONDS
Info: 5886 DEGREES OF FREEDOM
Info: 987 HYDROGEN GROUPS
Info: 3 ATOMS IN LARGEST HYDROGEN GROUP
Info: 987 MIGRATION GROUPS
Info: 3 ATOMS IN LARGEST MIGRATION GROUP
Info: TOTAL MASS = 17785.5 amu
Info: TOTAL CHARGE = 0.000399984 e
Info: MASS DENSITY = 0.676072 g/cm^3
Info: ATOM DENSITY = 0.0671855 atoms/A^3
Info: ADDED 0 IMPLICIT EXCLUSIONS
Info: NONBONDED TABLE R-SQUARED SPACING: 0.0625
Info: NONBONDED TABLE SIZE: 705 POINTS
Info: REMOVING COM VELOCITY 0.160844 0.0966035 0.185647
TCL: Running for 100000 steps
ETITLE: TS BOND ANGLE DIHED IMPRP ELECT VDW BOUNDARY MISC KINETIC TOTAL TEMP POTENTIAL TOTAL3 TEMPAVG PRESSURE GPRESSURE VOLUME PRESSAVG GPRESSAVG
ENERGY: 0 0.4099 0.1967 8.1417 0.0000 -13513.2956 2376.8258 0.0000 0.0000 1781.4641 -9346.2573 304.6121 -11127.7214 -9345.9011 304.6121 405.6058 437.6057 43685.0448 405.6058 437.6057
ENERGY: 100000 0.7792 0.9269 8.4225 0.0000 -14135.3072 2477.7895 0.0000 0.0000 176.2071 -11471.1821 30.1296 -11647.3891 -11471.0975 30.8395 436.3579 483.5411 28374.4297 4.9316 4.9315
TCL: Running 100000 steps at 60 kelvin.
TCL: Setting parameter langevinTemp to 60
TCL: Running for 100000 steps
ETITLE: TS BOND ANGLE DIHED IMPRP ELECT VDW BOUNDARY MISC KINETIC TOTAL TEMP POTENTIAL TOTAL3 TEMPAVG PRESSURE GPRESSURE VOLUME PRESSAVG GPRESSAVG
ENERGY: 100000 0.7792 0.9269 8.4225 0.0000 -14135.3072 2477.7895 0.0000 0.0000 176.1198 -11471.2693 30.1147 -11647.3891 -11470.9612 30.1147 430.6870 483.3410 28374.4297 430.6870 483.3410
ENERGY: 200000 0.8812 1.0509 8.7407 0.0000 -14010.1277 2406.3144 0.0000 0.0000 344.6362 -11248.5044 58.9293 -11593.1406 -11247.1095 60.0168 48.2043 122.7070 28308.4246 4.9309 4.9917
TCL: Running 100000 steps at 90 kelvin.
TCL: Setting parameter langevinTemp to 90
TCL: Running for 100000 steps
ETITLE: TS BOND ANGLE DIHED IMPRP ELECT VDW BOUNDARY MISC KINETIC TOTAL TEMP POTENTIAL TOTAL3 TEMPAVG PRESSURE GPRESSURE VOLUME PRESSAVG GPRESSAVG
ENERGY: 200000 0.8812 1.0509 8.7407 0.0000 -14010.1277 2406.3144 0.0000 0.0000 344.4601 -11248.6805 58.8992 -11593.1406 -11247.9516 58.8992 68.3154 122.7777 28308.4246 68.3154 122.7777
ENERGY: 300000 3.0154 1.7222 8.8754 0.0000 -13717.7134 2218.5906 0.0000 0.0000 514.2500 -10971.2598 87.9315 -11485.5099 -10969.6980 89.9070 -1385.1535 -1318.6649 28811.2898 3.0734 3.1488
TCL: Running 100000 steps at 120 kelvin.
TCL: Setting parameter langevinTemp to 120
TCL: Running for 100000 steps
ETITLE: TS BOND ANGLE DIHED IMPRP ELECT VDW BOUNDARY MISC KINETIC TOTAL TEMP POTENTIAL TOTAL3 TEMPAVG PRESSURE GPRESSURE VOLUME PRESSAVG GPRESSAVG
ENERGY: 300000 3.0154 1.7222 8.8754 0.0000 -13717.7134 2218.5906 0.0000 0.0000 513.9815 -10971.5284 87.8856 -11485.5099 -10970.4171 87.8856 -1368.3795 -1318.2476 28811.2898 -1368.3795 -1318.2476
ENERGY: 400000 1.5955 1.8517 9.4044 0.0000 -13616.3839 2285.0513 0.0000 0.0000 703.3507 -10615.1302 120.2658 -11318.4809 -10613.1604 119.8212 -98.1040 -40.4677 28593.3864 2.8000 2.7196
TCL: Running 100000 steps at 150 kelvin.
TCL: Setting parameter langevinTemp to 150
TCL: Running for 100000 steps
ETITLE: TS BOND ANGLE DIHED IMPRP ELECT VDW BOUNDARY MISC KINETIC TOTAL TEMP POTENTIAL TOTAL3 TEMPAVG PRESSURE GPRESSURE VOLUME PRESSAVG GPRESSAVG
ENERGY: 400000 1.5955 1.8517 9.4044 0.0000 -13616.3839 2285.0513 0.0000 0.0000 703.0144 -10615.4665 120.2083 -11318.4809 -10614.0919 120.2083 -91.2351 -40.1764 28593.3864 -91.2351 -40.1764
ENERGY: 500000 3.8243 3.5881 9.5102 0.0000 -13324.8533 2165.3937 0.0000 0.0000 886.3296 -10256.2074 151.5533 -11142.5370 -10254.5774 150.2221 -350.9239 -275.3159 28545.5522 3.6233 3.5259
TCL: Running 100000 steps at 180 kelvin.
TCL: Setting parameter langevinTemp to 180
TCL: Running for 100000 steps
ETITLE: TS BOND ANGLE DIHED IMPRP ELECT VDW BOUNDARY MISC KINETIC TOTAL TEMP POTENTIAL TOTAL3 TEMPAVG PRESSURE GPRESSURE VOLUME PRESSAVG GPRESSAVG
ENERGY: 500000 3.8243 3.5881 9.5102 0.0000 -13324.8533 2165.3937 0.0000 0.0000 885.8908 -10256.6462 151.4783 -11142.5370 -10255.0003 151.4783 -359.1244 -276.1666 28545.5522 -359.1244 -276.1666
ENERGY: 600000 3.9572 4.0136 10.8035 0.0000 -12912.7217 2022.6286 0.0000 0.0000 1065.2160 -9806.1027 182.1410 -10871.3188 -9803.6720 179.6150 -408.2796 -359.4838 28731.6735 4.6036 4.6542
TCL: Running 100000 steps at 210 kelvin.
TCL: Setting parameter langevinTemp to 210
TCL: Running for 100000 steps
ETITLE: TS BOND ANGLE DIHED IMPRP ELECT VDW BOUNDARY MISC KINETIC TOTAL TEMP POTENTIAL TOTAL3 TEMPAVG PRESSURE GPRESSURE VOLUME PRESSAVG GPRESSAVG
ENERGY: 600000 3.9572 4.0136 10.8035 0.0000 -12912.7217 2022.6286 0.0000 0.0000 1064.7001 -9806.6187 182.0528 -10871.3188 -9804.6588 182.0528 -434.5485 -359.5207 28731.6735 -434.5485 -359.5207
ENERGY: 700000 5.5918 5.3950 12.0043 0.0000 -12450.3628 1976.7398 0.0000 0.0000 1222.3396 -9228.2923 209.0076 -10450.6319 -9225.7996 209.7089 696.9718 741.0630 28749.3509 4.5699 4.3469
TCL: Running 100000 steps at 240 kelvin.
TCL: Setting parameter langevinTemp to 240
TCL: Running for 100000 steps
ETITLE: TS BOND ANGLE DIHED IMPRP ELECT VDW BOUNDARY MISC KINETIC TOTAL TEMP POTENTIAL TOTAL3 TEMPAVG PRESSURE GPRESSURE VOLUME PRESSAVG GPRESSAVG
ENERGY: 700000 5.5918 5.3950 12.0043 0.0000 -12450.3628 1976.7398 0.0000 0.0000 1221.7409 -9228.8910 208.9052 -10450.6319 -9226.5876 208.9052 668.8678 739.4210 28749.3509 668.8678 739.4210
ENERGY: 800000 4.4597 4.1754 11.5780 0.0000 -11741.1968 1708.4426 0.0000 0.0000 1379.4129 -8633.1282 235.8655 -10012.5410 -8632.0656 240.0595 -75.2014 14.3378 28966.7070 3.7296 3.6180
TCL: Running 100000 steps at 270 kelvin.
TCL: Setting parameter langevinTemp to 270
TCL: Running for 100000 steps
ETITLE: TS BOND ANGLE DIHED IMPRP ELECT VDW BOUNDARY MISC KINETIC TOTAL TEMP POTENTIAL TOTAL3 TEMPAVG PRESSURE GPRESSURE VOLUME PRESSAVG GPRESSAVG
ENERGY: 800000 4.4597 4.1754 11.5780 0.0000 -11741.1968 1708.4426 0.0000 0.0000 1378.7155 -8633.8255 235.7462 -10012.5410 -8631.6212 235.7462 -75.7659 12.7047 28966.7070 -75.7659 12.7047
ENERGY: 900000 6.3144 6.9318 12.2365 0.0000 -11097.0113 1512.5836 0.0000 0.0000 1568.3916 -7990.5535 268.1789 -9558.9451 -7987.1466 269.6959 -349.2734 -257.4322 29475.8858 4.2887 4.1367
TCL: Running 1000000 steps at 300 kelvin.
TCL: Setting parameter langevinTemp to 300
TCL: Running for 1000000 steps
ETITLE: TS BOND ANGLE DIHED IMPRP ELECT VDW BOUNDARY MISC KINETIC TOTAL TEMP POTENTIAL TOTAL3 TEMPAVG PRESSURE GPRESSURE VOLUME PRESSAVG GPRESSAVG
ENERGY: 900000 6.3144 6.9318 12.2365 0.0000 -11097.0113 1512.5836 0.0000 0.0000 1567.6434 -7991.3017 268.0510 -9558.9451 -7989.7318 268.0510 -333.0260 -256.0708 29475.8858 -333.0260 -256.0708
ENERGY: 1100000 4.9743 5.4915 11.7262 0.0000 -10602.9477 1441.1072 0.0000 0.0000 1700.6607 -7438.9878 290.7956 -9139.6485 -7435.0403 299.4748 70.7180 204.3366 30572.0056 3.7013 3.2128
ENERGY: 1300000 2.8156 5.1526 11.7867 0.0000 -10751.0435 1432.2559 0.0000 0.0000 1719.3309 -7579.7017 293.9880 -9299.0327 -7574.6211 299.5740 12.0361 122.5477 29705.9797 3.9392 3.7379
ENERGY: 1500000 4.6134 3.7520 12.6006 0.0000 -10422.6023 1340.5200 0.0000 0.0000 1743.2647 -7317.8516 298.0804 -9061.1163 -7314.2689 300.0879 -570.8642 -538.6391 30784.9773 2.2396 2.2529
ENERGY: 1700000 4.4271 5.5205 13.8554 0.0000 -10457.3956 1315.9151 0.0000 0.0000 1766.2949 -7351.3828 302.0184 -9117.6776 -7345.9684 300.1372 -912.9495 -878.9309 30596.1525 3.3316 3.6868
ENERGY: 1900000 4.8577 6.9318 15.6726 0.0000 -10644.2336 1449.7722 0.0000 0.0000 1701.1745 -7465.8248 290.8834 -9166.9993 -7463.4927 301.0147 -10.7138 77.7654 30370.9271 2.4299 2.6240
TCL: Exiting due to exit command.
