Info: SIMULATION PARAMETERS:
Info: TIMESTEP               2
Info: NUMBER OF STEPS        0
Info: STEPS PER CYCLE        10
Info: PERIODIC CELL BASIS 1  34.207 0 0
Info: PERIODIC CELL BASIS 2  0 34.26 0
Info: PERIODIC CELL BASIS 3  0 0 36.583
Info: PERIODIC CELL CENTER   0 0 0
Info: WRAPPING WATERS AROUND PERIODIC BOUNDARIES ON OUTPUT.
Info: WRAPPING ALL CLUSTERS AROUND PERIODIC BOUNDARIES ON OUTPUT.
Info: FIRST LDB TIMESTEP     50
Info: LAST LDB TIMESTEP     -1
Info: HOM BACKGROUND SCALING 1
Info: PME BACKGROUND SCALING 1
Info: MIN ATOMS PER PATCH    40
Info: EMPTY PATCH LOAD       40 ATOMS
Info: INITIAL TEMPERATURE    300
Info: CENTER OF MASS MOVING INITIALLY? NO
Info: DIELECTRIC             1
Info: EXCLUDE                SCALED ONE-FOUR
Info: 1-4 ELECTROSTATICS SCALED BY 0.833333
Info: MODIFIED 1-4 VDW PARAMETERS WILL BE USED
Info: DCD FILENAME           mobley_859464_equil.dcd
Info: DCD FREQUENCY          100000
Info: DCD FIRST STEP         100000
Info: DCD FILE WILL CONTAIN UNIT CELL DATA
Info: XST FILENAME           mobley_859464_equil.xst
Info: XST FREQUENCY          100000
Info: NO VELOCITY DCD OUTPUT
Info: NO FORCE DCD OUTPUT
Info: OUTPUT FILENAME        mobley_859464_equil
Info: BINARY OUTPUT FILES WILL BE USED
Info: RESTART FILENAME       mobley_859464_equil.restart
Info: RESTART FREQUENCY      100000
Info: BINARY RESTART FILES WILL BE USED
Info: CUTOFF                 9
Info: PAIRLIST DISTANCE      11
Info: PAIRLIST SHRINK RATE   0.01
Info: PAIRLIST GROW RATE     0.01
Info: PAIRLIST TRIGGER       0.3
Info: PAIRLISTS PER CYCLE    2
Info: PAIRLISTS ENABLED
Info: MARGIN                 8
Info: HYDROGEN GROUP CUTOFF  2.5
Info: PATCH DIMENSION        21.5
Info: ENERGY OUTPUT STEPS    100000
Info: ENERGY EVALUATION STEPS    100000
Info: OUTPUT ENERGY PRECISION 4
Info: CROSSTERM ENERGY INCLUDED IN DIHEDRAL
Info: TIMING OUTPUT STEPS    1000000
Info: PRESSURE OUTPUT STEPS  100000
Info: LANGEVIN DYNAMICS ACTIVE
Info: LANGEVIN TEMPERATURE   30
Info: LANGEVIN USING BBK INTEGRATOR
Info: LANGEVIN DAMPING COEFFICIENT IS 1 INVERSE PS
Info: LANGEVIN DYNAMICS APPLIED TO HYDROGENS
Info: LANGEVIN PISTON PRESSURE CONTROL ACTIVE
Info:        TARGET PRESSURE IS 1.01325 BAR
Info:     OSCILLATION PERIOD IS 50 FS
Info:             DECAY TIME IS 25 FS
Info:     PISTON TEMPERATURE IS 300 K
Info:       PRESSURE CONTROL IS GROUP-BASED
Info:    INITIAL STRAIN RATE IS 0 0 0
Info:       CELL FLUCTUATION IS ISOTROPIC
Info: PARTICLE MESH EWALD (PME) ACTIVE
Info: PME TOLERANCE               1e-06
Info: PME EWALD COEFFICIENT       0.348832
Info: PME INTERPOLATION ORDER     4
Info: PME GRID DIMENSIONS         36 36 40
Info: PME MAXIMUM GRID SPACING    1
Info: FULL ELECTROSTATIC EVALUATION FREQUENCY      2
Info: USING VERLET I (r-RESPA) MTS SCHEME.
Info: C1 SPLITTING OF LONG RANGE ELECTROSTATICS
Info: PLACING ATOMS IN PATCHES BY HYDROGEN GROUPS
Info: RIGID BONDS TO HYDROGEN : ALL
Info:         ERROR TOLERANCE : 1e-08
Info:          MAX ITERATIONS : 100
Info: RIGID WATER USING SETTLE ALGORITHM
Info: RANDOM NUMBER SEED     1743244010
Info: USE HYDROGEN BONDS?    NO
Info: Using AMBER format force field!
Info: AMBER PARM FILE        mobley_859464.prmtop
Info: COORDINATE PDB         mobley_859464.pdb
Info: Exclusions will be read from PARM file!
Info: SCNB (VDW SCALING)     2
Info: USING ARITHMETIC MEAN TO COMBINE L-J SIGMA PARAMETERS
Info: BINARY COORDINATES     mobley_859464_min.coor
Info: SUMMARY OF PARAMETERS:
Info: 9 BONDS
Info: 12 ANGLES
Info:   12 HARMONIC
Info:   0 COSINE-BASED
Info: 17 DIHEDRAL
Info: 0 IMPROPER
Info: 0 CROSSTERM
Info: 0 VDW
Info: 36 VDW_PAIRS
Info: 0 NBTHOLE_PAIRS
Info: STRUCTURE SUMMARY:
Info: 2912 ATOMS
Info: 2911 BONDS
Info: 34 ANGLES
Info: 50 DIHEDRALS
Info: 0 IMPROPERS
Info: 0 CROSSTERMS
Info: 2983 EXCLUSIONS
Info: 2904 RIGID BONDS
Info: 5832 DEGREES OF FREEDOM
Info: 972 HYDROGEN GROUPS
Info: 4 ATOMS IN LARGEST HYDROGEN GROUP
Info: 972 MIGRATION GROUPS
Info: 4 ATOMS IN LARGEST MIGRATION GROUP
Info: TOTAL MASS = 17483.6 amu
Info: TOTAL CHARGE = -0.000500001 e
Info: MASS DENSITY = 0.677186 g/cm^3
Info: ATOM DENSITY = 0.0679219 atoms/A^3
Info: ADDED 0 IMPLICIT EXCLUSIONS
Info: NONBONDED TABLE R-SQUARED SPACING: 0.0625
Info: NONBONDED TABLE SIZE: 705 POINTS
Info: REMOVING COM VELOCITY -0.159466 0.101817 0.021569
TCL: Running for 100000 steps
ETITLE: TS BOND ANGLE DIHED IMPRP ELECT VDW BOUNDARY MISC KINETIC TOTAL TEMP POTENTIAL TOTAL3 TEMPAVG PRESSURE GPRESSURE VOLUME PRESSAVG GPRESSAVG
ENERGY: 0 0.1141 0.6324 4.8022 0.0000 -13484.4982 2376.1503 0.0000 0.0000 1703.9880 -9398.8112 294.0623 -11102.7992 -9398.4672 294.0623 524.7651 553.6154 42872.7818 524.7651 553.6154
ENERGY: 100000 0.8273 1.8076 4.7068 0.0000 -13798.4655 2200.1941 0.0000 0.0000 181.8023 -11409.1275 31.3742 -11590.9298 -11408.6580 30.8623 -1954.9536 -1889.8647 28339.7425 3.5922 3.5908
TCL: Running 100000 steps at 60 kelvin.
TCL: Setting parameter langevinTemp to 60
TCL: Running for 100000 steps
ETITLE: TS BOND ANGLE DIHED IMPRP ELECT VDW BOUNDARY MISC KINETIC TOTAL TEMP POTENTIAL TOTAL3 TEMPAVG PRESSURE GPRESSURE VOLUME PRESSAVG GPRESSAVG
ENERGY: 100000 0.8273 1.8076 4.7068 0.0000 -13798.4655 2200.1941 0.0000 0.0000 181.7208 -11409.2090 31.3601 -11590.9298 -11408.7933 31.3601 -1953.2668 -1889.7923 28339.7425 -1953.2668 -1889.7923
ENERGY: 200000 0.5050 1.5448 5.3959 0.0000 -13875.1401 2332.7604 0.0000 0.0000 349.5054 -11185.4285 60.3152 -11534.9339 -11184.8881 59.9183 -465.2416 -411.1747 27982.1112 3.7342 3.6071
TCL: Running 100000 steps at 90 kelvin.
TCL: Setting parameter langevinTemp to 90
TCL: Running for 100000 steps
ETITLE: TS BOND ANGLE DIHED IMPRP ELECT VDW BOUNDARY MISC KINETIC TOTAL TEMP POTENTIAL TOTAL3 TEMPAVG PRESSURE GPRESSURE VOLUME PRESSAVG GPRESSAVG
ENERGY: 200000 0.5050 1.5448 5.3959 0.0000 -13875.1401 2332.7604 0.0000 0.0000 349.3340 -11185.6000 60.2856 -11534.9340 -11184.7700 60.2856 -476.2564 -411.5774 27982.1112 -476.2564 -411.5774
ENERGY: 300000 0.4456 2.9960 4.9411 0.0000 -13905.3825 2466.8132 0.0000 0.0000 532.7134 -10897.4732 91.9319 -11430.1866 -10895.9378 89.9315 1217.2721 1256.3072 27738.0193 3.2056 3.1571
TCL: Running 100000 steps at 120 kelvin.
TCL: Setting parameter langevinTemp to 120
TCL: Running for 100000 steps
ETITLE: TS BOND ANGLE DIHED IMPRP ELECT VDW BOUNDARY MISC KINETIC TOTAL TEMP POTENTIAL TOTAL3 TEMPAVG PRESSURE GPRESSURE VOLUME PRESSAVG GPRESSAVG
ENERGY: 300000 0.4456 2.9960 4.9411 0.0000 -13905.3825 2466.8132 0.0000 0.0000 532.4509 -10897.7357 91.8867 -11430.1866 -10896.7138 91.8867 1194.2086 1256.0879 27738.0193 1194.2086 1256.0879
ENERGY: 400000 1.2960 2.6724 5.2970 0.0000 -13472.5387 2152.5713 0.0000 0.0000 713.6386 -10597.0633 123.1548 -11310.7019 -10594.2898 120.1871 -1045.3384 -1039.5819 28130.0438 4.4987 4.4360
TCL: Running 100000 steps at 150 kelvin.
TCL: Setting parameter langevinTemp to 150
TCL: Running for 100000 steps
ETITLE: TS BOND ANGLE DIHED IMPRP ELECT VDW BOUNDARY MISC KINETIC TOTAL TEMP POTENTIAL TOTAL3 TEMPAVG PRESSURE GPRESSURE VOLUME PRESSAVG GPRESSAVG
ENERGY: 400000 1.2960 2.6724 5.2970 0.0000 -13472.5387 2152.5713 0.0000 0.0000 713.2977 -10597.4042 123.0959 -11310.7019 -10595.9234 123.0959 -1080.2197 -1039.1064 28130.0438 -1080.2197 -1039.1064
ENERGY: 500000 3.1564 2.8188 5.4250 0.0000 -13480.8054 2309.6867 0.0000 0.0000 884.8167 -10274.9018 152.6955 -11159.7184 -10271.7702 149.7676 952.6634 1010.6995 28062.5170 3.9058 3.9678
TCL: Running 100000 steps at 180 kelvin.
TCL: Setting parameter langevinTemp to 180
TCL: Running for 100000 steps
ETITLE: TS BOND ANGLE DIHED IMPRP ELECT VDW BOUNDARY MISC KINETIC TOTAL TEMP POTENTIAL TOTAL3 TEMPAVG PRESSURE GPRESSURE VOLUME PRESSAVG GPRESSAVG
ENERGY: 500000 3.1564 2.8188 5.4250 0.0000 -13480.8054 2309.6867 0.0000 0.0000 884.3771 -10275.3413 152.6196 -11159.7184 -10273.8158 152.6196 956.3630 1011.3944 28062.5170 956.3630 1011.3944
ENERGY: 600000 1.2281 6.0623 5.6568 0.0000 -12883.6361 2068.2358 0.0000 0.0000 1042.7934 -9759.6597 179.9580 -10802.4530 -9755.7251 179.7356 162.2510 164.6663 28285.4805 2.4573 2.6204
TCL: Running 100000 steps at 210 kelvin.
TCL: Setting parameter langevinTemp to 210
TCL: Running for 100000 steps
ETITLE: TS BOND ANGLE DIHED IMPRP ELECT VDW BOUNDARY MISC KINETIC TOTAL TEMP POTENTIAL TOTAL3 TEMPAVG PRESSURE GPRESSURE VOLUME PRESSAVG GPRESSAVG
ENERGY: 600000 1.2281 6.0623 5.6568 0.0000 -12883.6361 2068.2358 0.0000 0.0000 1042.2619 -9760.1911 179.8663 -10802.4530 -9758.1673 179.8663 106.5209 165.7208 28285.4805 106.5209 165.7208
ENERGY: 700000 2.3574 3.2752 5.2879 0.0000 -12296.8263 1882.4613 0.0000 0.0000 1199.4084 -9204.0361 206.9855 -10403.4445 -9201.0333 210.1679 -318.7474 -286.6640 28683.7917 4.5019 4.4557
TCL: Running 100000 steps at 240 kelvin.
TCL: Setting parameter langevinTemp to 240
TCL: Running for 100000 steps
ETITLE: TS BOND ANGLE DIHED IMPRP ELECT VDW BOUNDARY MISC KINETIC TOTAL TEMP POTENTIAL TOTAL3 TEMPAVG PRESSURE GPRESSURE VOLUME PRESSAVG GPRESSAVG
ENERGY: 700000 2.3574 3.2752 5.2879 0.0000 -12296.8263 1882.4613 0.0000 0.0000 1198.8012 -9204.6433 206.8807 -10403.4445 -9201.7359 206.8807 -366.9620 -286.5524 28683.7917 -366.9620 -286.5524
ENERGY: 800000 1.0384 6.7126 5.7533 0.0000 -11675.5317 1714.3232 0.0000 0.0000 1424.4093 -8523.2949 245.8146 -9947.7042 -8522.0379 240.1635 291.1278 337.6542 28611.8278 2.9333 2.8462
TCL: Running 100000 steps at 270 kelvin.
TCL: Setting parameter langevinTemp to 270
TCL: Running for 100000 steps
ETITLE: TS BOND ANGLE DIHED IMPRP ELECT VDW BOUNDARY MISC KINETIC TOTAL TEMP POTENTIAL TOTAL3 TEMPAVG PRESSURE GPRESSURE VOLUME PRESSAVG GPRESSAVG
ENERGY: 800000 1.0384 6.7126 5.7533 0.0000 -11675.5317 1714.3232 0.0000 0.0000 1423.6874 -8524.0167 245.6900 -9947.7042 -8521.0674 245.6900 242.8931 334.8829 28611.8278 242.8931 334.8829
ENERGY: 900000 2.2888 9.4304 4.8704 0.0000 -11096.1285 1519.3691 0.0000 0.0000 1620.2072 -7939.9625 279.6040 -9560.1697 -7935.3867 269.5323 -444.7402 -365.4675 29355.9058 3.9416 3.9745
TCL: Running 1000000 steps at 300 kelvin.
TCL: Setting parameter langevinTemp to 300
TCL: Running for 1000000 steps
ETITLE: TS BOND ANGLE DIHED IMPRP ELECT VDW BOUNDARY MISC KINETIC TOTAL TEMP POTENTIAL TOTAL3 TEMPAVG PRESSURE GPRESSURE VOLUME PRESSAVG GPRESSAVG
ENERGY: 900000 2.2888 9.4304 4.8704 0.0000 -11096.1285 1519.3691 0.0000 0.0000 1619.4067 -7940.7630 279.4659 -9560.1697 -7937.8475 279.4659 -462.7204 -366.1670 29355.9058 -462.7204 -366.1670
ENERGY: 1100000 3.3205 6.0098 5.7192 0.0000 -10602.0606 1376.1085 0.0000 0.0000 1748.5564 -7462.3463 301.7536 -9210.9027 -7458.8724 300.3798 -403.7794 -349.5326 29790.9928 3.6881 3.6970
ENERGY: 1300000 1.9118 7.3469 6.4919 0.0000 -10524.1327 1400.7254 0.0000 0.0000 1725.6372 -7382.0196 297.7984 -9107.6567 -7376.5424 300.1055 -53.3968 92.5105 29886.1350 2.5082 2.6925
ENERGY: 1500000 0.8403 7.9362 5.3634 0.0000 -10533.4269 1369.5048 0.0000 0.0000 1720.5442 -7429.2381 296.9195 -9149.7823 -7426.2548 299.6787 -464.5079 -394.4005 30068.1198 3.8412 3.7854
ENERGY: 1700000 1.0853 11.8178 5.9689 0.0000 -10546.2763 1324.5270 0.0000 0.0000 1724.1683 -7478.7090 297.5449 -9202.8772 -7474.9526 300.5200 -760.5874 -671.9463 29512.4316 2.9556 3.0521
ENERGY: 1900000 3.6587 5.7916 5.3117 0.0000 -10516.1655 1355.6933 0.0000 0.0000 1714.3669 -7431.3433 295.8534 -9145.7102 -7425.7997 299.9652 -663.1038 -556.1373 29992.8617 2.3849 2.5412
TCL: Exiting due to exit command.
