Info: SIMULATION PARAMETERS:
Info: TIMESTEP               2
Info: NUMBER OF STEPS        0
Info: STEPS PER CYCLE        10
Info: PERIODIC CELL BASIS 1  30.4446 0 0
Info: PERIODIC CELL BASIS 2  0 31.5162 0
Info: PERIODIC CELL BASIS 3  0 0 31.7939
Info: PERIODIC CELL CENTER   0 0 0
Info: WRAPPING WATERS AROUND PERIODIC BOUNDARIES ON OUTPUT.
Info: WRAPPING ALL CLUSTERS AROUND PERIODIC BOUNDARIES ON OUTPUT.
Info: FIRST LDB TIMESTEP     50
Info: LAST LDB TIMESTEP     -1
Info: HOM BACKGROUND SCALING 1
Info: PME BACKGROUND SCALING 1
Info: MIN ATOMS PER PATCH    40
Info: EMPTY PATCH LOAD       40 ATOMS
Info: VELOCITY FILE          mobley_7578802_equil.vel
Info: CENTER OF MASS MOVING INITIALLY? NO
Info: DIELECTRIC             1
Info: EXCLUDE                SCALED ONE-FOUR
Info: 1-4 ELECTROSTATICS SCALED BY 0.833333
Info: MODIFIED 1-4 VDW PARAMETERS WILL BE USED
Info: DCD FILENAME           mobley_7578802_prod.dcd
Info: DCD FREQUENCY          100000
Info: DCD FIRST STEP         100000
Info: DCD FILE WILL CONTAIN UNIT CELL DATA
Info: XST FILENAME           mobley_7578802_prod.xst
Info: XST FREQUENCY          100000
Info: NO VELOCITY DCD OUTPUT
Info: NO FORCE DCD OUTPUT
Info: OUTPUT FILENAME        mobley_7578802_prod
Info: BINARY OUTPUT FILES WILL BE USED
Info: RESTART FILENAME       mobley_7578802_prod.restart
Info: RESTART FREQUENCY      100000
Info: BINARY RESTART FILES WILL BE USED
Info: CUTOFF                 9
Info: PAIRLIST DISTANCE      11
Info: PAIRLIST SHRINK RATE   0.01
Info: PAIRLIST GROW RATE     0.01
Info: PAIRLIST TRIGGER       0.3
Info: PAIRLISTS PER CYCLE    2
Info: PAIRLISTS ENABLED
Info: MARGIN                 2
Info: HYDROGEN GROUP CUTOFF  2.5
Info: PATCH DIMENSION        15.5
Info: ENERGY OUTPUT STEPS    100000
Info: ENERGY EVALUATION STEPS    100000
Info: OUTPUT ENERGY PRECISION 4
Info: CROSSTERM ENERGY INCLUDED IN DIHEDRAL
Info: TIMING OUTPUT STEPS    1000000
Info: PRESSURE OUTPUT STEPS  100000
Info: ALCHEMICAL FEP ON
Info: FEP CURRENT LAMBDA VALUE     0
Info: FEP COMPARISON LAMBDA VALUE  0.05
Info: FEP INTRA-ALCHEMICAL NON-BONDED INTERACTIONS WILL BE RETAINED
Info: FEP INTRA-ALCHEMICAL BONDED INTERACTIONS WILL BE RETAINED
Info: FEP VDW SHIFTING COEFFICIENT 5
Info: FEP ELEC. ACTIVE FOR ANNIHILATED PARTICLES BETWEEN LAMBDA = 0 AND LAMBDA = 0.5
Info: FEP ELEC. ACTIVE FOR EXNIHILATED PARTICLES BETWEEN LAMBDA = 0.5 AND LAMBDA = 1
Info: FEP VDW ACTIVE FOR ANNIHILATED PARTICLES BETWEEN LAMBDA = 0 AND LAMBDA = 1
Info: FEP VDW ACTIVE FOR EXNIHILATED PARTICLES BETWEEN LAMBDA = 0 AND LAMBDA = 1
Info: FEP BOND ACTIVE FOR ANNIHILATED PARTICLES BETWEEN LAMBDA = 1 AND LAMBDA = 1
Info: FEP BOND ACTIVE FOR EXNIHILATED PARTICLES BETWEEN LAMBDA = 0 AND LAMBDA = 0
Info: LANGEVIN DYNAMICS ACTIVE
Info: LANGEVIN TEMPERATURE   300
Info: LANGEVIN USING BBK INTEGRATOR
Info: LANGEVIN DAMPING COEFFICIENT IS 1 INVERSE PS
Info: LANGEVIN DYNAMICS APPLIED TO HYDROGENS
Info: LANGEVIN PISTON PRESSURE CONTROL ACTIVE
Info:        TARGET PRESSURE IS 1.01325 BAR
Info:     OSCILLATION PERIOD IS 50 FS
Info:             DECAY TIME IS 25 FS
Info:     PISTON TEMPERATURE IS 300 K
Info:       PRESSURE CONTROL IS GROUP-BASED
Info:    INITIAL STRAIN RATE IS 0.000391552 0.000391552 0.000391552
Info:       CELL FLUCTUATION IS ISOTROPIC
Info: PARTICLE MESH EWALD (PME) ACTIVE
Info: PME TOLERANCE               1e-06
Info: PME EWALD COEFFICIENT       0.348832
Info: PME INTERPOLATION ORDER     4
Info: PME GRID DIMENSIONS         32 32 32
Info: PME MAXIMUM GRID SPACING    1
Info: PME CALCULATION WILL BE PERFORMED ON GPU
Info: FULL ELECTROSTATIC EVALUATION FREQUENCY      2
Info: USING VERLET I (r-RESPA) MTS SCHEME.
Info: C1 SPLITTING OF LONG RANGE ELECTROSTATICS
Info: PLACING ATOMS IN PATCHES BY HYDROGEN GROUPS
Info: RIGID BONDS TO HYDROGEN : ALL
Info:         ERROR TOLERANCE : 1e-08
Info:          MAX ITERATIONS : 100
Info: RIGID WATER USING SETTLE ALGORITHM
Info: RANDOM NUMBER SEED     1743464159
Info: USE HYDROGEN BONDS?    NO
Info: Using AMBER format force field!
Info: AMBER PARM FILE        mobley_7578802.prmtop
Info: COORDINATE PDB         mobley_7578802.pdb
Info: Exclusions will be read from PARM file!
Info: SCNB (VDW SCALING)     2
Info: USING ARITHMETIC MEAN TO COMBINE L-J SIGMA PARAMETERS
Info: BINARY COORDINATES     mobley_7578802_equil.coor
Info: SUMMARY OF PARAMETERS:
Info: 4 BONDS
Info: 2 ANGLES
Info:   2 HARMONIC
Info:   0 COSINE-BASED
Info: 0 DIHEDRAL
Info: 0 IMPROPER
Info: 0 CROSSTERM
Info: 0 VDW
Info: 15 VDW_PAIRS
Info: 0 NBTHOLE_PAIRS
Info: To read alchdata from file: mobley_7578802.pdb
Info: To read alchflag data from column: 5
Info: STRUCTURE SUMMARY:
Info: 2912 ATOMS
Info: 2911 BONDS
Info: 6 ANGLES
Info: 0 DIHEDRALS
Info: 0 IMPROPERS
Info: 0 CROSSTERMS
Info: 2917 EXCLUSIONS
Info: 2908 RIGID BONDS
Info: ALCH: 0 ATOMS TO DISAPPEAR IN FINAL STATE
Info: ALCH: 5 ATOMS TO APPEAR IN FINAL STATE
Info: 5828 DEGREES OF FREEDOM
Info: 973 HYDROGEN GROUPS
Info: 3 ATOMS IN LARGEST HYDROGEN GROUP
Info: 973 MIGRATION GROUPS
Info: 3 ATOMS IN LARGEST MIGRATION GROUP
Info: TOTAL MASS = 17710.2 amu
Info: TOTAL CHARGE = 9.9998e-05 e
Info: MASS DENSITY = 0.964043 g/cm^3
Info: ATOM DENSITY = 0.0954563 atoms/A^3
Info: ADDED 0 IMPLICIT EXCLUSIONS
Info: NONBONDED TABLE R-SQUARED SPACING: 0.0625
Info: NONBONDED TABLE SIZE: 705 POINTS
Info: REMOVING COM VELOCITY 0.00171926 -0.0613253 -0.0969761
Info: Use 3D box decompostion in PME FFT.
Info: Updated CUDA force table with 4096 elements.
Info: Updated CUDA LJ table with 5 x 5 elements.
Info: Found 8 unique exclusion lists needing 8 bytes
TCL: Running for 1500000 steps
ETITLE: TS BOND ANGLE DIHED IMPRP ELECT VDW BOUNDARY MISC KINETIC TOTAL TEMP POTENTIAL TOTALAVG TEMPAVG PRESSURE GPRESSURE VOLUME PRESSAVG GPRESSAVG
ENERGY: 0 1.4409 2.2906 0.0000 0.0000 -10496.9111 1345.1006 0.0000 0.0000 1743.5552 -7404.5237 301.0971 -9148.0790 -7404.5237 301.0971 -955.6447 -860.6143 30506.1206 -955.6447 -860.6143
ENERGY: 300000 0.3138 1.1061 0.0000 0.0000 -10376.2206 1225.1417 0.0000 0.0000 1745.8477 -7403.8113 301.4930 -9149.6590 -7418.1384 299.1494 -1566.3128 -1474.0212 29917.8883 -854.9706 -789.3984
ENERGY: 600000 0.0188 1.0403 0.0000 0.0000 -10551.8634 1453.1223 0.0000 0.0000 1752.3261 -7345.3560 302.6117 -9097.6821 -7382.8240 298.9697 292.5148 365.0953 29937.8508 -570.2090 -496.0431
ENERGY: 900000 0.6810 2.6221 0.0000 0.0000 -10655.8548 1460.1291 0.0000 0.0000 1713.8463 -7478.5764 295.9666 -9192.4227 -7392.4096 298.5475 200.6568 247.1917 29780.5667 -410.3305 -334.0730
ENERGY: 1200000 0.3350 1.3214 0.0000 0.0000 -10612.8604 1507.1554 0.0000 0.0000 1729.9134 -7374.1351 298.7413 -9104.0486 -7400.1020 298.7711 948.2852 923.9166 29740.6690 -281.7653 -214.0238
ENERGY: 1500000 0.3906 1.0408 0.0000 0.0000 -10577.4498 1422.2332 0.0000 0.0000 1775.0942 -7378.6910 306.5436 -9153.7852 -7397.3980 299.7290 58.4417 59.6800 29920.8613 -288.6611 -231.8028
TCL: Running FEP window   2: Lambda1 0.05   Lambda2 0.1    [dLambda 0.05  ]
TCL: Setting parameter firsttimestep to 0
TCL: Setting parameter alchLambda to 0.05
Info: NONBONDED TABLE R-SQUARED SPACING: 0.0625
Info: NONBONDED TABLE SIZE: 705 POINTS
TCL: Setting parameter alchLambda2 to 0.1
Info: NONBONDED TABLE R-SQUARED SPACING: 0.0625
Info: NONBONDED TABLE SIZE: 705 POINTS
TCL: Running for 1500000 steps
ETITLE: TS BOND ANGLE DIHED IMPRP ELECT VDW BOUNDARY MISC KINETIC TOTAL TEMP POTENTIAL TOTALAVG TEMPAVG PRESSURE GPRESSURE VOLUME PRESSAVG GPRESSAVG
ENERGY: 0 0.3906 1.0408 0.0000 0.0000 -10577.4497 1423.9821 0.0000 0.0000 1774.1806 -7377.8556 306.3858 -9152.0363 -7377.8556 306.3858 -18.0484 68.2248 29920.8613 -18.0484 68.2248
ENERGY: 300000 0.8305 1.7536 0.0000 0.0000 -10624.7915 1464.1419 0.0000 0.0000 1707.8140 -7450.2515 294.9249 -9158.0655 -7412.2230 300.9972 79.8098 167.2655 30146.8344 197.9689 305.0617
ENERGY: 600000 0.3411 1.4492 0.0000 0.0000 -10436.4620 1388.5137 0.0000 0.0000 1696.6353 -7349.5226 292.9944 -9046.1580 -7419.1602 299.6154 -301.9377 -239.2903 30657.1577 3.7857 104.0622
ENERGY: 900000 0.1172 1.2884 0.0000 0.0000 -10600.7621 1434.0816 0.0000 0.0000 1717.7218 -7447.5531 296.6359 -9165.2748 -7427.1257 299.8993 21.2362 81.9141 29913.9322 -55.1349 38.5746
ENERGY: 1200000 3.4065 2.5727 0.0000 0.0000 -10734.4830 1513.3705 0.0000 0.0000 1750.3135 -7464.8198 302.2642 -9215.1332 -7435.3804 299.9766 470.8292 555.5431 29792.9585 -86.9891 -7.6925
ENERGY: 1500000 0.3455 3.4651 0.0000 0.0000 -10488.0076 1301.0605 0.0000 0.0000 1761.4239 -7421.7127 304.1829 -9183.1366 -7425.4086 300.3532 -979.0351 -978.4800 30069.8592 -101.1777 -29.1612
TCL: Running FEP window   3: Lambda1 0.1    Lambda2 0.15000000000000002 [dLambda 0.05000000000000002]
TCL: Setting parameter firsttimestep to 0
TCL: Setting parameter alchLambda to 0.1
Info: NONBONDED TABLE R-SQUARED SPACING: 0.0625
Info: NONBONDED TABLE SIZE: 705 POINTS
TCL: Setting parameter alchLambda2 to 0.15000000000000002
Info: NONBONDED TABLE R-SQUARED SPACING: 0.0625
Info: NONBONDED TABLE SIZE: 705 POINTS
TCL: Running for 1500000 steps
ETITLE: TS BOND ANGLE DIHED IMPRP ELECT VDW BOUNDARY MISC KINETIC TOTAL TEMP POTENTIAL TOTALAVG TEMPAVG PRESSURE GPRESSURE VOLUME PRESSAVG GPRESSAVG
ENERGY: 0 0.3455 3.4651 0.0000 0.0000 -10488.0075 1302.1236 0.0000 0.0000 1760.5724 -7421.5010 304.0358 -9182.0734 -7421.5010 304.0358 -1062.5193 -974.0690 30069.8592 -1062.5193 -974.0690
ENERGY: 300000 0.4479 0.5084 0.0000 0.0000 -10656.4718 1480.5989 0.0000 0.0000 1699.3668 -7475.5498 293.4661 -9174.9166 -7431.3514 300.5330 301.5362 408.8143 30018.8393 -405.3262 -337.0930
ENERGY: 600000 0.4924 0.5606 0.0000 0.0000 -10423.8801 1342.6748 0.0000 0.0000 1745.0651 -7335.0872 301.3578 -9080.1523 -7388.3917 300.7219 -264.2458 -213.6513 29823.3445 -457.0638 -388.1202
ENERGY: 900000 1.3567 1.3162 0.0000 0.0000 -10462.5654 1342.8296 0.0000 0.0000 1727.7106 -7389.3524 298.3609 -9117.0630 -7399.9823 300.6516 -522.2446 -472.0884 30043.6931 -363.4407 -294.1457
ENERGY: 1200000 0.6582 0.9729 0.0000 0.0000 -10804.1874 1495.3283 0.0000 0.0000 1755.2387 -7551.9893 303.1147 -9307.2281 -7419.0673 300.8205 136.1773 193.0924 29765.3980 -256.1930 -187.8958
ENERGY: 1500000 0.5817 1.1884 0.0000 0.0000 -10677.0932 1456.6585 0.0000 0.0000 1706.6411 -7512.0236 294.7223 -9218.6647 -7422.9919 300.0987 25.4678 115.4535 29986.4749 -206.6915 -134.5421
TCL: Running FEP window   4: Lambda1 0.15000000000000002 Lambda2 0.2    [dLambda 0.04999999999999999]
TCL: Setting parameter firsttimestep to 0
TCL: Setting parameter alchLambda to 0.15000000000000002
Info: NONBONDED TABLE R-SQUARED SPACING: 0.0625
Info: NONBONDED TABLE SIZE: 705 POINTS
TCL: Setting parameter alchLambda2 to 0.2
Info: NONBONDED TABLE R-SQUARED SPACING: 0.0625
Info: NONBONDED TABLE SIZE: 705 POINTS
TCL: Running for 1500000 steps
ETITLE: TS BOND ANGLE DIHED IMPRP ELECT VDW BOUNDARY MISC KINETIC TOTAL TEMP POTENTIAL TOTALAVG TEMPAVG PRESSURE GPRESSURE VOLUME PRESSAVG GPRESSAVG
ENERGY: 0 0.5817 1.1884 0.0000 0.0000 -10677.0947 1458.8508 0.0000 0.0000 1705.7697 -7510.7042 294.5718 -9216.4739 -7510.7042 294.5718 45.3783 129.0659 29986.4749 45.3783 129.0659
ENERGY: 300000 1.5997 1.7885 0.0000 0.0000 -10629.9908 1432.9025 0.0000 0.0000 1690.3808 -7503.3193 291.9143 -9193.7001 -7422.7566 297.9832 -169.4850 -107.1328 30245.2712 -81.9998 -11.8652
ENERGY: 600000 1.8598 0.5099 0.0000 0.0000 -10625.9769 1514.3377 0.0000 0.0000 1794.0659 -7315.2035 309.8199 -9109.2695 -7404.0325 301.0943 1010.2193 1066.9262 29840.2279 275.9055 327.2595
ENERGY: 900000 0.5397 1.1572 0.0000 0.0000 -10875.5987 1628.7754 0.0000 0.0000 1655.9223 -7589.2041 285.9636 -9245.1265 -7431.6165 298.5026 1432.1830 1538.2542 29526.9259 212.9711 273.8686
ENERGY: 1200000 0.0923 1.4961 0.0000 0.0000 -10491.8778 1350.7617 0.0000 0.0000 1743.0079 -7396.5199 301.0026 -9139.5278 -7429.0864 298.7979 -375.7070 -352.2660 29847.9206 239.2412 291.3176
ENERGY: 1500000 1.0879 2.1087 0.0000 0.0000 -10504.0421 1334.1427 0.0000 0.0000 1740.4194 -7426.2833 300.5556 -9166.7027 -7425.0132 298.3079 -882.0580 -780.9784 29828.3711 100.1029 157.8618
TCL: Running FEP window   5: Lambda1 0.2    Lambda2 0.25   [dLambda 0.04999999999999999]
TCL: Setting parameter firsttimestep to 0
TCL: Setting parameter alchLambda to 0.2
Info: NONBONDED TABLE R-SQUARED SPACING: 0.0625
Info: NONBONDED TABLE SIZE: 705 POINTS
TCL: Setting parameter alchLambda2 to 0.25
Info: NONBONDED TABLE R-SQUARED SPACING: 0.0625
Info: NONBONDED TABLE SIZE: 705 POINTS
TCL: Running for 1500000 steps
ETITLE: TS BOND ANGLE DIHED IMPRP ELECT VDW BOUNDARY MISC KINETIC TOTAL TEMP POTENTIAL TOTALAVG TEMPAVG PRESSURE GPRESSURE VOLUME PRESSAVG GPRESSAVG
ENERGY: 0 1.0879 2.1087 0.0000 0.0000 -10504.0399 1334.1504 0.0000 0.0000 1739.5774 -7427.1156 300.4101 -9166.6930 -7427.1156 300.4101 -860.0074 -776.3785 29828.3711 -860.0074 -776.3785
ENERGY: 300000 2.4181 3.1153 0.0000 0.0000 -10540.3932 1414.5113 0.0000 0.0000 1747.5361 -7372.8125 301.7845 -9120.3485 -7431.7239 297.5308 107.7524 172.7224 29933.8297 -51.5099 31.3816
ENERGY: 600000 0.5748 0.3898 0.0000 0.0000 -10463.6993 1362.8989 0.0000 0.0000 1751.3862 -7348.4495 302.4494 -9099.8357 -7440.7904 297.9722 -442.4261 -354.9523 30272.3763 -119.3741 -32.5237
ENERGY: 900000 1.9467 0.8061 0.0000 0.0000 -10680.6706 1484.4969 0.0000 0.0000 1752.3460 -7441.0749 302.6152 -9193.4210 -7424.7259 299.2637 369.7281 481.2524 29660.3142 -237.2862 -152.5237
ENERGY: 1200000 3.0015 1.4694 0.0000 0.0000 -10615.1178 1417.2008 0.0000 0.0000 1744.3199 -7449.1262 301.2291 -9193.4461 -7425.0591 300.1014 -201.0262 -137.8933 30296.0432 -200.6433 -118.4266
ENERGY: 1500000 0.4502 0.5709 0.0000 0.0000 -10689.8317 1458.6696 0.0000 0.0000 1684.3495 -7545.7916 290.8728 -9230.1411 -7425.9475 299.5736 248.8488 359.9915 29557.9356 -78.5933 0.4075
TCL: Running FEP window   6: Lambda1 0.25   Lambda2 0.3    [dLambda 0.04999999999999999]
TCL: Setting parameter firsttimestep to 0
TCL: Setting parameter alchLambda to 0.25
Info: NONBONDED TABLE R-SQUARED SPACING: 0.0625
Info: NONBONDED TABLE SIZE: 705 POINTS
TCL: Setting parameter alchLambda2 to 0.3
Info: NONBONDED TABLE R-SQUARED SPACING: 0.0625
Info: NONBONDED TABLE SIZE: 705 POINTS
TCL: Running for 1500000 steps
ETITLE: TS BOND ANGLE DIHED IMPRP ELECT VDW BOUNDARY MISC KINETIC TOTAL TEMP POTENTIAL TOTALAVG TEMPAVG PRESSURE GPRESSURE VOLUME PRESSAVG GPRESSAVG
ENERGY: 0 0.4502 0.5709 0.0000 0.0000 -10689.8324 1460.4520 0.0000 0.0000 1683.4709 -7544.8884 290.7210 -9228.3593 -7544.8884 290.7210 296.9935 374.5665 29557.9356 296.9935 374.5665
ENERGY: 300000 3.0669 0.7260 0.0000 0.0000 -10679.3856 1514.8919 0.0000 0.0000 1746.4505 -7414.2504 301.5971 -9160.7009 -7431.1389 300.1009 766.1630 843.4552 29497.5650 178.4811 251.7700
ENERGY: 600000 2.0151 1.0816 0.0000 0.0000 -10632.2383 1465.6769 0.0000 0.0000 1694.3687 -7469.0960 292.6030 -9163.4647 -7438.2199 300.1735 106.0972 213.4126 29955.0716 73.7659 152.5705
ENERGY: 900000 1.3334 1.5877 0.0000 0.0000 -10556.4811 1417.7197 0.0000 0.0000 1717.7381 -7418.1022 296.6387 -9135.8403 -7430.5411 300.7338 270.3601 375.8433 29537.6251 6.2971 95.2200
ENERGY: 1200000 1.3008 1.2842 0.0000 0.0000 -10515.4834 1371.0129 0.0000 0.0000 1757.4498 -7384.4356 303.4966 -9141.8854 -7423.5576 300.5959 -344.4540 -282.0032 30099.0484 -27.3425 54.9088
ENERGY: 1500000 0.9339 0.5951 0.0000 0.0000 -10549.1597 1389.3931 0.0000 0.0000 1737.0484 -7421.1893 299.9734 -9158.2377 -7421.6828 300.7671 -152.3884 -115.0864 29870.3246 -27.2376 45.3483
TCL: Running FEP window   7: Lambda1 0.3    Lambda2 0.35   [dLambda 0.04999999999999999]
TCL: Setting parameter firsttimestep to 0
TCL: Setting parameter alchLambda to 0.3
Info: NONBONDED TABLE R-SQUARED SPACING: 0.0625
Info: NONBONDED TABLE SIZE: 705 POINTS
TCL: Setting parameter alchLambda2 to 0.35
Info: NONBONDED TABLE R-SQUARED SPACING: 0.0625
Info: NONBONDED TABLE SIZE: 705 POINTS
TCL: Running for 1500000 steps
ETITLE: TS BOND ANGLE DIHED IMPRP ELECT VDW BOUNDARY MISC KINETIC TOTAL TEMP POTENTIAL TOTALAVG TEMPAVG PRESSURE GPRESSURE VOLUME PRESSAVG GPRESSAVG
ENERGY: 0 0.9339 0.5951 0.0000 0.0000 -10549.1590 1389.9818 0.0000 0.0000 1736.1815 -7421.4667 299.8237 -9157.6482 -7421.4667 299.8237 -202.6584 -112.1201 29870.3246 -202.6584 -112.1201
ENERGY: 300000 0.4778 3.4910 0.0000 0.0000 -10552.7614 1411.6474 0.0000 0.0000 1769.1952 -7367.9501 305.5249 -9137.1453 -7399.3951 302.0144 -205.2389 -102.0804 30344.7430 -436.8423 -339.3824
ENERGY: 600000 0.2778 1.6447 0.0000 0.0000 -10602.5860 1425.9879 0.0000 0.0000 1768.4062 -7406.2694 305.3886 -9174.6756 -7381.4966 302.7266 5.6840 61.3602 29993.2397 -202.4296 -129.1197
ENERGY: 900000 0.6153 1.6465 0.0000 0.0000 -10490.4582 1370.4807 0.0000 0.0000 1675.9104 -7441.8053 289.4154 -9117.7157 -7397.2267 301.1747 -331.0878 -251.1267 29873.3400 -122.9420 -54.2705
ENERGY: 1200000 0.4547 5.8325 0.0000 0.0000 -10703.3865 1510.8383 0.0000 0.0000 1712.3913 -7473.8696 295.7153 -9186.2609 -7408.3577 300.1478 641.8643 682.4320 29895.0669 -82.6968 -17.6156
ENERGY: 1500000 0.1288 1.9376 0.0000 0.0000 -10583.6077 1416.7890 0.0000 0.0000 1728.0074 -7436.7450 298.4121 -9164.7523 -7406.8368 300.7447 171.7278 242.7139 29570.6923 -83.9070 -14.5414
TCL: Running FEP window   8: Lambda1 0.35   Lambda2 0.39999999999999997 [dLambda 0.04999999999999999]
TCL: Setting parameter firsttimestep to 0
TCL: Setting parameter alchLambda to 0.35
Info: NONBONDED TABLE R-SQUARED SPACING: 0.0625
Info: NONBONDED TABLE SIZE: 705 POINTS
TCL: Setting parameter alchLambda2 to 0.39999999999999997
Info: NONBONDED TABLE R-SQUARED SPACING: 0.0625
Info: NONBONDED TABLE SIZE: 705 POINTS
TCL: Running for 1500000 steps
ETITLE: TS BOND ANGLE DIHED IMPRP ELECT VDW BOUNDARY MISC KINETIC TOTAL TEMP POTENTIAL TOTALAVG TEMPAVG PRESSURE GPRESSURE VOLUME PRESSAVG GPRESSAVG
ENERGY: 0 0.1288 1.9376 0.0000 0.0000 -10583.6080 1416.6569 0.0000 0.0000 1727.1327 -7437.7520 298.2611 -9164.8847 -7437.7520 298.2611 154.0867 244.2021 29570.6923 154.0867 244.2021
ENERGY: 300000 2.8495 1.3446 0.0000 0.0000 -10580.4364 1473.4538 0.0000 0.0000 1770.3621 -7332.4264 305.7264 -9102.7886 -7399.6268 301.0505 578.8440 642.7017 29944.4460 104.1965 173.7093
ENERGY: 600000 1.0928 0.7145 0.0000 0.0000 -10582.1046 1476.0565 0.0000 0.0000 1755.9423 -7348.2986 303.2362 -9104.2409 -7386.9412 303.4840 699.9671 771.9629 29774.6553 167.4417 231.6170
ENERGY: 900000 0.8677 2.9325 0.0000 0.0000 -10566.1948 1399.1873 0.0000 0.0000 1747.3526 -7415.8546 301.7529 -9163.2073 -7391.8383 302.2134 -53.4721 8.6283 29828.7423 36.1809 103.5393
ENERGY: 1200000 1.1343 1.9180 0.0000 0.0000 -10632.9858 1455.0680 0.0000 0.0000 1716.3689 -7458.4967 296.4022 -9174.8655 -7400.2155 302.1037 274.2978 290.6450 29753.0774 15.5798 76.7234
ENERGY: 1500000 2.2993 0.6603 0.0000 0.0000 -10631.8495 1451.9204 0.0000 0.0000 1726.4830 -7450.4865 298.1489 -9176.9694 -7401.6866 301.2595 83.4675 131.9632 30195.1686 -58.5103 1.4179
TCL: Running FEP window   9: Lambda1 0.39999999999999997 Lambda2 0.44999999999999996 [dLambda 0.04999999999999999]
TCL: Setting parameter firsttimestep to 0
TCL: Setting parameter alchLambda to 0.39999999999999997
Info: NONBONDED TABLE R-SQUARED SPACING: 0.0625
Info: NONBONDED TABLE SIZE: 705 POINTS
TCL: Setting parameter alchLambda2 to 0.44999999999999996
Info: NONBONDED TABLE R-SQUARED SPACING: 0.0625
Info: NONBONDED TABLE SIZE: 705 POINTS
TCL: Running for 1500000 steps
ETITLE: TS BOND ANGLE DIHED IMPRP ELECT VDW BOUNDARY MISC KINETIC TOTAL TEMP POTENTIAL TOTALAVG TEMPAVG PRESSURE GPRESSURE VOLUME PRESSAVG GPRESSAVG
ENERGY: 0 2.2993 0.6603 0.0000 0.0000 -10631.8493 1452.0136 0.0000 0.0000 1725.5950 -7451.2811 297.9955 -9176.8761 -7451.2811 297.9955 56.1715 136.9005 30195.1686 56.1715 136.9005
ENERGY: 300000 2.2858 2.9071 0.0000 0.0000 -10632.0983 1433.0957 0.0000 0.0000 1784.0968 -7409.7128 308.0983 -9193.8097 -7420.0220 303.0778 159.6199 167.9333 29779.5659 -31.1396 6.8810
ENERGY: 600000 2.0300 2.2992 0.0000 0.0000 -10438.1792 1370.2603 0.0000 0.0000 1746.3220 -7317.2678 301.5749 -9063.5898 -7367.6453 302.3775 -360.5205 -342.7895 30338.6879 -115.9532 -76.4992
ENERGY: 900000 0.4415 4.3789 0.0000 0.0000 -10639.8586 1418.9340 0.0000 0.0000 1727.9971 -7488.1071 298.4103 -9216.1042 -7379.4580 301.8322 -363.3658 -329.5145 30055.7563 -99.5910 -58.8788
ENERGY: 1200000 1.2619 0.6100 0.0000 0.0000 -10425.8349 1328.5610 0.0000 0.0000 1716.6745 -7378.7276 296.4550 -9095.4021 -7380.3330 302.1504 -834.7174 -802.0789 30752.9183 -159.1898 -109.4890
ENERGY: 1500000 0.5204 0.5588 0.0000 0.0000 -10761.1096 1479.4791 0.0000 0.0000 1780.6433 -7499.9079 307.5019 -9280.5513 -7385.2516 301.8260 100.7286 147.1370 29944.4776 -81.0468 -31.9291
TCL: Running FEP window  10: Lambda1 0.44999999999999996 Lambda2 0.49999999999999994 [dLambda 0.04999999999999999]
TCL: Setting parameter firsttimestep to 0
TCL: Setting parameter alchLambda to 0.44999999999999996
Info: NONBONDED TABLE R-SQUARED SPACING: 0.0625
Info: NONBONDED TABLE SIZE: 705 POINTS
TCL: Setting parameter alchLambda2 to 0.49999999999999994
Info: NONBONDED TABLE R-SQUARED SPACING: 0.0625
Info: NONBONDED TABLE SIZE: 705 POINTS
TCL: Running for 1500000 steps
ETITLE: TS BOND ANGLE DIHED IMPRP ELECT VDW BOUNDARY MISC KINETIC TOTAL TEMP POTENTIAL TOTALAVG TEMPAVG PRESSURE GPRESSURE VOLUME PRESSAVG GPRESSAVG
ENERGY: 0 0.5204 0.5588 0.0000 0.0000 -10761.1083 1479.3324 0.0000 0.0000 1779.7835 -7500.9132 307.3534 -9280.6967 -7500.9132 307.3534 77.0292 153.4792 29944.4776 77.0292 153.4792
ENERGY: 300000 0.3734 5.3649 0.0000 0.0000 -10596.9525 1444.5592 0.0000 0.0000 1771.8718 -7374.7831 305.9871 -9146.6550 -7452.1248 300.8221 406.0669 438.0101 29805.8545 198.6477 266.1584
ENERGY: 600000 0.1508 1.0648 0.0000 0.0000 -10463.3394 1309.9344 0.0000 0.0000 1696.6839 -7455.5054 293.0028 -9152.1893 -7449.6479 297.1280 -730.3219 -679.1965 29728.0694 -141.4460 -89.9942
ENERGY: 900000 0.3136 2.9546 0.0000 0.0000 -10516.8708 1349.1315 0.0000 0.0000 1682.9058 -7481.5653 290.6234 -9164.4711 -7431.3567 297.4747 -829.3482 -782.1924 30089.7403 -148.0233 -97.5366
ENERGY: 1200000 0.2664 2.6641 0.0000 0.0000 -10714.5017 1532.4186 0.0000 0.0000 1789.3824 -7389.7702 309.0110 -9179.1526 -7439.0563 298.1983 794.0389 894.5051 29998.3568 -81.6562 -29.1064
ENERGY: 1500000 1.1559 2.2739 0.0000 0.0000 -10519.7543 1419.6736 0.0000 0.0000 1703.6539 -7392.9970 294.2065 -9096.6509 -7440.4963 298.3234 -8.1256 15.4959 30500.3987 -112.2925 -60.1644
TCL: Running FEP window  11: Lambda1 0.49999999999999994 Lambda2 0.5499999999999999 [dLambda 0.04999999999999999]
TCL: Setting parameter firsttimestep to 0
TCL: Setting parameter alchLambda to 0.49999999999999994
Info: NONBONDED TABLE R-SQUARED SPACING: 0.0625
Info: NONBONDED TABLE SIZE: 705 POINTS
TCL: Setting parameter alchLambda2 to 0.5499999999999999
Info: NONBONDED TABLE R-SQUARED SPACING: 0.0625
Info: NONBONDED TABLE SIZE: 705 POINTS
TCL: Running for 1500000 steps
ETITLE: TS BOND ANGLE DIHED IMPRP ELECT VDW BOUNDARY MISC KINETIC TOTAL TEMP POTENTIAL TOTALAVG TEMPAVG PRESSURE GPRESSURE VOLUME PRESSAVG GPRESSAVG
ENERGY: 0 1.1559 2.2739 0.0000 0.0000 -10519.7545 1419.4802 0.0000 0.0000 1702.8034 -7394.0411 294.0596 -9096.8445 -7394.0411 294.0596 -49.7042 19.2808 30500.3987 -49.7042 19.2808
ENERGY: 300000 0.7845 0.8604 0.0000 0.0000 -10706.2061 1490.5345 0.0000 0.0000 1738.8927 -7475.1341 300.2919 -9214.0268 -7420.3527 300.8028 327.3779 412.9766 29909.6103 364.7787 417.0869
ENERGY: 600000 0.1902 0.3216 0.0000 0.0000 -10433.5686 1325.6183 0.0000 0.0000 1774.3551 -7333.0833 306.4160 -9107.4384 -7408.0194 302.9132 -827.0476 -718.2755 30667.8568 50.7465 110.3327
ENERGY: 900000 1.8979 0.3554 0.0000 0.0000 -10473.9904 1381.4484 0.0000 0.0000 1768.1933 -7322.0954 305.3519 -9090.2887 -7393.4838 303.4482 -232.3076 -185.0517 30242.9224 48.1091 105.4220
ENERGY: 1200000 0.1297 5.5587 0.0000 0.0000 -10634.8942 1429.6700 0.0000 0.0000 1798.1971 -7401.3386 310.5333 -9199.5358 -7390.3351 305.0025 -199.5092 -89.8373 30269.3107 -47.8728 10.0851
ENERGY: 1500000 1.0164 1.5276 0.0000 0.0000 -10485.4028 1371.3632 0.0000 0.0000 1788.9357 -7322.5599 308.9339 -9111.4956 -7390.0507 304.9566 -417.6204 -336.6138 30312.1042 -83.1041 -22.6167
TCL: Running FEP window  12: Lambda1 0.5499999999999999 Lambda2 0.6    [dLambda 0.050000000000000044]
TCL: Setting parameter firsttimestep to 0
TCL: Setting parameter alchLambda to 0.5499999999999999
Info: NONBONDED TABLE R-SQUARED SPACING: 0.0625
Info: NONBONDED TABLE SIZE: 705 POINTS
TCL: Setting parameter alchLambda2 to 0.6
Info: NONBONDED TABLE R-SQUARED SPACING: 0.0625
Info: NONBONDED TABLE SIZE: 705 POINTS
TCL: Running for 1500000 steps
ETITLE: TS BOND ANGLE DIHED IMPRP ELECT VDW BOUNDARY MISC KINETIC TOTAL TEMP POTENTIAL TOTALAVG TEMPAVG PRESSURE GPRESSURE VOLUME PRESSAVG GPRESSAVG
ENERGY: 0 1.0164 1.5276 0.0000 0.0000 -10485.6056 1370.8933 0.0000 0.0000 1788.0980 -7324.0703 308.7892 -9112.1683 -7324.0703 308.7892 -412.2637 -333.8913 30312.1042 -412.2637 -333.8913
ENERGY: 300000 0.5874 2.0713 0.0000 0.0000 -10623.7142 1481.2227 0.0000 0.0000 1770.4677 -7369.3651 305.7446 -9139.8328 -7347.8695 305.4697 739.0104 857.7377 29552.7749 15.5514 80.3861
ENERGY: 600000 1.1713 0.4343 0.0000 0.0000 -10557.9594 1388.8045 0.0000 0.0000 1774.1925 -7393.3569 306.3879 -9167.5494 -7379.9613 303.1759 -590.1808 -569.9438 30523.1083 -98.1308 -33.0702
ENERGY: 900000 0.3809 2.1590 0.0000 0.0000 -10651.2171 1436.1635 0.0000 0.0000 1705.9101 -7506.6037 294.5961 -9212.5138 -7406.7825 301.5811 -71.7917 -47.1989 30050.3740 -25.4695 30.7258
ENERGY: 1200000 0.8938 2.0073 0.0000 0.0000 -10525.5090 1371.0985 0.0000 0.0000 1766.8519 -7384.6574 305.1202 -9151.5093 -7409.0790 301.7547 -243.9292 -145.1586 29887.3404 84.6458 142.1803
ENERGY: 1500000 0.6866 1.7231 0.0000 0.0000 -10696.4040 1477.7242 0.0000 0.0000 1719.9453 -7496.3248 297.0198 -9216.2701 -7410.8326 301.9774 116.4599 188.1955 30205.0966 28.0079 90.9265
TCL: Running FEP window  13: Lambda1 0.6    Lambda2 0.65   [dLambda 0.050000000000000044]
TCL: Setting parameter firsttimestep to 0
TCL: Setting parameter alchLambda to 0.6
Info: NONBONDED TABLE R-SQUARED SPACING: 0.0625
Info: NONBONDED TABLE SIZE: 705 POINTS
TCL: Setting parameter alchLambda2 to 0.65
Info: NONBONDED TABLE R-SQUARED SPACING: 0.0625
Info: NONBONDED TABLE SIZE: 705 POINTS
TCL: Running for 1500000 steps
ETITLE: TS BOND ANGLE DIHED IMPRP ELECT VDW BOUNDARY MISC KINETIC TOTAL TEMP POTENTIAL TOTALAVG TEMPAVG PRESSURE GPRESSURE VOLUME PRESSAVG GPRESSAVG
ENERGY: 0 0.6866 1.7231 0.0000 0.0000 -10696.1446 1477.9150 0.0000 0.0000 1719.0892 -7496.7307 296.8720 -9215.8199 -7496.7307 296.8720 110.8574 195.4344 30205.0966 110.8574 195.4344
ENERGY: 300000 0.0382 2.0985 0.0000 0.0000 -10709.4163 1472.1552 0.0000 0.0000 1759.7924 -7475.3320 303.9011 -9235.1245 -7460.4365 300.8313 147.5064 268.4253 30119.5724 166.1645 233.6119
ENERGY: 600000 0.0714 1.5081 0.0000 0.0000 -10587.5978 1377.4416 0.0000 0.0000 1709.8758 -7498.7009 295.2809 -9208.5767 -7440.2744 300.3348 -503.9199 -454.7580 30034.6635 216.4253 286.9337
ENERGY: 900000 0.9023 3.6994 0.0000 0.0000 -10466.7179 1346.2259 0.0000 0.0000 1742.2781 -7373.6121 300.8765 -9115.8902 -7439.7154 299.6147 -423.3047 -340.0381 30120.1657 107.0918 191.5371
ENERGY: 1200000 1.0432 2.7508 0.0000 0.0000 -10491.1708 1350.7994 0.0000 0.0000 1736.2185 -7400.3590 299.8301 -9136.5774 -7429.7969 299.5501 -574.8813 -459.1259 30399.0665 15.3052 99.6512
ENERGY: 1500000 0.7217 2.4423 0.0000 0.0000 -10503.0647 1377.7506 0.0000 0.0000 1753.0064 -7369.1436 302.7292 -9122.1500 -7419.9721 300.1656 -360.4577 -300.4794 30208.9602 -6.5857 67.7597
TCL: Running FEP window  14: Lambda1 0.65   Lambda2 0.7000000000000001 [dLambda 0.050000000000000044]
TCL: Setting parameter firsttimestep to 0
TCL: Setting parameter alchLambda to 0.65
Info: NONBONDED TABLE R-SQUARED SPACING: 0.0625
Info: NONBONDED TABLE SIZE: 705 POINTS
TCL: Setting parameter alchLambda2 to 0.7000000000000001
Info: NONBONDED TABLE R-SQUARED SPACING: 0.0625
Info: NONBONDED TABLE SIZE: 705 POINTS
TCL: Running for 1500000 steps
ETITLE: TS BOND ANGLE DIHED IMPRP ELECT VDW BOUNDARY MISC KINETIC TOTAL TEMP POTENTIAL TOTALAVG TEMPAVG PRESSURE GPRESSURE VOLUME PRESSAVG GPRESSAVG
ENERGY: 0 0.7217 2.4423 0.0000 0.0000 -10503.1705 1377.5028 0.0000 0.0000 1752.1468 -7370.3569 302.5808 -9122.5037 -7370.3569 302.5808 -380.7288 -295.7477 30208.9602 -380.7288 -295.7477
ENERGY: 300000 0.6189 1.6110 0.0000 0.0000 -10483.3830 1365.7113 0.0000 0.0000 1697.9507 -7417.4911 293.2216 -9115.4418 -7382.5265 299.4136 -327.1606 -298.0326 29991.9985 -217.5098 -142.8412
ENERGY: 600000 0.8833 1.2430 0.0000 0.0000 -10649.2133 1491.1595 0.0000 0.0000 1743.5260 -7412.4014 301.0920 -9155.9274 -7389.4474 299.9543 449.2780 472.8002 30212.3667 -85.4419 -31.7554
ENERGY: 900000 0.6385 2.0794 0.0000 0.0000 -10546.6634 1382.3928 0.0000 0.0000 1677.2614 -7484.2913 289.6487 -9161.5528 -7410.5728 298.2621 -250.2432 -269.2270 29777.4783 -132.2835 -81.6902
ENERGY: 1200000 1.5318 0.4110 0.0000 0.0000 -10687.9220 1459.4202 0.0000 0.0000 1726.0102 -7500.5489 298.0672 -9226.5590 -7431.9420 298.1706 163.3787 130.6037 30151.6032 -154.5221 -111.7513
ENERGY: 1500000 1.0432 1.0972 0.0000 0.0000 -10640.4150 1450.2739 0.0000 0.0000 1789.4227 -7398.5780 309.0180 -9188.0007 -7426.6563 298.7451 33.3064 117.3778 30092.4459 -113.9499 -60.8221
TCL: Running FEP window  15: Lambda1 0.7000000000000001 Lambda2 0.7500000000000001 [dLambda 0.050000000000000044]
TCL: Setting parameter firsttimestep to 0
TCL: Setting parameter alchLambda to 0.7000000000000001
Info: NONBONDED TABLE R-SQUARED SPACING: 0.0625
Info: NONBONDED TABLE SIZE: 705 POINTS
TCL: Setting parameter alchLambda2 to 0.7500000000000001
Info: NONBONDED TABLE R-SQUARED SPACING: 0.0625
Info: NONBONDED TABLE SIZE: 705 POINTS
TCL: Running for 1500000 steps
ETITLE: TS BOND ANGLE DIHED IMPRP ELECT VDW BOUNDARY MISC KINETIC TOTAL TEMP POTENTIAL TOTALAVG TEMPAVG PRESSURE GPRESSURE VOLUME PRESSAVG GPRESSAVG
ENERGY: 0 1.0432 1.0972 0.0000 0.0000 -10640.5154 1449.6499 0.0000 0.0000 1788.5690 -7400.1561 308.8706 -9188.7251 -7400.1561 308.8706 41.9391 118.7594 30092.4459 41.9391 118.7594
ENERGY: 300000 0.8499 1.0326 0.0000 0.0000 -10558.0374 1426.0216 0.0000 0.0000 1701.8304 -7428.3031 293.8916 -9130.1334 -7421.7422 301.5304 235.1418 283.7168 30067.6213 -124.2911 -44.0698
ENERGY: 600000 2.1049 2.4902 0.0000 0.0000 -10603.5621 1457.2225 0.0000 0.0000 1762.7984 -7378.9461 304.4202 -9141.7445 -7418.3666 303.1353 311.7678 360.0307 30123.6109 -108.7400 -42.1542
ENERGY: 900000 1.0223 0.8699 0.0000 0.0000 -10580.7518 1405.6854 0.0000 0.0000 1688.1377 -7485.0365 291.5269 -9173.1741 -7425.5164 303.2847 -485.6415 -357.4121 30084.1666 -123.3184 -50.4055
ENERGY: 1200000 0.5520 2.6881 0.0000 0.0000 -10600.1611 1424.0831 0.0000 0.0000 1711.3548 -7461.4831 295.5363 -9172.8379 -7419.6856 302.7359 -99.8863 -16.5132 30176.9592 -146.6535 -77.0563
ENERGY: 1500000 1.3689 1.1138 0.0000 0.0000 -10510.0699 1433.1981 0.0000 0.0000 1730.9125 -7343.4766 298.9138 -9074.3891 -7416.3531 303.0139 90.0805 158.4652 30422.5934 -97.3473 -30.9808
TCL: Running FEP window  16: Lambda1 0.7500000000000001 Lambda2 0.8000000000000002 [dLambda 0.050000000000000044]
TCL: Setting parameter firsttimestep to 0
TCL: Setting parameter alchLambda to 0.7500000000000001
Info: NONBONDED TABLE R-SQUARED SPACING: 0.0625
Info: NONBONDED TABLE SIZE: 705 POINTS
TCL: Setting parameter alchLambda2 to 0.8000000000000002
Info: NONBONDED TABLE R-SQUARED SPACING: 0.0625
Info: NONBONDED TABLE SIZE: 705 POINTS
TCL: Running for 1500000 steps
ETITLE: TS BOND ANGLE DIHED IMPRP ELECT VDW BOUNDARY MISC KINETIC TOTAL TEMP POTENTIAL TOTALAVG TEMPAVG PRESSURE GPRESSURE VOLUME PRESSAVG GPRESSAVG
ENERGY: 0 1.3689 1.1138 0.0000 0.0000 -10510.2546 1433.2967 0.0000 0.0000 1730.0499 -7344.4253 298.7648 -9074.4752 -7344.4253 298.7648 67.0561 167.5749 30422.5934 67.0561 167.5749
ENERGY: 300000 2.9699 1.2304 0.0000 0.0000 -10679.8179 1452.7763 0.0000 0.0000 1682.2927 -7540.5486 290.5176 -9222.8413 -7409.6122 295.5824 218.2031 274.8655 29294.9359 -13.5216 73.1883
ENERGY: 600000 0.1213 0.9654 0.0000 0.0000 -10641.0776 1446.3892 0.0000 0.0000 1815.1304 -7378.4714 313.4575 -9193.6017 -7428.2076 297.8815 150.5652 220.5022 29823.5434 -116.8044 -25.4597
ENERGY: 900000 0.6026 1.1110 0.0000 0.0000 -10579.2470 1444.2353 0.0000 0.0000 1746.6323 -7386.6657 301.6285 -9133.2980 -7432.9833 297.1525 257.4566 320.1445 29932.5786 -46.3886 37.3194
ENERGY: 1200000 0.2641 0.6093 0.0000 0.0000 -10568.3571 1452.9031 0.0000 0.0000 1803.6920 -7310.8887 311.4822 -9114.5806 -7414.6251 300.0105 82.1326 137.0580 30530.0114 -114.5961 -27.0206
ENERGY: 1500000 2.2002 1.9177 0.0000 0.0000 -10659.6356 1438.0416 0.0000 0.0000 1724.2228 -7493.2533 297.7585 -9217.4761 -7411.0144 300.3585 -4.9553 79.8213 29836.0226 -51.7058 34.4316
TCL: Running FEP window  17: Lambda1 0.8000000000000002 Lambda2 0.8500000000000002 [dLambda 0.050000000000000044]
TCL: Setting parameter firsttimestep to 0
TCL: Setting parameter alchLambda to 0.8000000000000002
Info: NONBONDED TABLE R-SQUARED SPACING: 0.0625
Info: NONBONDED TABLE SIZE: 705 POINTS
TCL: Setting parameter alchLambda2 to 0.8500000000000002
Info: NONBONDED TABLE R-SQUARED SPACING: 0.0625
Info: NONBONDED TABLE SIZE: 705 POINTS
TCL: Running for 1500000 steps
ETITLE: TS BOND ANGLE DIHED IMPRP ELECT VDW BOUNDARY MISC KINETIC TOTAL TEMP POTENTIAL TOTALAVG TEMPAVG PRESSURE GPRESSURE VOLUME PRESSAVG GPRESSAVG
ENERGY: 0 2.2002 1.9177 0.0000 0.0000 -10659.7779 1438.1728 0.0000 0.0000 1723.3404 -7494.1468 297.6061 -9217.4872 -7494.1468 297.6061 7.2484 92.4915 29836.0226 7.2484 92.4915
ENERGY: 300000 0.5716 0.7837 0.0000 0.0000 -10651.3344 1441.5157 0.0000 0.0000 1697.0916 -7511.3719 293.0732 -9208.4635 -7446.0772 297.5625 103.8670 134.4355 29760.6402 -225.0642 -150.6648
ENERGY: 600000 0.8651 0.2884 0.0000 0.0000 -10399.2048 1297.7828 0.0000 0.0000 1693.4038 -7406.8647 292.4364 -9100.2684 -7442.7175 297.0718 -1001.1810 -993.7577 30414.8339 -249.8410 -174.7876
ENERGY: 900000 0.4953 0.8144 0.0000 0.0000 -10625.3120 1502.8224 0.0000 0.0000 1748.4414 -7372.7384 301.9409 -9121.1798 -7424.6412 298.5539 905.0697 911.4993 29730.8613 -51.5558 4.9885
ENERGY: 1200000 1.1402 3.1087 0.0000 0.0000 -10487.2083 1387.0867 0.0000 0.0000 1706.0095 -7389.8633 294.6133 -9095.8727 -7431.7323 297.4617 -152.2830 -74.9231 29990.0218 -184.2704 -127.5733
ENERGY: 1500000 0.7459 3.9041 0.0000 0.0000 -10542.6265 1427.6150 0.0000 0.0000 1771.9602 -7338.4012 306.0024 -9110.3614 -7426.4448 298.4471 88.0083 176.3012 30056.5882 -131.5326 -72.4198
TCL: Running FEP window  18: Lambda1 0.8500000000000002 Lambda2 0.9000000000000002 [dLambda 0.050000000000000044]
TCL: Setting parameter firsttimestep to 0
TCL: Setting parameter alchLambda to 0.8500000000000002
Info: NONBONDED TABLE R-SQUARED SPACING: 0.0625
Info: NONBONDED TABLE SIZE: 705 POINTS
TCL: Setting parameter alchLambda2 to 0.9000000000000002
Info: NONBONDED TABLE R-SQUARED SPACING: 0.0625
Info: NONBONDED TABLE SIZE: 705 POINTS
TCL: Running for 1500000 steps
ETITLE: TS BOND ANGLE DIHED IMPRP ELECT VDW BOUNDARY MISC KINETIC TOTAL TEMP POTENTIAL TOTALAVG TEMPAVG PRESSURE GPRESSURE VOLUME PRESSAVG GPRESSAVG
ENERGY: 0 0.7459 3.9041 0.0000 0.0000 -10542.7635 1427.3707 0.0000 0.0000 1771.1212 -7339.6216 305.8575 -9110.7428 -7339.6216 305.8575 94.4368 183.4005 30056.5882 94.4368 183.4005
ENERGY: 300000 0.5478 1.6219 0.0000 0.0000 -10627.8675 1443.9869 0.0000 0.0000 1722.2523 -7459.4585 297.4183 -9181.7109 -7402.2475 302.4803 -92.0016 -51.1469 30233.2048 184.2648 256.9081
ENERGY: 600000 0.8271 0.8587 0.0000 0.0000 -10531.5190 1402.7310 0.0000 0.0000 1695.3145 -7431.7877 292.7663 -9127.1023 -7399.3959 301.8997 -195.9547 -121.1364 30450.0358 -31.5363 29.7142
ENERGY: 900000 0.2729 0.5350 0.0000 0.0000 -10717.5026 1542.8803 0.0000 0.0000 1777.2155 -7396.5989 306.9099 -9173.8144 -7413.3389 300.8907 1054.6453 1095.1104 29837.2440 -3.0802 54.1358
ENERGY: 1200000 0.5845 1.3426 0.0000 0.0000 -10589.9968 1386.1273 0.0000 0.0000 1687.7107 -7514.2317 291.4532 -9201.9424 -7408.2169 301.1264 -408.1103 -315.1208 29936.2106 -67.2610 -4.3675
ENERGY: 1500000 0.1869 1.1138 0.0000 0.0000 -10556.0473 1454.6051 0.0000 0.0000 1697.9979 -7402.1435 293.2297 -9100.1414 -7418.3384 299.5574 237.0504 266.1379 30522.6154 -67.6644 -6.9762
TCL: Running FEP window  19: Lambda1 0.9000000000000002 Lambda2 0.9500000000000003 [dLambda 0.050000000000000044]
TCL: Setting parameter firsttimestep to 0
TCL: Setting parameter alchLambda to 0.9000000000000002
Info: NONBONDED TABLE R-SQUARED SPACING: 0.0625
Info: NONBONDED TABLE SIZE: 705 POINTS
TCL: Setting parameter alchLambda2 to 0.9500000000000003
Info: NONBONDED TABLE R-SQUARED SPACING: 0.0625
Info: NONBONDED TABLE SIZE: 705 POINTS
TCL: Running for 1500000 steps
ETITLE: TS BOND ANGLE DIHED IMPRP ELECT VDW BOUNDARY MISC KINETIC TOTAL TEMP POTENTIAL TOTALAVG TEMPAVG PRESSURE GPRESSURE VOLUME PRESSAVG GPRESSAVG
ENERGY: 0 0.1869 1.1138 0.0000 0.0000 -10556.2799 1454.2990 0.0000 0.0000 1697.1211 -7403.5591 293.0783 -9100.6802 -7403.5591 293.0783 200.1465 274.0670 30522.6154 200.1465 274.0670
ENERGY: 300000 1.4340 1.9034 0.0000 0.0000 -10600.3071 1435.5666 0.0000 0.0000 1751.7948 -7409.6083 302.5200 -9161.4031 -7427.3097 300.7279 473.7262 544.5122 29646.2223 56.8732 136.9864
ENERGY: 600000 1.6885 2.3371 0.0000 0.0000 -10535.2594 1358.4812 0.0000 0.0000 1731.0650 -7441.6875 298.9401 -9172.7525 -7431.7641 301.3153 -504.2140 -527.2311 30082.7323 -114.1402 -51.2394
ENERGY: 900000 0.6545 1.7539 0.0000 0.0000 -10492.9680 1291.2679 0.0000 0.0000 1696.7534 -7502.5382 293.0148 -9199.2917 -7427.8383 299.8580 -1092.6397 -1031.8303 30271.3988 -249.2711 -184.9384
ENERGY: 1200000 0.8191 0.3898 0.0000 0.0000 -10551.4300 1407.4355 0.0000 0.0000 1730.7318 -7412.0538 298.8826 -9142.7856 -7422.4486 300.4189 -60.3088 23.9756 30070.5489 -209.9506 -143.0432
ENERGY: 1500000 1.2546 2.1124 0.0000 0.0000 -10599.1851 1430.0838 0.0000 0.0000 1695.5507 -7470.1837 292.8071 -9165.7344 -7419.8844 299.9935 20.7360 65.1040 30299.1806 -106.2405 -42.1211
TCL: Running FEP window  20: Lambda1 0.9500000000000003 Lambda2 1.0    [dLambda 0.04999999999999971]
TCL: Setting parameter firsttimestep to 0
TCL: Setting parameter alchLambda to 0.9500000000000003
Info: NONBONDED TABLE R-SQUARED SPACING: 0.0625
Info: NONBONDED TABLE SIZE: 705 POINTS
TCL: Setting parameter alchLambda2 to 1.0
Info: NONBONDED TABLE R-SQUARED SPACING: 0.0625
Info: NONBONDED TABLE SIZE: 705 POINTS
TCL: Running for 1500000 steps
ETITLE: TS BOND ANGLE DIHED IMPRP ELECT VDW BOUNDARY MISC KINETIC TOTAL TEMP POTENTIAL TOTALAVG TEMPAVG PRESSURE GPRESSURE VOLUME PRESSAVG GPRESSAVG
ENERGY: 0 1.2546 2.1124 0.0000 0.0000 -10599.3896 1429.6691 0.0000 0.0000 1694.7089 -7471.6445 292.6617 -9166.3534 -7471.6445 292.6617 -23.9007 66.2046 30299.1806 -23.9007 66.2046
ENERGY: 300000 0.7711 1.7899 0.0000 0.0000 -10602.7137 1425.3425 0.0000 0.0000 1714.9079 -7459.9024 296.1499 -9174.8102 -7439.4941 300.5698 -5.5758 22.8716 29893.5969 10.1202 96.4135
ENERGY: 600000 0.5038 4.0285 0.0000 0.0000 -10473.2029 1366.0563 0.0000 0.0000 1745.2462 -7357.3680 301.3891 -9102.6143 -7423.8288 301.4833 -328.5214 -340.4976 30514.1625 -43.8661 21.6022
ENERGY: 900000 2.3779 2.4392 0.0000 0.0000 -10596.2434 1407.4476 0.0000 0.0000 1724.0660 -7459.9127 297.7315 -9183.9787 -7430.1453 301.6368 -150.1628 -90.9990 30014.6024 -127.8133 -56.5035
ENERGY: 1200000 2.5432 1.7691 0.0000 0.0000 -10562.0330 1401.3387 0.0000 0.0000 1755.5459 -7400.8360 303.1678 -9156.3819 -7424.8925 301.3845 -186.2078 -101.5453 29939.8134 -164.1593 -96.3999
ENERGY: 1500000 0.0241 3.8424 0.0000 0.0000 -10611.2833 1428.6801 0.0000 0.0000 1767.9372 -7410.7994 305.3076 -9178.7367 -7431.1210 301.0781 104.0352 208.1650 29763.4316 -139.1567 -73.0584
TCL: Exiting due to exit command.
