Info: SIMULATION PARAMETERS:
Info: TIMESTEP               2
Info: NUMBER OF STEPS        0
Info: STEPS PER CYCLE        10
Info: PERIODIC CELL BASIS 1  35.89 0 0
Info: PERIODIC CELL BASIS 2  0 33.542 0
Info: PERIODIC CELL BASIS 3  0 0 36.199
Info: PERIODIC CELL CENTER   0 0 0
Info: WRAPPING WATERS AROUND PERIODIC BOUNDARIES ON OUTPUT.
Info: WRAPPING ALL CLUSTERS AROUND PERIODIC BOUNDARIES ON OUTPUT.
Info: FIRST LDB TIMESTEP     50
Info: LAST LDB TIMESTEP     -1
Info: HOM BACKGROUND SCALING 1
Info: PME BACKGROUND SCALING 1
Info: MIN ATOMS PER PATCH    40
Info: EMPTY PATCH LOAD       40 ATOMS
Info: INITIAL TEMPERATURE    300
Info: CENTER OF MASS MOVING INITIALLY? NO
Info: DIELECTRIC             1
Info: EXCLUDE                SCALED ONE-FOUR
Info: 1-4 ELECTROSTATICS SCALED BY 0.833333
Info: MODIFIED 1-4 VDW PARAMETERS WILL BE USED
Info: DCD FILENAME           mobley_9257453_equil.dcd
Info: DCD FREQUENCY          100000
Info: DCD FIRST STEP         100000
Info: DCD FILE WILL CONTAIN UNIT CELL DATA
Info: XST FILENAME           mobley_9257453_equil.xst
Info: XST FREQUENCY          100000
Info: NO VELOCITY DCD OUTPUT
Info: NO FORCE DCD OUTPUT
Info: OUTPUT FILENAME        mobley_9257453_equil
Info: BINARY OUTPUT FILES WILL BE USED
Info: RESTART FILENAME       mobley_9257453_equil.restart
Info: RESTART FREQUENCY      100000
Info: BINARY RESTART FILES WILL BE USED
Info: CUTOFF                 9
Info: PAIRLIST DISTANCE      11
Info: PAIRLIST SHRINK RATE   0.01
Info: PAIRLIST GROW RATE     0.01
Info: PAIRLIST TRIGGER       0.3
Info: PAIRLISTS PER CYCLE    2
Info: PAIRLISTS ENABLED
Info: MARGIN                 8
Info: HYDROGEN GROUP CUTOFF  2.5
Info: PATCH DIMENSION        21.5
Info: ENERGY OUTPUT STEPS    100000
Info: ENERGY EVALUATION STEPS    100000
Info: OUTPUT ENERGY PRECISION 4
Info: CROSSTERM ENERGY INCLUDED IN DIHEDRAL
Info: TIMING OUTPUT STEPS    1000000
Info: PRESSURE OUTPUT STEPS  100000
Info: LANGEVIN DYNAMICS ACTIVE
Info: LANGEVIN TEMPERATURE   30
Info: LANGEVIN USING BBK INTEGRATOR
Info: LANGEVIN DAMPING COEFFICIENT IS 1 INVERSE PS
Info: LANGEVIN DYNAMICS APPLIED TO HYDROGENS
Info: LANGEVIN PISTON PRESSURE CONTROL ACTIVE
Info:        TARGET PRESSURE IS 1.01325 BAR
Info:     OSCILLATION PERIOD IS 50 FS
Info:             DECAY TIME IS 25 FS
Info:     PISTON TEMPERATURE IS 300 K
Info:       PRESSURE CONTROL IS GROUP-BASED
Info:    INITIAL STRAIN RATE IS 0 0 0
Info:       CELL FLUCTUATION IS ISOTROPIC
Info: PARTICLE MESH EWALD (PME) ACTIVE
Info: PME TOLERANCE               1e-06
Info: PME EWALD COEFFICIENT       0.348832
Info: PME INTERPOLATION ORDER     4
Info: PME GRID DIMENSIONS         36 36 40
Info: PME MAXIMUM GRID SPACING    1
Info: FULL ELECTROSTATIC EVALUATION FREQUENCY      2
Info: USING VERLET I (r-RESPA) MTS SCHEME.
Info: C1 SPLITTING OF LONG RANGE ELECTROSTATICS
Info: PLACING ATOMS IN PATCHES BY HYDROGEN GROUPS
Info: RIGID BONDS TO HYDROGEN : ALL
Info:         ERROR TOLERANCE : 1e-08
Info:          MAX ITERATIONS : 100
Info: RIGID WATER USING SETTLE ALGORITHM
Info: RANDOM NUMBER SEED     1743209018
Info: USE HYDROGEN BONDS?    NO
Info: Using AMBER format force field!
Info: AMBER PARM FILE        mobley_9257453.prmtop
Info: COORDINATE PDB         mobley_9257453.pdb
Info: Exclusions will be read from PARM file!
Info: SCNB (VDW SCALING)     2
Info: USING ARITHMETIC MEAN TO COMBINE L-J SIGMA PARAMETERS
Info: BINARY COORDINATES     mobley_9257453_min.coor
Info: SUMMARY OF PARAMETERS:
Info: 7 BONDS
Info: 5 ANGLES
Info:   5 HARMONIC
Info:   0 COSINE-BASED
Info: 3 DIHEDRAL
Info: 0 IMPROPER
Info: 0 CROSSTERM
Info: 0 VDW
Info: 21 VDW_PAIRS
Info: 0 NBTHOLE_PAIRS
Info: STRUCTURE SUMMARY:
Info: 2926 ATOMS
Info: 2926 BONDS
Info: 19 ANGLES
Info: 32 DIHEDRALS
Info: 0 IMPROPERS
Info: 0 CROSSTERMS
Info: 2968 EXCLUSIONS
Info: 2917 RIGID BONDS
Info: 5861 DEGREES OF FREEDOM
Info: 980 HYDROGEN GROUPS
Info: 3 ATOMS IN LARGEST HYDROGEN GROUP
Info: 980 MIGRATION GROUPS
Info: 3 ATOMS IN LARGEST MIGRATION GROUP
Info: TOTAL MASS = 17656.5 amu
Info: TOTAL CHARGE = 2.42144e-08 e
Info: MASS DENSITY = 0.67283 g/cm^3
Info: ATOM DENSITY = 0.0671453 atoms/A^3
Info: ADDED 0 IMPLICIT EXCLUSIONS
Info: NONBONDED TABLE R-SQUARED SPACING: 0.0625
Info: NONBONDED TABLE SIZE: 705 POINTS
Info: REMOVING COM VELOCITY -0.229566 0.0633894 0.0087328
TCL: Running for 100000 steps
ETITLE: TS BOND ANGLE DIHED IMPRP ELECT VDW BOUNDARY MISC KINETIC TOTAL TEMP POTENTIAL TOTAL3 TEMPAVG PRESSURE GPRESSURE VOLUME PRESSAVG GPRESSAVG
ENERGY: 0 0.1340 0.1330 0.1036 0.0000 -13585.1117 2370.5131 0.0000 0.0000 1715.6874 -9498.5407 294.6163 -11214.2281 -9498.2139 294.6163 343.0624 380.6154 43577.1663 343.0624 380.6154
ENERGY: 100000 0.2886 0.7328 0.5582 0.0000 -14165.3386 2495.3207 0.0000 0.0000 173.6142 -11494.8241 29.8129 -11668.4383 -11494.4227 30.9193 594.3745 667.6810 28193.5999 3.3046 3.3206
TCL: Running 100000 steps at 60 kelvin.
TCL: Setting parameter langevinTemp to 60
TCL: Running for 100000 steps
ETITLE: TS BOND ANGLE DIHED IMPRP ELECT VDW BOUNDARY MISC KINETIC TOTAL TEMP POTENTIAL TOTAL3 TEMPAVG PRESSURE GPRESSURE VOLUME PRESSAVG GPRESSAVG
ENERGY: 100000 0.2886 0.7328 0.5582 0.0000 -14165.3386 2495.3207 0.0000 0.0000 173.5276 -11494.9106 29.7980 -11668.4383 -11494.5504 29.7980 600.5953 667.5493 28193.5999 600.5953 667.5493
ENERGY: 200000 0.7944 0.6877 0.4434 0.0000 -14023.8880 2443.5477 0.0000 0.0000 355.7145 -11222.7003 61.0830 -11578.4148 -11221.6200 60.0310 507.7974 557.4137 28175.9051 5.1718 5.0467
TCL: Running 100000 steps at 90 kelvin.
TCL: Setting parameter langevinTemp to 90
TCL: Running for 100000 steps
ETITLE: TS BOND ANGLE DIHED IMPRP ELECT VDW BOUNDARY MISC KINETIC TOTAL TEMP POTENTIAL TOTAL3 TEMPAVG PRESSURE GPRESSURE VOLUME PRESSAVG GPRESSAVG
ENERGY: 200000 0.7944 0.6877 0.4434 0.0000 -14023.8880 2443.5477 0.0000 0.0000 355.5484 -11222.8664 61.0545 -11578.4148 -11222.0903 61.0545 492.3873 557.7711 28175.9051 492.3873 557.7711
ENERGY: 300000 0.8455 1.5586 1.7036 0.0000 -14041.8053 2532.7779 0.0000 0.0000 523.9215 -10980.9981 89.9673 -11504.9195 -10979.6011 89.8325 1529.1215 1568.6974 27985.6805 4.1958 4.1659
TCL: Running 100000 steps at 120 kelvin.
TCL: Setting parameter langevinTemp to 120
TCL: Running for 100000 steps
ETITLE: TS BOND ANGLE DIHED IMPRP ELECT VDW BOUNDARY MISC KINETIC TOTAL TEMP POTENTIAL TOTAL3 TEMPAVG PRESSURE GPRESSURE VOLUME PRESSAVG GPRESSAVG
ENERGY: 300000 0.8455 1.5586 1.7036 0.0000 -14041.8053 2532.7779 0.0000 0.0000 523.6544 -10981.2651 89.9215 -11504.9195 -10980.3402 89.9215 1517.2542 1569.1004 27985.6805 1517.2542 1569.1004
ENERGY: 400000 1.4265 0.6168 0.4720 0.0000 -13825.4053 2418.1263 0.0000 0.0000 703.3383 -10701.4254 120.7766 -11404.7637 -10699.5336 120.1858 806.9140 901.9455 28209.0668 5.5813 5.5420
TCL: Running 100000 steps at 150 kelvin.
TCL: Setting parameter langevinTemp to 150
TCL: Running for 100000 steps
ETITLE: TS BOND ANGLE DIHED IMPRP ELECT VDW BOUNDARY MISC KINETIC TOTAL TEMP POTENTIAL TOTAL3 TEMPAVG PRESSURE GPRESSURE VOLUME PRESSAVG GPRESSAVG
ENERGY: 400000 1.4265 0.6168 0.4720 0.0000 -13825.4053 2418.1263 0.0000 0.0000 702.9828 -10701.7809 120.7156 -11404.7637 -10700.4138 120.7156 849.3968 902.4052 28209.0668 849.3968 902.4052
ENERGY: 500000 2.4386 1.8318 2.0448 0.0000 -13525.2691 2271.4196 0.0000 0.0000 898.8678 -10348.6666 154.3528 -11247.5344 -10347.0452 150.0229 62.4503 102.9975 28686.9518 3.5196 3.5074
TCL: Running 100000 steps at 180 kelvin.
TCL: Setting parameter langevinTemp to 180
TCL: Running for 100000 steps
ETITLE: TS BOND ANGLE DIHED IMPRP ELECT VDW BOUNDARY MISC KINETIC TOTAL TEMP POTENTIAL TOTAL3 TEMPAVG PRESSURE GPRESSURE VOLUME PRESSAVG GPRESSAVG
ENERGY: 500000 2.4386 1.8318 2.0448 0.0000 -13525.2691 2271.4196 0.0000 0.0000 898.4309 -10349.1035 154.2778 -11247.5344 -10347.2475 154.2778 50.5773 101.8564 28686.9518 50.5773 101.8564
ENERGY: 600000 0.5366 2.3020 1.1839 0.0000 -12877.0743 1957.2456 0.0000 0.0000 1064.7080 -9851.0982 182.8307 -10915.8062 -9848.9212 179.9163 -1418.0975 -1376.9339 29178.0169 3.6110 3.5319
TCL: Running 100000 steps at 210 kelvin.
TCL: Setting parameter langevinTemp to 210
TCL: Running for 100000 steps
ETITLE: TS BOND ANGLE DIHED IMPRP ELECT VDW BOUNDARY MISC KINETIC TOTAL TEMP POTENTIAL TOTAL3 TEMPAVG PRESSURE GPRESSURE VOLUME PRESSAVG GPRESSAVG
ENERGY: 600000 0.5366 2.3020 1.1839 0.0000 -12877.0743 1957.2456 0.0000 0.0000 1064.1908 -9851.6154 182.7419 -10915.8062 -9849.0460 182.7419 -1434.1566 -1377.0598 29178.0169 -1434.1566 -1377.0598
ENERGY: 700000 2.2174 2.2271 2.1225 0.0000 -12318.5674 1870.7086 0.0000 0.0000 1283.2028 -9158.0889 220.3505 -10441.2918 -9154.0466 210.5007 8.2747 160.4688 28690.8248 2.8208 2.9633
TCL: Running 100000 steps at 240 kelvin.
TCL: Setting parameter langevinTemp to 240
TCL: Running for 100000 steps
ETITLE: TS BOND ANGLE DIHED IMPRP ELECT VDW BOUNDARY MISC KINETIC TOTAL TEMP POTENTIAL TOTAL3 TEMPAVG PRESSURE GPRESSURE VOLUME PRESSAVG GPRESSAVG
ENERGY: 700000 2.2174 2.2271 2.1225 0.0000 -12318.5674 1870.7086 0.0000 0.0000 1282.5858 -9158.7059 220.2445 -10441.2918 -9155.8779 220.2445 78.0714 163.0131 28690.8248 78.0714 163.0131
ENERGY: 800000 5.4435 2.4053 3.4745 0.0000 -11723.9925 1717.3901 0.0000 0.0000 1441.6671 -8553.6120 247.5618 -9995.2791 -8550.6882 239.6795 99.6677 211.2126 29007.4861 3.6653 3.5786
TCL: Running 100000 steps at 270 kelvin.
TCL: Setting parameter langevinTemp to 270
TCL: Running for 100000 steps
ETITLE: TS BOND ANGLE DIHED IMPRP ELECT VDW BOUNDARY MISC KINETIC TOTAL TEMP POTENTIAL TOTAL3 TEMPAVG PRESSURE GPRESSURE VOLUME PRESSAVG GPRESSAVG
ENERGY: 800000 5.4435 2.4053 3.4745 0.0000 -11723.9925 1717.3901 0.0000 0.0000 1440.9820 -8554.2971 247.4442 -9995.2791 -8552.4569 247.4442 138.8246 211.5667 29007.4861 138.8246 211.5667
ENERGY: 900000 1.5105 2.4744 1.8436 0.0000 -11042.6650 1479.1366 0.0000 0.0000 1544.1422 -8013.5577 265.1587 -9557.6999 -8010.2535 270.1973 -533.9001 -466.3248 29757.8323 2.4355 2.4391
TCL: Running 1000000 steps at 300 kelvin.
TCL: Setting parameter langevinTemp to 300
TCL: Running for 1000000 steps
ETITLE: TS BOND ANGLE DIHED IMPRP ELECT VDW BOUNDARY MISC KINETIC TOTAL TEMP POTENTIAL TOTAL3 TEMPAVG PRESSURE GPRESSURE VOLUME PRESSAVG GPRESSAVG
ENERGY: 900000 1.5105 2.4744 1.8436 0.0000 -11042.6650 1479.1366 0.0000 0.0000 1543.3546 -8014.3453 265.0235 -9557.6999 -8011.9093 265.0235 -555.3147 -466.6764 29757.8323 -555.3147 -466.6764
ENERGY: 1100000 6.7120 2.1568 2.9892 0.0000 -10712.4625 1473.3176 0.0000 0.0000 1756.7061 -7470.5808 301.6600 -9227.2869 -7468.9247 300.0473 -189.4609 -45.0270 30352.5326 3.0460 3.0380
ENERGY: 1300000 1.6180 2.0543 2.5591 0.0000 -10549.2034 1375.9743 0.0000 0.0000 1780.4360 -7386.5617 305.7349 -9166.9976 -7382.1051 300.7950 -166.3528 -179.6837 30436.8568 3.8102 3.8505
ENERGY: 1500000 4.3945 4.8591 3.1331 0.0000 -10586.2721 1376.0789 0.0000 0.0000 1729.1795 -7468.6269 296.9332 -9197.8064 -7465.7076 299.6238 -698.8560 -594.3733 30448.3508 3.6893 3.5381
ENERGY: 1700000 1.8814 2.1969 4.8779 0.0000 -10434.9826 1333.7140 0.0000 0.0000 1755.5295 -7336.7830 301.4580 -9092.3125 -7333.5713 299.9746 -545.7158 -471.3761 30433.9046 3.5323 3.4815
ENERGY: 1900000 3.0507 3.8261 1.6298 0.0000 -10692.6427 1415.9319 0.0000 0.0000 1758.3135 -7509.8907 301.9360 -9268.2042 -7508.0724 299.6188 -236.5770 -162.1795 29743.3198 3.3837 3.3352
TCL: Exiting due to exit command.
