Info: SIMULATION PARAMETERS:
Info: TIMESTEP               2
Info: NUMBER OF STEPS        0
Info: STEPS PER CYCLE        10
Info: PERIODIC CELL BASIS 1  31.2016 0 0
Info: PERIODIC CELL BASIS 2  0 30.5332 0
Info: PERIODIC CELL BASIS 3  0 0 31.837
Info: PERIODIC CELL CENTER   0 0 0
Info: WRAPPING WATERS AROUND PERIODIC BOUNDARIES ON OUTPUT.
Info: WRAPPING ALL CLUSTERS AROUND PERIODIC BOUNDARIES ON OUTPUT.
Info: FIRST LDB TIMESTEP     50
Info: LAST LDB TIMESTEP     -1
Info: HOM BACKGROUND SCALING 1
Info: PME BACKGROUND SCALING 1
Info: MIN ATOMS PER PATCH    40
Info: EMPTY PATCH LOAD       40 ATOMS
Info: VELOCITY FILE          mobley_2996632_equil.vel
Info: CENTER OF MASS MOVING INITIALLY? NO
Info: DIELECTRIC             1
Info: EXCLUDE                SCALED ONE-FOUR
Info: 1-4 ELECTROSTATICS SCALED BY 0.833333
Info: MODIFIED 1-4 VDW PARAMETERS WILL BE USED
Info: DCD FILENAME           mobley_2996632_prod.dcd
Info: DCD FREQUENCY          100000
Info: DCD FIRST STEP         100000
Info: DCD FILE WILL CONTAIN UNIT CELL DATA
Info: XST FILENAME           mobley_2996632_prod.xst
Info: XST FREQUENCY          100000
Info: NO VELOCITY DCD OUTPUT
Info: NO FORCE DCD OUTPUT
Info: OUTPUT FILENAME        mobley_2996632_prod
Info: BINARY OUTPUT FILES WILL BE USED
Info: RESTART FILENAME       mobley_2996632_prod.restart
Info: RESTART FREQUENCY      100000
Info: BINARY RESTART FILES WILL BE USED
Info: CUTOFF                 9
Info: PAIRLIST DISTANCE      11
Info: PAIRLIST SHRINK RATE   0.01
Info: PAIRLIST GROW RATE     0.01
Info: PAIRLIST TRIGGER       0.3
Info: PAIRLISTS PER CYCLE    2
Info: PAIRLISTS ENABLED
Info: MARGIN                 2
Info: HYDROGEN GROUP CUTOFF  2.5
Info: PATCH DIMENSION        15.5
Info: ENERGY OUTPUT STEPS    100000
Info: ENERGY EVALUATION STEPS    100000
Info: OUTPUT ENERGY PRECISION 4
Info: CROSSTERM ENERGY INCLUDED IN DIHEDRAL
Info: TIMING OUTPUT STEPS    1000000
Info: PRESSURE OUTPUT STEPS  100000
Info: ALCHEMICAL FEP ON
Info: FEP CURRENT LAMBDA VALUE     0
Info: FEP COMPARISON LAMBDA VALUE  0.05
Info: FEP INTRA-ALCHEMICAL NON-BONDED INTERACTIONS WILL BE RETAINED
Info: FEP INTRA-ALCHEMICAL BONDED INTERACTIONS WILL BE RETAINED
Info: FEP VDW SHIFTING COEFFICIENT 5
Info: FEP ELEC. ACTIVE FOR ANNIHILATED PARTICLES BETWEEN LAMBDA = 0 AND LAMBDA = 0.5
Info: FEP ELEC. ACTIVE FOR EXNIHILATED PARTICLES BETWEEN LAMBDA = 0.5 AND LAMBDA = 1
Info: FEP VDW ACTIVE FOR ANNIHILATED PARTICLES BETWEEN LAMBDA = 0 AND LAMBDA = 1
Info: FEP VDW ACTIVE FOR EXNIHILATED PARTICLES BETWEEN LAMBDA = 0 AND LAMBDA = 1
Info: FEP BOND ACTIVE FOR ANNIHILATED PARTICLES BETWEEN LAMBDA = 1 AND LAMBDA = 1
Info: FEP BOND ACTIVE FOR EXNIHILATED PARTICLES BETWEEN LAMBDA = 0 AND LAMBDA = 0
Info: LANGEVIN DYNAMICS ACTIVE
Info: LANGEVIN TEMPERATURE   300
Info: LANGEVIN USING BBK INTEGRATOR
Info: LANGEVIN DAMPING COEFFICIENT IS 1 INVERSE PS
Info: LANGEVIN DYNAMICS APPLIED TO HYDROGENS
Info: LANGEVIN PISTON PRESSURE CONTROL ACTIVE
Info:        TARGET PRESSURE IS 1.01325 BAR
Info:     OSCILLATION PERIOD IS 50 FS
Info:             DECAY TIME IS 25 FS
Info:     PISTON TEMPERATURE IS 300 K
Info:       PRESSURE CONTROL IS GROUP-BASED
Info:    INITIAL STRAIN RATE IS -8.53773e-06 -8.53773e-06 -8.53773e-06
Info:       CELL FLUCTUATION IS ISOTROPIC
Info: PARTICLE MESH EWALD (PME) ACTIVE
Info: PME TOLERANCE               1e-06
Info: PME EWALD COEFFICIENT       0.348832
Info: PME INTERPOLATION ORDER     4
Info: PME GRID DIMENSIONS         32 32 32
Info: PME MAXIMUM GRID SPACING    1
Info: PME CALCULATION WILL BE PERFORMED ON GPU
Info: FULL ELECTROSTATIC EVALUATION FREQUENCY      2
Info: USING VERLET I (r-RESPA) MTS SCHEME.
Info: C1 SPLITTING OF LONG RANGE ELECTROSTATICS
Info: PLACING ATOMS IN PATCHES BY HYDROGEN GROUPS
Info: RIGID BONDS TO HYDROGEN : ALL
Info:         ERROR TOLERANCE : 1e-08
Info:          MAX ITERATIONS : 100
Info: RIGID WATER USING SETTLE ALGORITHM
Info: RANDOM NUMBER SEED     1743390234
Info: USE HYDROGEN BONDS?    NO
Info: Using AMBER format force field!
Info: AMBER PARM FILE        mobley_2996632.prmtop
Info: COORDINATE PDB         mobley_2996632.pdb
Info: Exclusions will be read from PARM file!
Info: SCNB (VDW SCALING)     2
Info: USING ARITHMETIC MEAN TO COMBINE L-J SIGMA PARAMETERS
Info: BINARY COORDINATES     mobley_2996632_equil.coor
Info: SUMMARY OF PARAMETERS:
Info: 4 BONDS
Info: 2 ANGLES
Info:   2 HARMONIC
Info:   0 COSINE-BASED
Info: 0 DIHEDRAL
Info: 0 IMPROPER
Info: 0 CROSSTERM
Info: 0 VDW
Info: 15 VDW_PAIRS
Info: 0 NBTHOLE_PAIRS
Info: To read alchdata from file: mobley_2996632.pdb
Info: To read alchflag data from column: 5
Info: STRUCTURE SUMMARY:
Info: 2903 ATOMS
Info: 2902 BONDS
Info: 6 ANGLES
Info: 0 DIHEDRALS
Info: 0 IMPROPERS
Info: 0 CROSSTERMS
Info: 2908 EXCLUSIONS
Info: 2899 RIGID BONDS
Info: ALCH: 0 ATOMS TO DISAPPEAR IN FINAL STATE
Info: ALCH: 5 ATOMS TO APPEAR IN FINAL STATE
Info: 5810 DEGREES OF FREEDOM
Info: 970 HYDROGEN GROUPS
Info: 3 ATOMS IN LARGEST HYDROGEN GROUP
Info: 970 MIGRATION GROUPS
Info: 3 ATOMS IN LARGEST MIGRATION GROUP
Info: TOTAL MASS = 17522.8 amu
Info: TOTAL CHARGE = -3.72529e-08 e
Info: MASS DENSITY = 0.959363 g/cm^3
Info: ATOM DENSITY = 0.095712 atoms/A^3
Info: ADDED 0 IMPLICIT EXCLUSIONS
Info: NONBONDED TABLE R-SQUARED SPACING: 0.0625
Info: NONBONDED TABLE SIZE: 705 POINTS
Info: REMOVING COM VELOCITY -0.183265 0.249897 0.0385034
Info: Use 3D box decompostion in PME FFT.
Info: Updated CUDA force table with 4096 elements.
Info: Updated CUDA LJ table with 5 x 5 elements.
Info: Found 8 unique exclusion lists needing 8 bytes
TCL: Running for 1500000 steps
ETITLE: TS BOND ANGLE DIHED IMPRP ELECT VDW BOUNDARY MISC KINETIC TOTAL TEMP POTENTIAL TOTALAVG TEMPAVG PRESSURE GPRESSURE VOLUME PRESSAVG GPRESSAVG
ENERGY: 0 1.7167 2.6275 0.0000 0.0000 -10489.9817 1402.9607 0.0000 0.0000 1750.9941 -7331.6827 303.3185 -9082.6768 -7331.6827 303.3185 -296.5413 -217.8055 30330.5625 -296.5413 -217.8055
ENERGY: 300000 0.6292 1.5133 0.0000 0.0000 -10508.9903 1377.1686 0.0000 0.0000 1799.2679 -7330.4113 311.6808 -9129.6792 -7338.4891 304.2199 72.9887 66.9670 29243.2978 -363.5110 -310.2937
ENERGY: 600000 2.3326 0.4585 0.0000 0.0000 -10654.5184 1514.8952 0.0000 0.0000 1710.3483 -7426.4838 296.2776 -9136.8322 -7378.0719 300.8277 428.6785 504.1131 29987.5632 -332.1477 -269.7115
ENERGY: 900000 0.6387 1.1599 0.0000 0.0000 -10512.9195 1417.3060 0.0000 0.0000 1740.3393 -7353.4756 301.4728 -9093.8149 -7386.4377 300.1926 -78.2010 34.8750 30087.1581 -243.0816 -172.7356
ENERGY: 1200000 1.6121 4.4857 0.0000 0.0000 -10498.0754 1360.0761 0.0000 0.0000 1779.1061 -7352.7955 308.1883 -9131.9016 -7377.3671 301.5659 -764.5923 -731.5381 30558.4962 -297.9346 -227.1176
ENERGY: 1500000 0.3772 0.5728 0.0000 0.0000 -10591.6393 1477.0129 0.0000 0.0000 1767.8536 -7345.8229 306.2390 -9113.6765 -7373.8532 301.9405 547.8829 620.4695 29711.9632 -214.3497 -142.5336
TCL: Running FEP window   2: Lambda1 0.05   Lambda2 0.1    [dLambda 0.05  ]
TCL: Setting parameter firsttimestep to 0
TCL: Setting parameter alchLambda to 0.05
Info: NONBONDED TABLE R-SQUARED SPACING: 0.0625
Info: NONBONDED TABLE SIZE: 705 POINTS
TCL: Setting parameter alchLambda2 to 0.1
Info: NONBONDED TABLE R-SQUARED SPACING: 0.0625
Info: NONBONDED TABLE SIZE: 705 POINTS
TCL: Running for 1500000 steps
ETITLE: TS BOND ANGLE DIHED IMPRP ELECT VDW BOUNDARY MISC KINETIC TOTAL TEMP POTENTIAL TOTALAVG TEMPAVG PRESSURE GPRESSURE VOLUME PRESSAVG GPRESSAVG
ENERGY: 0 0.3772 0.5728 0.0000 0.0000 -10591.6388 1478.6380 0.0000 0.0000 1766.9753 -7345.0755 306.0869 -9112.0508 -7345.0755 306.0869 549.3364 625.0364 29711.9632 549.3364 625.0364
ENERGY: 300000 0.4959 1.8220 0.0000 0.0000 -10538.3458 1341.9162 0.0000 0.0000 1713.3245 -7480.7872 296.7931 -9194.1117 -7448.6440 298.2837 -649.3060 -602.5614 29534.1284 -7.1795 28.5852
ENERGY: 600000 0.9765 2.0957 0.0000 0.0000 -10586.3091 1483.7559 0.0000 0.0000 1695.8621 -7403.6189 293.7682 -9099.4810 -7431.3796 297.5826 535.3882 593.9574 29860.0138 75.5853 116.1144
ENERGY: 900000 0.3987 2.0344 0.0000 0.0000 -10534.7067 1421.3732 0.0000 0.0000 1717.5236 -7393.3768 297.5206 -9110.9004 -7408.8119 299.1353 33.5889 91.2809 29782.0624 -42.2989 3.7807
ENERGY: 1200000 0.4341 1.7631 0.0000 0.0000 -10497.1510 1372.9135 0.0000 0.0000 1712.9128 -7409.1276 296.7218 -9122.0404 -7394.6643 298.8332 -495.8488 -404.1524 30014.5423 -99.7421 -51.0962
ENERGY: 1500000 0.7158 1.8178 0.0000 0.0000 -10711.0503 1531.4167 0.0000 0.0000 1705.8637 -7471.2363 295.5007 -9177.1000 -7392.1407 299.1868 804.4272 853.8428 29594.0937 -69.2542 -17.5994
TCL: Running FEP window   3: Lambda1 0.1    Lambda2 0.15000000000000002 [dLambda 0.05000000000000002]
TCL: Setting parameter firsttimestep to 0
TCL: Setting parameter alchLambda to 0.1
Info: NONBONDED TABLE R-SQUARED SPACING: 0.0625
Info: NONBONDED TABLE SIZE: 705 POINTS
TCL: Setting parameter alchLambda2 to 0.15000000000000002
Info: NONBONDED TABLE R-SQUARED SPACING: 0.0625
Info: NONBONDED TABLE SIZE: 705 POINTS
TCL: Running for 1500000 steps
ETITLE: TS BOND ANGLE DIHED IMPRP ELECT VDW BOUNDARY MISC KINETIC TOTAL TEMP POTENTIAL TOTALAVG TEMPAVG PRESSURE GPRESSURE VOLUME PRESSAVG GPRESSAVG
ENERGY: 0 0.7158 1.8178 0.0000 0.0000 -10711.0505 1532.6841 0.0000 0.0000 1705.0289 -7470.8038 295.3561 -9175.8327 -7470.8038 295.3561 782.4725 859.6851 29594.0937 782.4725 859.6851
ENERGY: 300000 0.0164 1.3501 0.0000 0.0000 -10420.6057 1378.2035 0.0000 0.0000 1693.2501 -7347.7857 293.3157 -9041.0358 -7380.7787 299.1764 -332.2311 -309.5123 30399.4543 371.0599 436.6177
ENERGY: 600000 1.4702 1.9337 0.0000 0.0000 -10515.8906 1384.3647 0.0000 0.0000 1730.6460 -7397.4761 299.7937 -9128.1221 -7400.1112 298.9539 31.2170 49.1268 29259.3448 166.5259 224.8058
ENERGY: 900000 2.0287 1.1134 0.0000 0.0000 -10589.0439 1463.4455 0.0000 0.0000 1748.2515 -7374.2048 302.8434 -9122.4563 -7415.6900 298.4819 502.7508 518.7427 29457.2842 141.1925 201.9213
ENERGY: 1200000 0.4024 3.6708 0.0000 0.0000 -10630.0802 1472.5834 0.0000 0.0000 1738.7643 -7414.6594 301.2000 -9153.4237 -7409.5034 299.4216 32.2425 88.3968 30329.5081 128.0770 194.4321
ENERGY: 1500000 0.4095 1.5724 0.0000 0.0000 -10513.5088 1415.8138 0.0000 0.0000 1763.5335 -7332.1797 305.4907 -9095.7132 -7401.2781 299.2942 -148.2912 -94.6489 30321.2012 87.5715 152.1707
TCL: Running FEP window   4: Lambda1 0.15000000000000002 Lambda2 0.2    [dLambda 0.04999999999999999]
TCL: Setting parameter firsttimestep to 0
TCL: Setting parameter alchLambda to 0.15000000000000002
Info: NONBONDED TABLE R-SQUARED SPACING: 0.0625
Info: NONBONDED TABLE SIZE: 705 POINTS
TCL: Setting parameter alchLambda2 to 0.2
Info: NONBONDED TABLE R-SQUARED SPACING: 0.0625
Info: NONBONDED TABLE SIZE: 705 POINTS
TCL: Running for 1500000 steps
ETITLE: TS BOND ANGLE DIHED IMPRP ELECT VDW BOUNDARY MISC KINETIC TOTAL TEMP POTENTIAL TOTALAVG TEMPAVG PRESSURE GPRESSURE VOLUME PRESSAVG GPRESSAVG
ENERGY: 0 0.4095 1.5724 0.0000 0.0000 -10513.5097 1416.4562 0.0000 0.0000 1762.6528 -7332.4189 305.3381 -9095.0717 -7332.4189 305.3381 -175.6621 -91.9971 30321.2012 -175.6621 -91.9971
ENERGY: 300000 0.6690 1.3397 0.0000 0.0000 -10531.3510 1420.5032 0.0000 0.0000 1696.8509 -7411.9882 293.9395 -9108.8390 -7353.1198 301.9361 -15.1825 47.0906 29621.1189 221.1364 280.1749
ENERGY: 600000 1.2286 1.2302 0.0000 0.0000 -10490.5245 1413.8198 0.0000 0.0000 1732.2095 -7342.0363 300.0645 -9074.2459 -7362.6879 300.6863 72.7691 152.2607 29764.6688 3.6159 65.3451
ENERGY: 900000 0.1644 1.6398 0.0000 0.0000 -10720.9126 1476.9910 0.0000 0.0000 1687.7247 -7554.3926 292.3586 -9242.1174 -7384.9516 300.4431 196.7992 199.8673 29744.4805 84.1516 138.9016
ENERGY: 1200000 0.5424 0.8916 0.0000 0.0000 -10408.4995 1318.3401 0.0000 0.0000 1738.7687 -7349.9567 301.2008 -9088.7254 -7387.6628 300.8708 -698.5921 -609.2373 30040.9445 42.0156 101.5813
ENERGY: 1500000 1.6251 0.4103 0.0000 0.0000 -10375.9045 1296.2212 0.0000 0.0000 1693.3176 -7384.3303 293.3274 -9077.6479 -7392.6427 300.2662 -972.6630 -905.5591 30011.5026 -30.6983 31.8328
TCL: Running FEP window   5: Lambda1 0.2    Lambda2 0.25   [dLambda 0.04999999999999999]
TCL: Setting parameter firsttimestep to 0
TCL: Setting parameter alchLambda to 0.2
Info: NONBONDED TABLE R-SQUARED SPACING: 0.0625
Info: NONBONDED TABLE SIZE: 705 POINTS
TCL: Setting parameter alchLambda2 to 0.25
Info: NONBONDED TABLE R-SQUARED SPACING: 0.0625
Info: NONBONDED TABLE SIZE: 705 POINTS
TCL: Running for 1500000 steps
ETITLE: TS BOND ANGLE DIHED IMPRP ELECT VDW BOUNDARY MISC KINETIC TOTAL TEMP POTENTIAL TOTALAVG TEMPAVG PRESSURE GPRESSURE VOLUME PRESSAVG GPRESSAVG
ENERGY: 0 1.6251 0.4103 0.0000 0.0000 -10375.9040 1297.3463 0.0000 0.0000 1692.4474 -7384.0749 293.1767 -9076.5223 -7384.0749 293.1767 -973.1106 -894.8916 30011.5026 -973.1106 -894.8916
ENERGY: 300000 0.3632 0.8133 0.0000 0.0000 -10664.5178 1467.7961 0.0000 0.0000 1753.4890 -7442.0561 303.7507 -9195.5451 -7384.5068 300.0686 -91.0680 28.4119 30067.5918 -136.6481 -44.1693
ENERGY: 600000 0.4429 1.7539 0.0000 0.0000 -10462.6603 1353.5204 0.0000 0.0000 1712.1079 -7394.8352 296.5824 -9106.9431 -7388.1939 301.3140 -626.3728 -542.6018 29981.4033 -254.0527 -151.4452
ENERGY: 900000 0.2376 0.4409 0.0000 0.0000 -10592.6719 1441.7700 0.0000 0.0000 1746.9002 -7403.3233 302.6094 -9150.2235 -7383.0655 301.9432 -30.1153 14.3810 29844.9240 -230.7089 -147.1353
ENERGY: 1200000 1.0330 3.6583 0.0000 0.0000 -10562.2291 1344.2483 0.0000 0.0000 1714.9758 -7498.3137 297.0792 -9213.2895 -7395.0117 301.2275 -857.6068 -766.5051 29866.5997 -211.8097 -129.3677
ENERGY: 1500000 1.3498 0.2701 0.0000 0.0000 -10534.8846 1405.5231 0.0000 0.0000 1716.2352 -7411.5064 297.2974 -9127.7416 -7401.4087 300.9207 -134.1224 -62.1317 29761.0290 -185.9301 -109.0180
TCL: Running FEP window   6: Lambda1 0.25   Lambda2 0.3    [dLambda 0.04999999999999999]
TCL: Setting parameter firsttimestep to 0
TCL: Setting parameter alchLambda to 0.25
Info: NONBONDED TABLE R-SQUARED SPACING: 0.0625
Info: NONBONDED TABLE SIZE: 705 POINTS
TCL: Setting parameter alchLambda2 to 0.3
Info: NONBONDED TABLE R-SQUARED SPACING: 0.0625
Info: NONBONDED TABLE SIZE: 705 POINTS
TCL: Running for 1500000 steps
ETITLE: TS BOND ANGLE DIHED IMPRP ELECT VDW BOUNDARY MISC KINETIC TOTAL TEMP POTENTIAL TOTALAVG TEMPAVG PRESSURE GPRESSURE VOLUME PRESSAVG GPRESSAVG
ENERGY: 0 1.3498 0.2701 0.0000 0.0000 -10534.8852 1405.7080 0.0000 0.0000 1715.3649 -7412.1924 297.1466 -9127.5573 -7412.1924 297.1466 -136.6161 -56.2958 29761.0290 -136.6161 -56.2958
ENERGY: 300000 0.8893 2.6661 0.0000 0.0000 -10573.2095 1466.3193 0.0000 0.0000 1696.6454 -7406.6894 293.9039 -9103.3348 -7433.1245 296.6536 386.1091 448.9817 29762.4329 448.1809 527.9886
ENERGY: 600000 1.8114 1.0248 0.0000 0.0000 -10658.7816 1500.5849 0.0000 0.0000 1758.0004 -7397.3600 304.5322 -9155.3604 -7436.7723 296.0802 799.3641 807.9847 29610.4924 360.7688 420.1439
ENERGY: 900000 0.5002 0.9046 0.0000 0.0000 -10422.1439 1351.0924 0.0000 0.0000 1745.9674 -7323.6793 302.4478 -9069.6467 -7422.5725 296.8902 -302.8279 -284.5609 30112.3210 76.5415 130.0756
ENERGY: 1200000 0.3094 1.0698 0.0000 0.0000 -10447.6429 1308.6745 0.0000 0.0000 1700.7203 -7436.8689 294.6098 -9137.5892 -7414.0186 297.6296 -879.9416 -760.2731 29836.2236 26.8296 81.3001
ENERGY: 1500000 0.2863 1.1372 0.0000 0.0000 -10564.8934 1435.3195 0.0000 0.0000 1747.2012 -7380.9492 302.6615 -9128.1504 -7400.6916 299.0193 -41.5217 -22.7868 30256.7260 -91.8925 -37.0881
TCL: Running FEP window   7: Lambda1 0.3    Lambda2 0.35   [dLambda 0.04999999999999999]
TCL: Setting parameter firsttimestep to 0
TCL: Setting parameter alchLambda to 0.3
Info: NONBONDED TABLE R-SQUARED SPACING: 0.0625
Info: NONBONDED TABLE SIZE: 705 POINTS
TCL: Setting parameter alchLambda2 to 0.35
Info: NONBONDED TABLE R-SQUARED SPACING: 0.0625
Info: NONBONDED TABLE SIZE: 705 POINTS
TCL: Running for 1500000 steps
ETITLE: TS BOND ANGLE DIHED IMPRP ELECT VDW BOUNDARY MISC KINETIC TOTAL TEMP POTENTIAL TOTALAVG TEMPAVG PRESSURE GPRESSURE VOLUME PRESSAVG GPRESSAVG
ENERGY: 0 0.2863 1.1372 0.0000 0.0000 -10564.8934 1435.3910 0.0000 0.0000 1746.3648 -7381.7141 302.5166 -9128.0789 -7381.7141 302.5166 -105.2576 -19.9155 30256.7260 -105.2576 -19.9155
ENERGY: 300000 0.5942 1.6415 0.0000 0.0000 -10543.3678 1420.6191 0.0000 0.0000 1722.6107 -7397.9023 298.4018 -9120.5130 -7375.2885 298.5689 34.1624 38.2571 29942.8504 -49.5230 12.2966
ENERGY: 600000 1.1146 1.7153 0.0000 0.0000 -10586.4809 1415.4303 0.0000 0.0000 1744.5090 -7423.7117 302.1951 -9168.2207 -7394.7903 299.9964 -201.6172 -142.4121 30106.7976 -57.1134 -19.5098
ENERGY: 900000 1.2285 2.8127 0.0000 0.0000 -10554.3114 1469.8106 0.0000 0.0000 1768.9215 -7311.5381 306.4240 -9080.4596 -7391.9747 299.4447 478.3462 439.4444 30088.0624 88.7122 115.4905
ENERGY: 1200000 1.0015 2.4677 0.0000 0.0000 -10632.0241 1403.5952 0.0000 0.0000 1741.4694 -7483.4904 301.6686 -9224.9597 -7399.9818 300.0735 -453.9519 -484.0628 30031.2265 35.7628 62.4558
ENERGY: 1500000 0.7650 2.4924 0.0000 0.0000 -10562.5404 1409.9067 0.0000 0.0000 1689.5487 -7459.8276 292.6746 -9149.3763 -7407.7065 299.4627 12.2944 -7.0458 29672.4952 117.7982 143.6585
TCL: Running FEP window   8: Lambda1 0.35   Lambda2 0.39999999999999997 [dLambda 0.04999999999999999]
TCL: Setting parameter firsttimestep to 0
TCL: Setting parameter alchLambda to 0.35
Info: NONBONDED TABLE R-SQUARED SPACING: 0.0625
Info: NONBONDED TABLE SIZE: 705 POINTS
TCL: Setting parameter alchLambda2 to 0.39999999999999997
Info: NONBONDED TABLE R-SQUARED SPACING: 0.0625
Info: NONBONDED TABLE SIZE: 705 POINTS
TCL: Running for 1500000 steps
ETITLE: TS BOND ANGLE DIHED IMPRP ELECT VDW BOUNDARY MISC KINETIC TOTAL TEMP POTENTIAL TOTALAVG TEMPAVG PRESSURE GPRESSURE VOLUME PRESSAVG GPRESSAVG
ENERGY: 0 0.7650 2.4924 0.0000 0.0000 -10562.5405 1410.4275 0.0000 0.0000 1688.6740 -7460.1817 292.5230 -9148.8557 -7460.1817 292.5230 -71.3038 0.0726 29672.4952 -71.3038 0.0726
ENERGY: 300000 0.7055 1.1717 0.0000 0.0000 -10395.8790 1369.0152 0.0000 0.0000 1748.3341 -7276.6525 302.8577 -9024.9866 -7403.0000 295.6973 -645.0527 -556.3673 31072.7601 -146.3575 -65.3959
ENERGY: 600000 0.3411 1.7830 0.0000 0.0000 -10608.1658 1389.5229 0.0000 0.0000 1725.1073 -7491.4115 298.8342 -9216.5188 -7413.3890 297.8516 -405.3276 -342.3113 29645.8918 -230.1122 -154.7929
ENERGY: 900000 0.3139 1.1507 0.0000 0.0000 -10575.8750 1451.5078 0.0000 0.0000 1747.7205 -7375.1821 302.7514 -9122.9026 -7409.3389 297.8485 -104.9092 -2.7099 30408.2579 -206.2278 -129.0938
ENERGY: 1200000 0.6348 1.6778 0.0000 0.0000 -10435.4411 1382.5163 0.0000 0.0000 1728.7986 -7321.8136 299.4737 -9050.6122 -7401.0466 298.6387 -165.3545 -49.3000 29883.3705 -220.0847 -148.6506
ENERGY: 1500000 0.0290 0.5915 0.0000 0.0000 -10542.0236 1404.3179 0.0000 0.0000 1715.1039 -7421.9814 297.1014 -9137.0853 -7411.3691 297.9511 -225.3403 -198.2251 30024.9946 -163.4499 -98.0362
TCL: Running FEP window   9: Lambda1 0.39999999999999997 Lambda2 0.44999999999999996 [dLambda 0.04999999999999999]
TCL: Setting parameter firsttimestep to 0
TCL: Setting parameter alchLambda to 0.39999999999999997
Info: NONBONDED TABLE R-SQUARED SPACING: 0.0625
Info: NONBONDED TABLE SIZE: 705 POINTS
TCL: Setting parameter alchLambda2 to 0.44999999999999996
Info: NONBONDED TABLE R-SQUARED SPACING: 0.0625
Info: NONBONDED TABLE SIZE: 705 POINTS
TCL: Running for 1500000 steps
ETITLE: TS BOND ANGLE DIHED IMPRP ELECT VDW BOUNDARY MISC KINETIC TOTAL TEMP POTENTIAL TOTALAVG TEMPAVG PRESSURE GPRESSURE VOLUME PRESSAVG GPRESSAVG
ENERGY: 0 0.0290 0.5915 0.0000 0.0000 -10542.0233 1404.6073 0.0000 0.0000 1714.2208 -7422.5747 296.9484 -9136.7955 -7422.5747 296.9484 -273.3092 -190.8651 30024.9946 -273.3092 -190.8651
ENERGY: 300000 1.7672 2.5833 0.0000 0.0000 -10697.3385 1505.4499 0.0000 0.0000 1757.7809 -7429.7572 304.4942 -9187.5381 -7382.7446 303.4390 802.7426 1012.6658 29202.4893 30.6279 111.3442
ENERGY: 600000 0.8171 2.2886 0.0000 0.0000 -10478.9084 1392.2101 0.0000 0.0000 1668.5852 -7415.0073 289.0431 -9083.5926 -7385.2102 300.0091 130.4404 173.8200 29423.1567 48.6786 121.0422
ENERGY: 900000 0.6951 0.6373 0.0000 0.0000 -10641.4172 1463.5579 0.0000 0.0000 1818.7514 -7357.7755 315.0559 -9176.5269 -7374.6042 301.6505 221.7798 279.8283 29908.1065 -47.5424 17.6287
ENERGY: 1200000 1.8060 1.2948 0.0000 0.0000 -10524.4469 1380.8847 0.0000 0.0000 1715.7309 -7424.7306 297.2100 -9140.4615 -7380.9486 301.2252 -316.3690 -207.2372 29875.8460 36.9051 95.4711
ENERGY: 1500000 1.0903 0.9065 0.0000 0.0000 -10629.6302 1455.0323 0.0000 0.0000 1696.8935 -7475.7075 293.9469 -9172.6010 -7382.6244 301.1111 73.5427 80.0969 29924.7343 95.1387 146.0159
TCL: Running FEP window  10: Lambda1 0.44999999999999996 Lambda2 0.49999999999999994 [dLambda 0.04999999999999999]
TCL: Setting parameter firsttimestep to 0
TCL: Setting parameter alchLambda to 0.44999999999999996
Info: NONBONDED TABLE R-SQUARED SPACING: 0.0625
Info: NONBONDED TABLE SIZE: 705 POINTS
TCL: Setting parameter alchLambda2 to 0.49999999999999994
Info: NONBONDED TABLE R-SQUARED SPACING: 0.0625
Info: NONBONDED TABLE SIZE: 705 POINTS
TCL: Running for 1500000 steps
ETITLE: TS BOND ANGLE DIHED IMPRP ELECT VDW BOUNDARY MISC KINETIC TOTAL TEMP POTENTIAL TOTALAVG TEMPAVG PRESSURE GPRESSURE VOLUME PRESSAVG GPRESSAVG
ENERGY: 0 1.0903 0.9065 0.0000 0.0000 -10629.6301 1454.7118 0.0000 0.0000 1696.0764 -7476.8451 293.8053 -9172.9214 -7476.8451 293.8053 28.0683 83.1769 29924.7343 28.0683 83.1769
ENERGY: 300000 1.1386 1.4530 0.0000 0.0000 -10461.6201 1260.6228 0.0000 0.0000 1760.7962 -7437.6095 305.0165 -9198.4057 -7409.5559 299.7586 -1606.1568 -1506.1265 30014.3829 -436.2779 -371.1900
ENERGY: 600000 1.8844 0.9743 0.0000 0.0000 -10514.7087 1390.8909 0.0000 0.0000 1755.0656 -7365.8934 304.0238 -9120.9590 -7385.1172 300.7788 -524.0731 -450.5654 30396.6891 -226.5522 -168.6833
ENERGY: 900000 0.8948 1.1347 0.0000 0.0000 -10571.1510 1434.9193 0.0000 0.0000 1710.9965 -7423.2058 296.3899 -9134.2023 -7379.5824 300.0494 -92.7584 16.2665 29834.0749 -215.0246 -161.3578
ENERGY: 1200000 1.7109 1.0024 0.0000 0.0000 -10629.4438 1478.7604 0.0000 0.0000 1746.0752 -7401.8949 302.4664 -9147.9701 -7372.9605 301.1580 795.2449 831.5483 29384.8210 -126.7659 -74.2395
ENERGY: 1500000 2.0390 2.1078 0.0000 0.0000 -10464.2649 1389.9179 0.0000 0.0000 1691.2399 -7378.9604 292.9675 -9070.2003 -7384.4813 299.9664 -433.7679 -365.7174 30428.8995 -120.1309 -71.4389
TCL: Running FEP window  11: Lambda1 0.49999999999999994 Lambda2 0.5499999999999999 [dLambda 0.04999999999999999]
TCL: Setting parameter firsttimestep to 0
TCL: Setting parameter alchLambda to 0.49999999999999994
Info: NONBONDED TABLE R-SQUARED SPACING: 0.0625
Info: NONBONDED TABLE SIZE: 705 POINTS
TCL: Setting parameter alchLambda2 to 0.5499999999999999
Info: NONBONDED TABLE R-SQUARED SPACING: 0.0625
Info: NONBONDED TABLE SIZE: 705 POINTS
TCL: Running for 1500000 steps
ETITLE: TS BOND ANGLE DIHED IMPRP ELECT VDW BOUNDARY MISC KINETIC TOTAL TEMP POTENTIAL TOTALAVG TEMPAVG PRESSURE GPRESSURE VOLUME PRESSAVG GPRESSAVG
ENERGY: 0 2.0390 2.1078 0.0000 0.0000 -10464.2666 1390.1682 0.0000 0.0000 1690.3964 -7379.5553 292.8214 -9069.9517 -7379.5553 292.8214 -444.2842 -364.0005 30428.8995 -444.2842 -364.0005
ENERGY: 300000 1.7188 0.5441 0.0000 0.0000 -10623.1335 1434.2599 0.0000 0.0000 1721.5609 -7465.0498 298.2199 -9186.6108 -7393.8407 299.7825 -49.7793 -20.2732 29951.3142 -23.0679 44.3863
ENERGY: 600000 2.8130 2.7340 0.0000 0.0000 -10774.9646 1546.6620 0.0000 0.0000 1697.2635 -7525.4922 294.0110 -9222.7557 -7415.3701 298.4426 965.1194 981.2978 29784.1404 44.4587 108.1494
ENERGY: 900000 1.6834 2.4840 0.0000 0.0000 -10621.4476 1440.2563 0.0000 0.0000 1701.4715 -7475.5524 294.7399 -9177.0239 -7417.9214 298.8435 13.7604 126.8232 29918.0606 1.1799 74.0686
ENERGY: 1200000 0.1928 0.8509 0.0000 0.0000 -10373.3651 1345.2688 0.0000 0.0000 1754.2853 -7272.7673 303.8886 -9027.0526 -7406.6982 299.4792 -390.6032 -336.1834 30297.6471 31.0629 99.0571
ENERGY: 1500000 1.7727 1.3260 0.0000 0.0000 -10599.2015 1444.8989 0.0000 0.0000 1696.1012 -7455.1027 293.8096 -9151.2038 -7400.8987 300.0817 488.0588 567.8567 28990.9716 33.1721 101.1926
TCL: Running FEP window  12: Lambda1 0.5499999999999999 Lambda2 0.6    [dLambda 0.050000000000000044]
TCL: Setting parameter firsttimestep to 0
TCL: Setting parameter alchLambda to 0.5499999999999999
Info: NONBONDED TABLE R-SQUARED SPACING: 0.0625
Info: NONBONDED TABLE SIZE: 705 POINTS
TCL: Setting parameter alchLambda2 to 0.6
Info: NONBONDED TABLE R-SQUARED SPACING: 0.0625
Info: NONBONDED TABLE SIZE: 705 POINTS
TCL: Running for 1500000 steps
ETITLE: TS BOND ANGLE DIHED IMPRP ELECT VDW BOUNDARY MISC KINETIC TOTAL TEMP POTENTIAL TOTALAVG TEMPAVG PRESSURE GPRESSURE VOLUME PRESSAVG GPRESSAVG
ENERGY: 0 1.7727 1.3260 0.0000 0.0000 -10599.4098 1444.8735 0.0000 0.0000 1695.2340 -7456.2036 293.6594 -9151.4375 -7456.2036 293.6594 480.8144 574.4173 28990.9716 480.8144 574.4173
ENERGY: 300000 1.5597 3.0253 0.0000 0.0000 -10601.7945 1503.7180 0.0000 0.0000 1739.0306 -7354.4610 301.2461 -9093.4916 -7441.7317 297.1032 757.1882 814.1178 29960.7040 198.5992 264.3165
ENERGY: 600000 0.2647 0.6027 0.0000 0.0000 -10492.2127 1364.5540 0.0000 0.0000 1759.3685 -7367.4228 304.7692 -9126.7913 -7427.3692 299.1466 -385.9190 -446.6351 30212.9851 -42.2034 7.2932
ENERGY: 900000 0.5585 0.8247 0.0000 0.0000 -10551.5161 1425.6104 0.0000 0.0000 1746.1301 -7378.3925 302.4759 -9124.5225 -7421.9027 301.3200 86.8116 209.8148 29743.7004 -25.4955 42.3323
ENERGY: 1200000 0.1430 2.8377 0.0000 0.0000 -10470.4751 1323.7001 0.0000 0.0000 1747.1129 -7396.6813 302.6462 -9143.7942 -7412.6706 301.9366 -842.4603 -775.7636 30046.0857 -70.8534 5.7284
ENERGY: 1500000 0.8094 2.7810 0.0000 0.0000 -10631.2579 1410.6647 0.0000 0.0000 1708.9476 -7508.0551 296.0350 -9217.0028 -7408.2053 301.5305 -553.1966 -494.6911 30338.8013 -38.6900 33.4004
TCL: Running FEP window  13: Lambda1 0.6    Lambda2 0.65   [dLambda 0.050000000000000044]
TCL: Setting parameter firsttimestep to 0
TCL: Setting parameter alchLambda to 0.6
Info: NONBONDED TABLE R-SQUARED SPACING: 0.0625
Info: NONBONDED TABLE SIZE: 705 POINTS
TCL: Setting parameter alchLambda2 to 0.65
Info: NONBONDED TABLE R-SQUARED SPACING: 0.0625
Info: NONBONDED TABLE SIZE: 705 POINTS
TCL: Running for 1500000 steps
ETITLE: TS BOND ANGLE DIHED IMPRP ELECT VDW BOUNDARY MISC KINETIC TOTAL TEMP POTENTIAL TOTALAVG TEMPAVG PRESSURE GPRESSURE VOLUME PRESSAVG GPRESSAVG
ENERGY: 0 0.8094 2.7810 0.0000 0.0000 -10631.2592 1410.2370 0.0000 0.0000 1708.1326 -7509.2992 295.8938 -9217.4317 -7509.2992 295.8938 -564.7023 -492.6093 30338.8013 -564.7023 -492.6093
ENERGY: 300000 0.4278 1.5225 0.0000 0.0000 -10441.8843 1316.4879 0.0000 0.0000 1791.8261 -7331.6200 310.3917 -9123.4461 -7403.9351 302.0007 -777.5906 -651.8888 29936.5273 -284.4532 -210.5517
ENERGY: 600000 0.7422 0.7685 0.0000 0.0000 -10657.3995 1448.1634 0.0000 0.0000 1680.0751 -7527.6504 291.0335 -9207.7255 -7439.5464 300.0723 140.2616 101.5246 30005.6569 -147.4801 -85.4649
ENERGY: 900000 0.0713 1.9593 0.0000 0.0000 -10475.8630 1391.2042 0.0000 0.0000 1688.1390 -7394.4892 292.4304 -9082.6282 -7422.0609 299.4383 -239.6264 -215.3625 30197.7525 -189.4135 -139.9845
ENERGY: 1200000 0.1850 0.7402 0.0000 0.0000 -10479.3367 1348.8821 0.0000 0.0000 1744.2510 -7385.2784 302.1504 -9129.5295 -7416.5638 299.1412 -729.9829 -654.3987 30220.3714 -158.2489 -108.7483
ENERGY: 1500000 0.6517 0.5777 0.0000 0.0000 -10425.8916 1398.6744 0.0000 0.0000 1704.3219 -7321.6659 295.2337 -9025.9877 -7399.2482 299.7939 73.9679 110.8395 29970.0244 -109.2801 -57.9183
TCL: Running FEP window  14: Lambda1 0.65   Lambda2 0.7000000000000001 [dLambda 0.050000000000000044]
TCL: Setting parameter firsttimestep to 0
TCL: Setting parameter alchLambda to 0.65
Info: NONBONDED TABLE R-SQUARED SPACING: 0.0625
Info: NONBONDED TABLE SIZE: 705 POINTS
TCL: Setting parameter alchLambda2 to 0.7000000000000001
Info: NONBONDED TABLE R-SQUARED SPACING: 0.0625
Info: NONBONDED TABLE SIZE: 705 POINTS
TCL: Running for 1500000 steps
ETITLE: TS BOND ANGLE DIHED IMPRP ELECT VDW BOUNDARY MISC KINETIC TOTAL TEMP POTENTIAL TOTALAVG TEMPAVG PRESSURE GPRESSURE VOLUME PRESSAVG GPRESSAVG
ENERGY: 0 0.6517 0.5777 0.0000 0.0000 -10425.9466 1399.0515 0.0000 0.0000 1703.4547 -7322.2111 295.0834 -9025.6657 -7322.2111 295.0834 57.0291 120.7896 29970.0244 57.0291 120.7896
ENERGY: 300000 0.6387 4.5800 0.0000 0.0000 -10396.1619 1329.4140 0.0000 0.0000 1737.1465 -7324.3828 300.9198 -9061.5293 -7351.5264 298.7510 -437.7074 -317.6089 29850.8721 -193.4164 -110.6390
ENERGY: 600000 1.3022 1.6305 0.0000 0.0000 -10432.2317 1341.7106 0.0000 0.0000 1772.5375 -7315.0509 307.0504 -9087.5884 -7333.6638 300.2442 -526.6343 -532.8854 30201.6684 -297.4317 -228.8753
ENERGY: 900000 1.9567 1.3014 0.0000 0.0000 -10535.7164 1364.5071 0.0000 0.0000 1766.8759 -7401.0754 306.0697 -9167.9513 -7350.2526 300.2357 -583.8634 -534.1937 30307.5997 -284.0560 -220.6413
ENERGY: 1200000 0.7817 0.8262 0.0000 0.0000 -10514.5468 1408.6269 0.0000 0.0000 1739.5718 -7364.7402 301.3399 -9104.3120 -7354.3525 300.5409 -448.3999 -389.9004 30467.1069 -303.6620 -233.9528
ENERGY: 1500000 2.7099 1.6071 0.0000 0.0000 -10449.7604 1334.7755 0.0000 0.0000 1703.3362 -7407.3317 295.0629 -9110.6679 -7358.7576 300.7391 -700.8796 -668.9448 30010.4835 -335.3426 -267.8145
TCL: Running FEP window  15: Lambda1 0.7000000000000001 Lambda2 0.7500000000000001 [dLambda 0.050000000000000044]
TCL: Setting parameter firsttimestep to 0
TCL: Setting parameter alchLambda to 0.7000000000000001
Info: NONBONDED TABLE R-SQUARED SPACING: 0.0625
Info: NONBONDED TABLE SIZE: 705 POINTS
TCL: Setting parameter alchLambda2 to 0.7500000000000001
Info: NONBONDED TABLE R-SQUARED SPACING: 0.0625
Info: NONBONDED TABLE SIZE: 705 POINTS
TCL: Running for 1500000 steps
ETITLE: TS BOND ANGLE DIHED IMPRP ELECT VDW BOUNDARY MISC KINETIC TOTAL TEMP POTENTIAL TOTALAVG TEMPAVG PRESSURE GPRESSURE VOLUME PRESSAVG GPRESSAVG
ENERGY: 0 2.7099 1.6071 0.0000 0.0000 -10449.6710 1334.8986 0.0000 0.0000 1702.4688 -7407.9866 294.9127 -9110.4554 -7407.9866 294.9127 -749.6976 -659.3970 30010.4835 -749.6976 -659.3970
ENERGY: 300000 0.2731 1.6094 0.0000 0.0000 -10698.2616 1510.2933 0.0000 0.0000 1751.7689 -7434.3168 303.4527 -9186.0858 -7436.3808 297.6918 645.6242 646.9578 29915.1862 -96.4950 -44.0430
ENERGY: 600000 1.4798 2.2835 0.0000 0.0000 -10676.7058 1495.5647 0.0000 0.0000 1726.4598 -7450.9181 299.0685 -9177.3779 -7415.9269 297.4114 212.7733 255.9935 29878.2396 107.8788 158.9178
ENERGY: 900000 1.3514 1.0393 0.0000 0.0000 -10621.3145 1419.1983 0.0000 0.0000 1695.0275 -7504.6979 293.6236 -9199.7255 -7413.9088 297.9417 -177.1688 -91.0697 29895.2677 123.3704 180.6626
ENERGY: 1200000 0.6665 3.1192 0.0000 0.0000 -10545.5725 1429.0411 0.0000 0.0000 1776.5754 -7336.1701 307.7499 -9112.7456 -7395.6902 299.5085 103.7483 173.6324 30067.6335 15.5347 77.6347
ENERGY: 1500000 0.1056 0.4283 0.0000 0.0000 -10550.1503 1394.5718 0.0000 0.0000 1761.2916 -7393.7530 305.1023 -9155.0445 -7388.3212 300.3412 -106.2916 -81.7326 29850.6280 -59.2139 1.8297
TCL: Running FEP window  16: Lambda1 0.7500000000000001 Lambda2 0.8000000000000002 [dLambda 0.050000000000000044]
TCL: Setting parameter firsttimestep to 0
TCL: Setting parameter alchLambda to 0.7500000000000001
Info: NONBONDED TABLE R-SQUARED SPACING: 0.0625
Info: NONBONDED TABLE SIZE: 705 POINTS
TCL: Setting parameter alchLambda2 to 0.8000000000000002
Info: NONBONDED TABLE R-SQUARED SPACING: 0.0625
Info: NONBONDED TABLE SIZE: 705 POINTS
TCL: Running for 1500000 steps
ETITLE: TS BOND ANGLE DIHED IMPRP ELECT VDW BOUNDARY MISC KINETIC TOTAL TEMP POTENTIAL TOTALAVG TEMPAVG PRESSURE GPRESSURE VOLUME PRESSAVG GPRESSAVG
ENERGY: 0 0.1056 0.4283 0.0000 0.0000 -10550.6045 1395.3917 0.0000 0.0000 1760.4076 -7394.2713 304.9492 -9154.6789 -7394.2713 304.9492 -146.5995 -67.1500 29850.6280 -146.5995 -67.1500
ENERGY: 300000 0.2606 1.3515 0.0000 0.0000 -10502.1138 1465.3920 0.0000 0.0000 1711.6523 -7323.4574 296.5035 -9035.1097 -7333.6239 302.6183 353.7736 453.4691 30405.4059 180.6495 208.2545
ENERGY: 600000 1.9620 0.8147 0.0000 0.0000 -10570.7176 1422.9525 0.0000 0.0000 1735.3467 -7409.6418 300.6080 -9144.9885 -7362.9072 300.5818 89.2794 89.1479 29945.9699 135.9144 162.8446
ENERGY: 900000 0.4939 0.8178 0.0000 0.0000 -10526.9776 1389.8979 0.0000 0.0000 1742.3001 -7393.4680 301.8125 -9135.7680 -7388.1636 299.9953 -325.0169 -279.5999 30100.5362 78.8637 114.7801
ENERGY: 1200000 2.7152 1.4734 0.0000 0.0000 -10458.8540 1347.6928 0.0000 0.0000 1722.1650 -7384.8075 298.3246 -9106.9725 -7390.0071 299.7220 -859.8193 -845.0122 30688.2992 -39.8977 0.6070
ENERGY: 1500000 1.8219 1.3137 0.0000 0.0000 -10629.4533 1488.4649 0.0000 0.0000 1715.4021 -7422.4507 297.1530 -9137.8528 -7390.8951 299.4883 693.7862 752.6332 29556.5480 -14.3491 27.6625
TCL: Running FEP window  17: Lambda1 0.8000000000000002 Lambda2 0.8500000000000002 [dLambda 0.050000000000000044]
TCL: Setting parameter firsttimestep to 0
TCL: Setting parameter alchLambda to 0.8000000000000002
Info: NONBONDED TABLE R-SQUARED SPACING: 0.0625
Info: NONBONDED TABLE SIZE: 705 POINTS
TCL: Setting parameter alchLambda2 to 0.8500000000000002
Info: NONBONDED TABLE R-SQUARED SPACING: 0.0625
Info: NONBONDED TABLE SIZE: 705 POINTS
TCL: Running for 1500000 steps
ETITLE: TS BOND ANGLE DIHED IMPRP ELECT VDW BOUNDARY MISC KINETIC TOTAL TEMP POTENTIAL TOTALAVG TEMPAVG PRESSURE GPRESSURE VOLUME PRESSAVG GPRESSAVG
ENERGY: 0 1.8219 1.3137 0.0000 0.0000 -10629.5698 1488.5414 0.0000 0.0000 1714.5501 -7423.3427 297.0055 -9137.8928 -7423.3427 297.0055 684.7322 757.1562 29556.5480 684.7322 757.1562
ENERGY: 300000 0.6940 1.6071 0.0000 0.0000 -10325.4303 1382.3856 0.0000 0.0000 1695.7855 -7244.9581 293.7549 -8940.7435 -7345.5529 299.1807 -273.3805 -179.1069 30770.0310 201.6526 292.8968
ENERGY: 600000 0.2120 1.8551 0.0000 0.0000 -10613.9627 1421.0739 0.0000 0.0000 1687.4728 -7503.3487 292.3150 -9190.8216 -7385.8131 297.5559 -73.4054 -90.9773 30109.5333 -112.6503 -35.9441
ENERGY: 900000 0.6247 0.9811 0.0000 0.0000 -10479.1659 1373.4919 0.0000 0.0000 1723.2473 -7380.8209 298.5120 -9104.0682 -7383.7615 298.3272 59.1457 71.2966 29446.4118 -68.4368 -0.2551
ENERGY: 1200000 0.7693 1.3251 0.0000 0.0000 -10470.3177 1414.1679 0.0000 0.0000 1711.9112 -7342.1442 296.5483 -9054.0554 -7387.9240 298.1889 -27.6168 126.8623 30111.1291 -20.9446 51.8318
ENERGY: 1500000 0.5000 3.9715 0.0000 0.0000 -10601.6312 1452.9744 0.0000 0.0000 1677.9200 -7466.2653 290.6602 -9144.1853 -7401.5294 297.7830 159.8200 221.4788 30132.5481 -57.5881 13.2687
TCL: Running FEP window  18: Lambda1 0.8500000000000002 Lambda2 0.9000000000000002 [dLambda 0.050000000000000044]
TCL: Setting parameter firsttimestep to 0
TCL: Setting parameter alchLambda to 0.8500000000000002
Info: NONBONDED TABLE R-SQUARED SPACING: 0.0625
Info: NONBONDED TABLE SIZE: 705 POINTS
TCL: Setting parameter alchLambda2 to 0.9000000000000002
Info: NONBONDED TABLE R-SQUARED SPACING: 0.0625
Info: NONBONDED TABLE SIZE: 705 POINTS
TCL: Running for 1500000 steps
ETITLE: TS BOND ANGLE DIHED IMPRP ELECT VDW BOUNDARY MISC KINETIC TOTAL TEMP POTENTIAL TOTALAVG TEMPAVG PRESSURE GPRESSURE VOLUME PRESSAVG GPRESSAVG
ENERGY: 0 0.5000 3.9715 0.0000 0.0000 -10601.6880 1453.2366 0.0000 0.0000 1677.0762 -7466.9036 290.5140 -9143.9798 -7466.9036 290.5140 158.0850 229.9110 30132.5481 158.0850 229.9110
ENERGY: 300000 1.2154 1.5373 0.0000 0.0000 -10512.5810 1416.2847 0.0000 0.0000 1713.5384 -7380.0052 296.8302 -9093.5436 -7409.5137 296.4615 48.2190 109.2046 29844.8643 -218.3019 -149.8745
ENERGY: 600000 1.6177 2.9349 0.0000 0.0000 -10577.4371 1497.7000 0.0000 0.0000 1731.1454 -7344.0392 299.8802 -9075.1846 -7385.2100 299.3177 616.3407 685.6184 29912.7223 -182.3716 -122.3799
ENERGY: 900000 0.2624 1.8237 0.0000 0.0000 -10684.4152 1522.3688 0.0000 0.0000 1747.0202 -7412.9400 302.6301 -9159.9602 -7398.3341 298.9058 726.6423 876.5445 29681.0119 -20.3989 48.8569
ENERGY: 1200000 0.6999 0.9245 0.0000 0.0000 -10486.1268 1357.0116 0.0000 0.0000 1730.4636 -7397.0273 299.7621 -9127.4909 -7393.9197 299.2313 -536.2597 -480.6726 30125.9541 -30.2818 36.5504
ENERGY: 1500000 0.5359 1.2605 0.0000 0.0000 -10621.7018 1438.3566 0.0000 0.0000 1752.6272 -7428.9217 303.6014 -9181.5489 -7394.2187 300.4219 88.1883 146.9577 29633.5328 11.2009 77.8226
TCL: Running FEP window  19: Lambda1 0.9000000000000002 Lambda2 0.9500000000000003 [dLambda 0.050000000000000044]
TCL: Setting parameter firsttimestep to 0
TCL: Setting parameter alchLambda to 0.9000000000000002
Info: NONBONDED TABLE R-SQUARED SPACING: 0.0625
Info: NONBONDED TABLE SIZE: 705 POINTS
TCL: Setting parameter alchLambda2 to 0.9500000000000003
Info: NONBONDED TABLE R-SQUARED SPACING: 0.0625
Info: NONBONDED TABLE SIZE: 705 POINTS
TCL: Running for 1500000 steps
ETITLE: TS BOND ANGLE DIHED IMPRP ELECT VDW BOUNDARY MISC KINETIC TOTAL TEMP POTENTIAL TOTALAVG TEMPAVG PRESSURE GPRESSURE VOLUME PRESSAVG GPRESSAVG
ENERGY: 0 0.5359 1.2605 0.0000 0.0000 -10621.8276 1437.9629 0.0000 0.0000 1751.7399 -7430.3284 303.4477 -9182.0683 -7430.3284 303.4477 53.4348 148.1292 29633.5328 53.4348 148.1292
ENERGY: 300000 1.0018 3.4321 0.0000 0.0000 -10457.0705 1401.1740 0.0000 0.0000 1704.3588 -7347.1039 295.2401 -9051.4627 -7399.0684 300.6877 -170.2640 -12.9190 30234.2244 -69.0538 13.2577
ENERGY: 600000 0.9119 1.3931 0.0000 0.0000 -10631.5542 1462.4406 0.0000 0.0000 1723.0506 -7443.7581 298.4780 -9166.8087 -7408.1431 300.8160 404.9419 495.1932 29553.6536 91.3558 173.4655
ENERGY: 900000 0.9040 1.3756 0.0000 0.0000 -10609.1972 1460.9502 0.0000 0.0000 1727.1014 -7418.8661 299.1797 -9145.9675 -7410.9944 300.1538 327.2956 401.7961 29726.6376 81.2126 158.0898
ENERGY: 1200000 1.5161 1.5365 0.0000 0.0000 -10614.2443 1521.3833 0.0000 0.0000 1696.0329 -7393.7756 293.7978 -9089.8085 -7409.3774 299.4709 870.0872 964.6449 29733.4415 139.7528 222.6301
ENERGY: 1500000 0.8003 1.3243 0.0000 0.0000 -10415.6829 1352.1803 0.0000 0.0000 1758.9280 -7302.4499 304.6929 -9061.3780 -7400.3244 299.6851 -441.1387 -340.0801 30157.9781 60.2411 144.2456
TCL: Running FEP window  20: Lambda1 0.9500000000000003 Lambda2 1.0    [dLambda 0.04999999999999971]
TCL: Setting parameter firsttimestep to 0
TCL: Setting parameter alchLambda to 0.9500000000000003
Info: NONBONDED TABLE R-SQUARED SPACING: 0.0625
Info: NONBONDED TABLE SIZE: 705 POINTS
TCL: Setting parameter alchLambda2 to 1.0
Info: NONBONDED TABLE R-SQUARED SPACING: 0.0625
Info: NONBONDED TABLE SIZE: 705 POINTS
TCL: Running for 1500000 steps
ETITLE: TS BOND ANGLE DIHED IMPRP ELECT VDW BOUNDARY MISC KINETIC TOTAL TEMP POTENTIAL TOTALAVG TEMPAVG PRESSURE GPRESSURE VOLUME PRESSAVG GPRESSAVG
ENERGY: 0 0.8003 1.3243 0.0000 0.0000 -10415.7212 1352.5156 0.0000 0.0000 1758.0533 -7303.0277 304.5414 -9061.0810 -7303.0277 304.5414 -410.8110 -325.5109 30157.9781 -410.8110 -325.5109
ENERGY: 300000 0.2087 3.3791 0.0000 0.0000 -10459.2827 1292.2299 0.0000 0.0000 1733.0039 -7430.4611 300.2021 -9163.4650 -7376.0781 299.1461 -1011.3489 -922.4953 29928.1101 -628.7282 -530.8043
ENERGY: 600000 0.4998 1.6102 0.0000 0.0000 -10433.7206 1337.0880 0.0000 0.0000 1726.9440 -7367.5787 299.1524 -9094.5227 -7405.4799 298.8847 -659.6556 -564.2782 30188.8997 -383.4908 -301.2660
ENERGY: 900000 1.4792 1.7311 0.0000 0.0000 -10505.8728 1355.7249 0.0000 0.0000 1756.4697 -7390.4678 304.2670 -9146.9375 -7405.6318 299.4999 -287.9094 -228.2231 29672.7341 -273.5105 -205.1020
ENERGY: 1200000 2.3048 0.8202 0.0000 0.0000 -10615.9179 1399.0179 0.0000 0.0000 1736.6019 -7477.1732 300.8254 -9213.7751 -7411.6027 299.3152 -100.4728 21.5828 29342.2462 -189.0343 -118.8891
ENERGY: 1500000 0.3677 0.8050 0.0000 0.0000 -10514.8926 1443.0371 0.0000 0.0000 1733.6223 -7337.0605 300.3093 -9070.6828 -7399.9522 299.9473 225.7143 274.2682 30042.4390 -181.9214 -115.5379
TCL: Exiting due to exit command.
