Info: SIMULATION PARAMETERS:
Info: TIMESTEP               2
Info: NUMBER OF STEPS        0
Info: STEPS PER CYCLE        10
Info: PERIODIC CELL BASIS 1  35.01 0 0
Info: PERIODIC CELL BASIS 2  0 34.1 0
Info: PERIODIC CELL BASIS 3  0 0 36.199
Info: PERIODIC CELL CENTER   0 0 0
Info: WRAPPING WATERS AROUND PERIODIC BOUNDARIES ON OUTPUT.
Info: WRAPPING ALL CLUSTERS AROUND PERIODIC BOUNDARIES ON OUTPUT.
Info: FIRST LDB TIMESTEP     50
Info: LAST LDB TIMESTEP     -1
Info: HOM BACKGROUND SCALING 1
Info: PME BACKGROUND SCALING 1
Info: MIN ATOMS PER PATCH    40
Info: EMPTY PATCH LOAD       40 ATOMS
Info: INITIAL TEMPERATURE    300
Info: CENTER OF MASS MOVING INITIALLY? NO
Info: DIELECTRIC             1
Info: EXCLUDE                SCALED ONE-FOUR
Info: 1-4 ELECTROSTATICS SCALED BY 0.833333
Info: MODIFIED 1-4 VDW PARAMETERS WILL BE USED
Info: DCD FILENAME           mobley_4762983_equil.dcd
Info: DCD FREQUENCY          100000
Info: DCD FIRST STEP         100000
Info: DCD FILE WILL CONTAIN UNIT CELL DATA
Info: XST FILENAME           mobley_4762983_equil.xst
Info: XST FREQUENCY          100000
Info: NO VELOCITY DCD OUTPUT
Info: NO FORCE DCD OUTPUT
Info: OUTPUT FILENAME        mobley_4762983_equil
Info: BINARY OUTPUT FILES WILL BE USED
Info: RESTART FILENAME       mobley_4762983_equil.restart
Info: RESTART FREQUENCY      100000
Info: BINARY RESTART FILES WILL BE USED
Info: CUTOFF                 9
Info: PAIRLIST DISTANCE      11
Info: PAIRLIST SHRINK RATE   0.01
Info: PAIRLIST GROW RATE     0.01
Info: PAIRLIST TRIGGER       0.3
Info: PAIRLISTS PER CYCLE    2
Info: PAIRLISTS ENABLED
Info: MARGIN                 8
Info: HYDROGEN GROUP CUTOFF  2.5
Info: PATCH DIMENSION        21.5
Info: ENERGY OUTPUT STEPS    100000
Info: ENERGY EVALUATION STEPS    100000
Info: OUTPUT ENERGY PRECISION 4
Info: CROSSTERM ENERGY INCLUDED IN DIHEDRAL
Info: TIMING OUTPUT STEPS    1000000
Info: PRESSURE OUTPUT STEPS  100000
Info: LANGEVIN DYNAMICS ACTIVE
Info: LANGEVIN TEMPERATURE   30
Info: LANGEVIN USING BBK INTEGRATOR
Info: LANGEVIN DAMPING COEFFICIENT IS 1 INVERSE PS
Info: LANGEVIN DYNAMICS APPLIED TO HYDROGENS
Info: LANGEVIN PISTON PRESSURE CONTROL ACTIVE
Info:        TARGET PRESSURE IS 1.01325 BAR
Info:     OSCILLATION PERIOD IS 50 FS
Info:             DECAY TIME IS 25 FS
Info:     PISTON TEMPERATURE IS 300 K
Info:       PRESSURE CONTROL IS GROUP-BASED
Info:    INITIAL STRAIN RATE IS 0 0 0
Info:       CELL FLUCTUATION IS ISOTROPIC
Info: PARTICLE MESH EWALD (PME) ACTIVE
Info: PME TOLERANCE               1e-06
Info: PME EWALD COEFFICIENT       0.348832
Info: PME INTERPOLATION ORDER     4
Info: PME GRID DIMENSIONS         36 36 40
Info: PME MAXIMUM GRID SPACING    1
Info: FULL ELECTROSTATIC EVALUATION FREQUENCY      2
Info: USING VERLET I (r-RESPA) MTS SCHEME.
Info: C1 SPLITTING OF LONG RANGE ELECTROSTATICS
Info: PLACING ATOMS IN PATCHES BY HYDROGEN GROUPS
Info: RIGID BONDS TO HYDROGEN : ALL
Info:         ERROR TOLERANCE : 1e-08
Info:          MAX ITERATIONS : 100
Info: RIGID WATER USING SETTLE ALGORITHM
Info: RANDOM NUMBER SEED     1743255120
Info: USE HYDROGEN BONDS?    NO
Info: Using AMBER format force field!
Info: AMBER PARM FILE        mobley_4762983.prmtop
Info: COORDINATE PDB         mobley_4762983.pdb
Info: Exclusions will be read from PARM file!
Info: SCNB (VDW SCALING)     2
Info: USING ARITHMETIC MEAN TO COMBINE L-J SIGMA PARAMETERS
Info: BINARY COORDINATES     mobley_4762983_min.coor
Info: SUMMARY OF PARAMETERS:
Info: 7 BONDS
Info: 9 ANGLES
Info:   9 HARMONIC
Info:   0 COSINE-BASED
Info: 11 DIHEDRAL
Info: 0 IMPROPER
Info: 0 CROSSTERM
Info: 0 VDW
Info: 21 VDW_PAIRS
Info: 0 NBTHOLE_PAIRS
Info: STRUCTURE SUMMARY:
Info: 2922 ATOMS
Info: 2921 BONDS
Info: 36 ANGLES
Info: 56 DIHEDRALS
Info: 0 IMPROPERS
Info: 0 CROSSTERMS
Info: 3003 EXCLUSIONS
Info: 2915 RIGID BONDS
Info: 5851 DEGREES OF FREEDOM
Info: 974 HYDROGEN GROUPS
Info: 4 ATOMS IN LARGEST HYDROGEN GROUP
Info: 974 MIGRATION GROUPS
Info: 4 ATOMS IN LARGEST MIGRATION GROUP
Info: TOTAL MASS = 17519.7 amu
Info: TOTAL CHARGE = 1.49012e-08 e
Info: MASS DENSITY = 0.673196 g/cm^3
Info: ATOM DENSITY = 0.0676141 atoms/A^3
Info: ADDED 0 IMPLICIT EXCLUSIONS
Info: NONBONDED TABLE R-SQUARED SPACING: 0.0625
Info: NONBONDED TABLE SIZE: 705 POINTS
Info: REMOVING COM VELOCITY 0.0482111 -0.0447375 -0.0503402
TCL: Running for 100000 steps
ETITLE: TS BOND ANGLE DIHED IMPRP ELECT VDW BOUNDARY MISC KINETIC TOTAL TEMP POTENTIAL TOTAL3 TEMPAVG PRESSURE GPRESSURE VOLUME PRESSAVG GPRESSAVG
ENERGY: 0 0.0535 0.1783 3.6997 0.0000 -13491.9406 2387.4173 0.0000 0.0000 1721.7381 -9378.8538 296.1607 -11100.5919 -9378.5215 296.1607 440.2254 474.7747 43215.8504 440.2254 474.7747
ENERGY: 100000 0.1020 1.2834 3.7729 0.0000 -14151.2012 2521.2224 0.0000 0.0000 173.5154 -11451.3051 29.8468 -11624.8205 -11450.9910 30.9350 426.6404 487.8016 28345.3277 5.1291 5.0849
TCL: Running 100000 steps at 60 kelvin.
TCL: Setting parameter langevinTemp to 60
TCL: Running for 100000 steps
ETITLE: TS BOND ANGLE DIHED IMPRP ELECT VDW BOUNDARY MISC KINETIC TOTAL TEMP POTENTIAL TOTAL3 TEMPAVG PRESSURE GPRESSURE VOLUME PRESSAVG GPRESSAVG
ENERGY: 100000 0.1020 1.2834 3.7729 0.0000 -14151.2012 2521.2224 0.0000 0.0000 173.4295 -11451.3909 29.8321 -11624.8205 -11450.9817 29.8321 436.6742 487.5054 28345.3277 436.6742 487.5054
ENERGY: 200000 0.3139 1.8338 4.3978 0.0000 -14028.5683 2478.3433 0.0000 0.0000 348.2752 -11195.4043 59.9077 -11543.6794 -11194.5321 59.9302 462.8777 514.7560 28263.7326 3.1218 3.1376
TCL: Running 100000 steps at 90 kelvin.
TCL: Setting parameter langevinTemp to 90
TCL: Running for 100000 steps
ETITLE: TS BOND ANGLE DIHED IMPRP ELECT VDW BOUNDARY MISC KINETIC TOTAL TEMP POTENTIAL TOTAL3 TEMPAVG PRESSURE GPRESSURE VOLUME PRESSAVG GPRESSAVG
ENERGY: 200000 0.3139 1.8338 4.3978 0.0000 -14028.5683 2478.3433 0.0000 0.0000 348.1029 -11195.5765 59.8781 -11543.6794 -11194.9315 59.8781 464.2866 515.3150 28263.7326 464.2866 515.3150
ENERGY: 300000 0.8194 3.9084 2.8056 0.0000 -13752.7201 2302.3606 0.0000 0.0000 536.3250 -10906.5011 92.2547 -11442.8261 -10905.7247 90.0146 -622.2756 -635.9042 28517.3277 4.5649 4.5002
TCL: Running 100000 steps at 120 kelvin.
TCL: Setting parameter langevinTemp to 120
TCL: Running for 100000 steps
ETITLE: TS BOND ANGLE DIHED IMPRP ELECT VDW BOUNDARY MISC KINETIC TOTAL TEMP POTENTIAL TOTAL3 TEMPAVG PRESSURE GPRESSURE VOLUME PRESSAVG GPRESSAVG
ENERGY: 300000 0.8194 3.9084 2.8056 0.0000 -13752.7201 2302.3606 0.0000 0.0000 536.0609 -10906.7652 92.2092 -11442.8261 -10905.5150 92.2092 -675.5098 -635.8040 28517.3277 -675.5098 -635.8040
ENERGY: 400000 1.0535 3.7854 4.1982 0.0000 -13629.8138 2318.4681 0.0000 0.0000 681.6554 -10620.6533 117.2533 -11302.3086 -10619.6688 119.7792 13.6417 53.0773 28481.6038 3.5818 3.6104
TCL: Running 100000 steps at 150 kelvin.
TCL: Setting parameter langevinTemp to 150
TCL: Running for 100000 steps
ETITLE: TS BOND ANGLE DIHED IMPRP ELECT VDW BOUNDARY MISC KINETIC TOTAL TEMP POTENTIAL TOTAL3 TEMPAVG PRESSURE GPRESSURE VOLUME PRESSAVG GPRESSAVG
ENERGY: 400000 1.0535 3.7854 4.1982 0.0000 -13629.8138 2318.4681 0.0000 0.0000 681.3009 -10621.0077 117.1924 -11302.3086 -10619.5063 117.1924 7.4168 51.8527 28481.6038 7.4168 51.8527
ENERGY: 500000 1.1067 4.2621 5.6083 0.0000 -13389.6844 2214.1170 0.0000 0.0000 831.6477 -10332.9426 143.0539 -11164.5903 -10332.5016 150.0704 -466.3929 -396.2016 28883.9809 4.4750 4.4213
TCL: Running 100000 steps at 180 kelvin.
TCL: Setting parameter langevinTemp to 180
TCL: Running for 100000 steps
ETITLE: TS BOND ANGLE DIHED IMPRP ELECT VDW BOUNDARY MISC KINETIC TOTAL TEMP POTENTIAL TOTAL3 TEMPAVG PRESSURE GPRESSURE VOLUME PRESSAVG GPRESSAVG
ENERGY: 500000 1.1067 4.2621 5.6083 0.0000 -13389.6844 2214.1170 0.0000 0.0000 831.1902 -10333.4001 142.9752 -11164.5903 -10331.7470 142.9752 -431.5820 -396.6942 28883.9809 -431.5820 -396.6942
ENERGY: 600000 0.7295 4.7593 4.2276 0.0000 -13029.2847 2162.7616 0.0000 0.0000 1093.4189 -9763.3878 188.0818 -10856.8066 -9761.4751 179.7789 437.8349 481.4597 28848.7860 3.8102 3.7260
TCL: Running 100000 steps at 210 kelvin.
TCL: Setting parameter langevinTemp to 210
TCL: Running for 100000 steps
ETITLE: TS BOND ANGLE DIHED IMPRP ELECT VDW BOUNDARY MISC KINETIC TOTAL TEMP POTENTIAL TOTAL3 TEMPAVG PRESSURE GPRESSURE VOLUME PRESSAVG GPRESSAVG
ENERGY: 600000 0.7295 4.7593 4.2276 0.0000 -13029.2847 2162.7616 0.0000 0.0000 1092.8844 -9763.9223 187.9899 -10856.8066 -9761.7739 187.9899 430.7164 481.0432 28848.7860 430.7164 481.0432
ENERGY: 700000 1.3467 5.3050 4.2668 0.0000 -12231.3292 1891.6997 0.0000 0.0000 1220.0043 -9108.7065 209.8561 -10328.7109 -9106.8570 209.8375 718.9003 725.7101 28002.6028 3.3235 3.2113
TCL: Running 100000 steps at 240 kelvin.
TCL: Setting parameter langevinTemp to 240
TCL: Running for 100000 steps
ETITLE: TS BOND ANGLE DIHED IMPRP ELECT VDW BOUNDARY MISC KINETIC TOTAL TEMP POTENTIAL TOTAL3 TEMPAVG PRESSURE GPRESSURE VOLUME PRESSAVG GPRESSAVG
ENERGY: 700000 1.3467 5.3050 4.2668 0.0000 -12231.3292 1891.6997 0.0000 0.0000 1219.4003 -9109.3106 209.7522 -10328.7109 -9107.2896 209.7522 651.1361 724.2598 28002.6028 651.1361 724.2598
ENERGY: 800000 0.4434 7.9383 5.4595 0.0000 -11574.0194 1654.2392 0.0000 0.0000 1390.4590 -8515.4800 239.1765 -9905.9390 -8510.8288 239.9259 -407.2750 -318.6800 29067.2835 2.0001 2.0586
TCL: Running 100000 steps at 270 kelvin.
TCL: Setting parameter langevinTemp to 270
TCL: Running for 100000 steps
ETITLE: TS BOND ANGLE DIHED IMPRP ELECT VDW BOUNDARY MISC KINETIC TOTAL TEMP POTENTIAL TOTAL3 TEMPAVG PRESSURE GPRESSURE VOLUME PRESSAVG GPRESSAVG
ENERGY: 800000 0.4434 7.9383 5.4595 0.0000 -11574.0194 1654.2392 0.0000 0.0000 1389.7752 -8516.1637 239.0589 -9905.9390 -8513.7501 239.0589 -387.3783 -317.7128 29067.2835 -387.3783 -317.7128
ENERGY: 900000 2.4882 6.7982 5.5981 0.0000 -11059.0050 1497.9810 0.0000 0.0000 1599.8118 -7946.3277 275.1878 -9546.1395 -7942.8043 270.3174 -542.6102 -440.1665 29691.0768 2.9977 3.1275
TCL: Running 1000000 steps at 300 kelvin.
TCL: Setting parameter langevinTemp to 300
TCL: Running for 1000000 steps
ETITLE: TS BOND ANGLE DIHED IMPRP ELECT VDW BOUNDARY MISC KINETIC TOTAL TEMP POTENTIAL TOTAL3 TEMPAVG PRESSURE GPRESSURE VOLUME PRESSAVG GPRESSAVG
ENERGY: 900000 2.4882 6.7982 5.5981 0.0000 -11059.0050 1497.9810 0.0000 0.0000 1599.0591 -7947.0804 275.0583 -9546.1395 -7944.2673 275.0583 -515.2209 -442.1945 29691.0768 -515.2209 -442.1945
ENERGY: 1100000 0.7450 9.0268 4.9735 0.0000 -10507.7516 1468.7982 0.0000 0.0000 1775.6883 -7248.5197 305.4408 -9024.2080 -7245.8978 299.8107 474.2434 598.0223 30412.0528 2.0767 2.0436
ENERGY: 1300000 2.4602 5.7103 7.6070 0.0000 -10568.1450 1413.7789 0.0000 0.0000 1785.1650 -7353.4237 307.0709 -9138.5887 -7348.9831 300.2563 26.4246 112.1783 30137.1165 2.8715 2.8691
ENERGY: 1500000 3.2753 9.0610 7.2802 0.0000 -10650.4320 1495.7786 0.0000 0.0000 1795.1012 -7339.9357 308.7801 -9135.0370 -7339.4394 300.2120 609.2607 683.6490 30062.5491 3.6396 3.5378
ENERGY: 1700000 3.1493 7.5165 4.2078 0.0000 -10594.9639 1404.3451 0.0000 0.0000 1753.9250 -7421.8202 301.6972 -9175.7452 -7417.0731 300.8448 -313.5167 -254.5030 29981.0983 3.1286 3.1773
ENERGY: 1900000 2.8331 10.4190 5.4095 0.0000 -10494.6420 1375.9697 0.0000 0.0000 1748.8193 -7351.1914 300.8190 -9100.0107 -7349.8041 299.9810 -274.4606 -237.7509 30299.8089 3.0466 3.0681
TCL: Exiting due to exit command.
