Info: SIMULATION PARAMETERS:
Info: TIMESTEP               2
Info: NUMBER OF STEPS        0
Info: STEPS PER CYCLE        10
Info: PERIODIC CELL BASIS 1  30.9773 0 0
Info: PERIODIC CELL BASIS 2  0 31.2047 0
Info: PERIODIC CELL BASIS 3  0 0 31.6082
Info: PERIODIC CELL CENTER   0 0 0
Info: WRAPPING WATERS AROUND PERIODIC BOUNDARIES ON OUTPUT.
Info: WRAPPING ALL CLUSTERS AROUND PERIODIC BOUNDARIES ON OUTPUT.
Info: FIRST LDB TIMESTEP     50
Info: LAST LDB TIMESTEP     -1
Info: HOM BACKGROUND SCALING 1
Info: PME BACKGROUND SCALING 1
Info: MIN ATOMS PER PATCH    40
Info: EMPTY PATCH LOAD       40 ATOMS
Info: VELOCITY FILE          mobley_4434915_equil.vel
Info: CENTER OF MASS MOVING INITIALLY? NO
Info: DIELECTRIC             1
Info: EXCLUDE                SCALED ONE-FOUR
Info: 1-4 ELECTROSTATICS SCALED BY 0.833333
Info: MODIFIED 1-4 VDW PARAMETERS WILL BE USED
Info: DCD FILENAME           mobley_4434915_prod.dcd
Info: DCD FREQUENCY          100000
Info: DCD FIRST STEP         100000
Info: DCD FILE WILL CONTAIN UNIT CELL DATA
Info: XST FILENAME           mobley_4434915_prod.xst
Info: XST FREQUENCY          100000
Info: NO VELOCITY DCD OUTPUT
Info: NO FORCE DCD OUTPUT
Info: OUTPUT FILENAME        mobley_4434915_prod
Info: BINARY OUTPUT FILES WILL BE USED
Info: RESTART FILENAME       mobley_4434915_prod.restart
Info: RESTART FREQUENCY      100000
Info: BINARY RESTART FILES WILL BE USED
Info: CUTOFF                 9
Info: PAIRLIST DISTANCE      11
Info: PAIRLIST SHRINK RATE   0.01
Info: PAIRLIST GROW RATE     0.01
Info: PAIRLIST TRIGGER       0.3
Info: PAIRLISTS PER CYCLE    2
Info: PAIRLISTS ENABLED
Info: MARGIN                 2
Info: HYDROGEN GROUP CUTOFF  2.5
Info: PATCH DIMENSION        15.5
Info: ENERGY OUTPUT STEPS    100000
Info: ENERGY EVALUATION STEPS    100000
Info: OUTPUT ENERGY PRECISION 4
Info: CROSSTERM ENERGY INCLUDED IN DIHEDRAL
Info: TIMING OUTPUT STEPS    1000000
Info: PRESSURE OUTPUT STEPS  100000
Info: ALCHEMICAL FEP ON
Info: FEP CURRENT LAMBDA VALUE     1
Info: FEP COMPARISON LAMBDA VALUE  0.95
Info: FEP INTRA-ALCHEMICAL NON-BONDED INTERACTIONS WILL BE RETAINED
Info: FEP INTRA-ALCHEMICAL BONDED INTERACTIONS WILL BE RETAINED
Info: FEP VDW SHIFTING COEFFICIENT 5
Info: FEP ELEC. ACTIVE FOR ANNIHILATED PARTICLES BETWEEN LAMBDA = 0 AND LAMBDA = 0.5
Info: FEP ELEC. ACTIVE FOR EXNIHILATED PARTICLES BETWEEN LAMBDA = 0.5 AND LAMBDA = 1
Info: FEP VDW ACTIVE FOR ANNIHILATED PARTICLES BETWEEN LAMBDA = 0 AND LAMBDA = 1
Info: FEP VDW ACTIVE FOR EXNIHILATED PARTICLES BETWEEN LAMBDA = 0 AND LAMBDA = 1
Info: FEP BOND ACTIVE FOR ANNIHILATED PARTICLES BETWEEN LAMBDA = 1 AND LAMBDA = 1
Info: FEP BOND ACTIVE FOR EXNIHILATED PARTICLES BETWEEN LAMBDA = 0 AND LAMBDA = 0
Info: LANGEVIN DYNAMICS ACTIVE
Info: LANGEVIN TEMPERATURE   300
Info: LANGEVIN USING BBK INTEGRATOR
Info: LANGEVIN DAMPING COEFFICIENT IS 1 INVERSE PS
Info: LANGEVIN DYNAMICS APPLIED TO HYDROGENS
Info: LANGEVIN PISTON PRESSURE CONTROL ACTIVE
Info:        TARGET PRESSURE IS 1.01325 BAR
Info:     OSCILLATION PERIOD IS 50 FS
Info:             DECAY TIME IS 25 FS
Info:     PISTON TEMPERATURE IS 300 K
Info:       PRESSURE CONTROL IS GROUP-BASED
Info:    INITIAL STRAIN RATE IS 0.000807287 0.000807287 0.000807287
Info:       CELL FLUCTUATION IS ISOTROPIC
Info: PARTICLE MESH EWALD (PME) ACTIVE
Info: PME TOLERANCE               1e-06
Info: PME EWALD COEFFICIENT       0.348832
Info: PME INTERPOLATION ORDER     4
Info: PME GRID DIMENSIONS         32 32 32
Info: PME MAXIMUM GRID SPACING    1
Info: PME CALCULATION WILL BE PERFORMED ON GPU
Info: FULL ELECTROSTATIC EVALUATION FREQUENCY      2
Info: USING VERLET I (r-RESPA) MTS SCHEME.
Info: C1 SPLITTING OF LONG RANGE ELECTROSTATICS
Info: PLACING ATOMS IN PATCHES BY HYDROGEN GROUPS
Info: RIGID BONDS TO HYDROGEN : ALL
Info:         ERROR TOLERANCE : 1e-08
Info:          MAX ITERATIONS : 100
Info: RIGID WATER USING SETTLE ALGORITHM
Info: RANDOM NUMBER SEED     1743474268
Info: USE HYDROGEN BONDS?    NO
Info: Using AMBER format force field!
Info: AMBER PARM FILE        mobley_4434915.prmtop
Info: COORDINATE PDB         mobley_4434915.pdb
Info: Exclusions will be read from PARM file!
Info: SCNB (VDW SCALING)     2
Info: USING ARITHMETIC MEAN TO COMBINE L-J SIGMA PARAMETERS
Info: BINARY COORDINATES     mobley_4434915_equil.coor
Info: SUMMARY OF PARAMETERS:
Info: 4 BONDS
Info: 2 ANGLES
Info:   2 HARMONIC
Info:   0 COSINE-BASED
Info: 0 DIHEDRAL
Info: 0 IMPROPER
Info: 0 CROSSTERM
Info: 0 VDW
Info: 15 VDW_PAIRS
Info: 0 NBTHOLE_PAIRS
Info: To read alchdata from file: mobley_4434915.pdb
Info: To read alchflag data from column: 5
Info: STRUCTURE SUMMARY:
Info: 2984 ATOMS
Info: 2983 BONDS
Info: 6 ANGLES
Info: 0 DIHEDRALS
Info: 0 IMPROPERS
Info: 0 CROSSTERMS
Info: 2989 EXCLUSIONS
Info: 2982 RIGID BONDS
Info: ALCH: 0 ATOMS TO DISAPPEAR IN FINAL STATE
Info: ALCH: 5 ATOMS TO APPEAR IN FINAL STATE
Info: 5970 DEGREES OF FREEDOM
Info: 995 HYDROGEN GROUPS
Info: 4 ATOMS IN LARGEST HYDROGEN GROUP
Info: 995 MIGRATION GROUPS
Info: 4 ATOMS IN LARGEST MIGRATION GROUP
Info: TOTAL MASS = 17940.4 amu
Info: TOTAL CHARGE = -0.000100018 e
Info: MASS DENSITY = 0.97505 g/cm^3
Info: ATOM DENSITY = 0.0976641 atoms/A^3
Info: ADDED 0 IMPLICIT EXCLUSIONS
Info: NONBONDED TABLE R-SQUARED SPACING: 0.0625
Info: NONBONDED TABLE SIZE: 705 POINTS
Info: REMOVING COM VELOCITY -0.0885006 -0.0753841 0.0883314
Info: Use 3D box decompostion in PME FFT.
Info: Updated CUDA force table with 4096 elements.
Info: Updated CUDA LJ table with 5 x 5 elements.
Info: Found 8 unique exclusion lists needing 8 bytes
TCL: Running for 1500000 steps
ETITLE: TS BOND ANGLE DIHED IMPRP ELECT VDW BOUNDARY MISC KINETIC TOTAL TEMP POTENTIAL TOTALAVG TEMPAVG PRESSURE GPRESSURE VOLUME PRESSAVG GPRESSAVG
ENERGY: 0 1.6795 1.2018 0.0000 0.0000 -10802.3862 1362.5329 0.0000 0.0000 1846.3775 -7590.5945 311.2695 -9436.9720 -7590.5945 311.2695 -722.1754 -633.4071 30553.7085 -722.1754 -633.4071
ENERGY: 300000 0.0006 0.5368 0.0000 0.0000 -10863.6423 1502.2198 0.0000 0.0000 1752.7860 -7608.0990 295.4915 -9360.8851 -7614.8385 302.4852 396.6916 488.9952 30440.4798 -342.5024 -265.5386
ENERGY: 600000 0.0035 1.6440 0.0000 0.0000 -10934.3114 1478.4758 0.0000 0.0000 1767.4964 -7686.6917 297.9714 -9454.1881 -7614.8380 301.4757 -35.2748 34.3233 30426.8372 -326.1467 -241.1442
ENERGY: 900000 0.0491 2.0230 0.0000 0.0000 -10755.5974 1411.0891 0.0000 0.0000 1763.1060 -7579.3302 297.2313 -9342.4362 -7611.5542 300.6222 -365.4093 -300.2189 31143.3527 -326.3141 -245.5913
ENERGY: 1200000 0.0039 1.0842 0.0000 0.0000 -10965.9406 1544.3280 0.0000 0.0000 1773.4689 -7647.0555 298.9783 -9420.5245 -7617.5018 300.6640 668.8488 787.3960 30446.1675 -257.0858 -180.7703
ENERGY: 1500000 0.0054 1.1554 0.0000 0.0000 -10742.8374 1395.1781 0.0000 0.0000 1746.0706 -7600.4279 294.3594 -9346.4985 -7610.1194 301.1563 -223.5992 -171.0568 30621.3545 -231.5771 -162.5631
TCL: Running FEP window   2: Lambda1 0.95   Lambda2 0.8999999999999999 [dLambda -0.050000000000000044]
TCL: Setting parameter firsttimestep to 0
TCL: Setting parameter alchLambda to 0.95
Info: NONBONDED TABLE R-SQUARED SPACING: 0.0625
Info: NONBONDED TABLE SIZE: 705 POINTS
TCL: Setting parameter alchLambda2 to 0.8999999999999999
Info: NONBONDED TABLE R-SQUARED SPACING: 0.0625
Info: NONBONDED TABLE SIZE: 705 POINTS
TCL: Running for 1500000 steps
ETITLE: TS BOND ANGLE DIHED IMPRP ELECT VDW BOUNDARY MISC KINETIC TOTAL TEMP POTENTIAL TOTALAVG TEMPAVG PRESSURE GPRESSURE VOLUME PRESSAVG GPRESSAVG
ENERGY: 0 0.0054 1.1554 0.0000 0.0000 -10742.6261 1395.0458 0.0000 0.0000 1745.1797 -7601.2398 294.2092 -9346.4194 -7601.2398 294.2092 -273.3054 -175.2815 30621.3545 -273.3054 -175.2815
ENERGY: 300000 0.0043 2.2496 0.0000 0.0000 -10774.7985 1413.6613 0.0000 0.0000 1752.0825 -7606.8008 295.3729 -9358.8833 -7602.5378 294.3751 -554.8861 -439.0635 31030.3217 -299.8035 -230.5955
ENERGY: 600000 0.2838 0.6734 0.0000 0.0000 -10953.8868 1480.8093 0.0000 0.0000 1764.2638 -7707.8564 297.4264 -9472.1202 -7636.7357 296.0487 87.4216 122.8651 30412.2413 -75.6864 -18.5768
ENERGY: 900000 0.0006 2.2909 0.0000 0.0000 -10632.0733 1378.6514 0.0000 0.0000 1791.6172 -7459.5131 302.0378 -9251.1303 -7608.3589 296.9775 -329.1215 -258.0236 31081.1515 -74.0213 1.9398
ENERGY: 1200000 2.7334 0.8377 0.0000 0.0000 -10877.5076 1500.6483 0.0000 0.0000 1783.4924 -7589.7959 300.6681 -9373.2883 -7615.6723 297.9522 138.8228 219.4768 30907.2242 -12.9597 60.6559
ENERGY: 1500000 0.0450 1.7642 0.0000 0.0000 -10784.4887 1368.4203 0.0000 0.0000 1828.6928 -7585.5663 308.2881 -9414.2591 -7619.6606 298.8880 -760.4801 -712.8645 30959.7302 -53.6949 16.5324
TCL: Running FEP window   3: Lambda1 0.8999999999999999 Lambda2 0.8499999999999999 [dLambda -0.050000000000000044]
TCL: Setting parameter firsttimestep to 0
TCL: Setting parameter alchLambda to 0.8999999999999999
Info: NONBONDED TABLE R-SQUARED SPACING: 0.0625
Info: NONBONDED TABLE SIZE: 705 POINTS
TCL: Setting parameter alchLambda2 to 0.8499999999999999
Info: NONBONDED TABLE R-SQUARED SPACING: 0.0625
Info: NONBONDED TABLE SIZE: 705 POINTS
TCL: Running for 1500000 steps
ETITLE: TS BOND ANGLE DIHED IMPRP ELECT VDW BOUNDARY MISC KINETIC TOTAL TEMP POTENTIAL TOTALAVG TEMPAVG PRESSURE GPRESSURE VOLUME PRESSAVG GPRESSAVG
ENERGY: 0 0.0450 1.7642 0.0000 0.0000 -10784.5542 1368.6041 0.0000 0.0000 1827.7882 -7586.3527 308.1356 -9414.1409 -7586.3527 308.1356 -793.0945 -715.8183 30959.7302 -793.0945 -715.8183
ENERGY: 300000 0.0615 0.7722 0.0000 0.0000 -10897.9959 1451.2649 0.0000 0.0000 1759.3563 -7686.5410 296.5991 -9445.8972 -7619.0955 302.9988 -117.0339 -78.5140 30505.6675 -252.6297 -191.0974
ENERGY: 600000 0.0801 2.2323 0.0000 0.0000 -10969.2666 1526.9914 0.0000 0.0000 1734.0760 -7705.8868 292.3373 -9439.9628 -7607.3828 300.6738 531.7598 594.6164 30298.8371 -235.7295 -187.9142
ENERGY: 900000 0.0426 2.1391 0.0000 0.0000 -10859.5570 1476.3087 0.0000 0.0000 1723.2961 -7657.7705 290.5200 -9381.0667 -7621.4467 298.5186 196.5283 260.5043 30390.1282 -96.9222 -41.5194
ENERGY: 1200000 0.2832 3.0422 0.0000 0.0000 -10674.0813 1304.9023 0.0000 0.0000 1790.3153 -7575.5383 301.8183 -9365.8536 -7623.5586 298.7557 -1118.4966 -1062.7472 30890.4665 -83.8813 -18.6074
ENERGY: 1500000 0.2607 2.0863 0.0000 0.0000 -10774.1402 1422.6355 0.0000 0.0000 1780.1744 -7568.9833 300.1087 -9349.1577 -7618.9125 298.9386 -332.5890 -251.6732 31125.4083 4.3963 72.6579
TCL: Running FEP window   4: Lambda1 0.8499999999999999 Lambda2 0.7999999999999998 [dLambda -0.050000000000000044]
TCL: Setting parameter firsttimestep to 0
TCL: Setting parameter alchLambda to 0.8499999999999999
Info: NONBONDED TABLE R-SQUARED SPACING: 0.0625
Info: NONBONDED TABLE SIZE: 705 POINTS
TCL: Setting parameter alchLambda2 to 0.7999999999999998
Info: NONBONDED TABLE R-SQUARED SPACING: 0.0625
Info: NONBONDED TABLE SIZE: 705 POINTS
TCL: Running for 1500000 steps
ETITLE: TS BOND ANGLE DIHED IMPRP ELECT VDW BOUNDARY MISC KINETIC TOTAL TEMP POTENTIAL TOTALAVG TEMPAVG PRESSURE GPRESSURE VOLUME PRESSAVG GPRESSAVG
ENERGY: 0 0.2607 2.0863 0.0000 0.0000 -10773.7989 1422.6524 0.0000 0.0000 1779.3050 -7569.4945 299.9621 -9348.7994 -7569.4945 299.9621 -330.5523 -256.2816 31125.4083 -330.5523 -256.2816
ENERGY: 300000 0.4700 0.9093 0.0000 0.0000 -10924.8636 1585.8546 0.0000 0.0000 1752.4887 -7585.1411 295.4413 -9337.6298 -7599.0060 299.9753 1298.1521 1384.7823 30312.0105 191.9825 264.2370
ENERGY: 600000 0.0188 0.6227 0.0000 0.0000 -11021.4468 1559.6615 0.0000 0.0000 1821.1655 -7639.9784 307.0191 -9461.1439 -7602.5707 303.0868 320.8849 366.5655 30965.6605 101.8727 167.5069
ENERGY: 900000 0.0472 1.0082 0.0000 0.0000 -10962.6219 1564.5143 0.0000 0.0000 1759.9471 -7637.1050 296.6987 -9397.0521 -7596.7607 303.1938 840.3580 883.8075 30342.2978 126.6523 179.0261
ENERGY: 1200000 0.8080 1.2167 0.0000 0.0000 -10752.4553 1386.2617 0.0000 0.0000 1784.2603 -7579.9087 300.7975 -9364.1690 -7596.8625 303.2129 -628.8299 -586.8962 31091.5091 112.5396 162.0295
ENERGY: 1500000 0.0648 1.2450 0.0000 0.0000 -10846.2652 1473.5234 0.0000 0.0000 1773.4566 -7597.9753 298.9762 -9371.4319 -7594.3459 303.0927 77.1668 118.7745 30893.1520 118.8955 164.9648
TCL: Running FEP window   5: Lambda1 0.7999999999999998 Lambda2 0.7499999999999998 [dLambda -0.050000000000000044]
TCL: Setting parameter firsttimestep to 0
TCL: Setting parameter alchLambda to 0.7999999999999998
Info: NONBONDED TABLE R-SQUARED SPACING: 0.0625
Info: NONBONDED TABLE SIZE: 705 POINTS
TCL: Setting parameter alchLambda2 to 0.7499999999999998
Info: NONBONDED TABLE R-SQUARED SPACING: 0.0625
Info: NONBONDED TABLE SIZE: 705 POINTS
TCL: Running for 1500000 steps
ETITLE: TS BOND ANGLE DIHED IMPRP ELECT VDW BOUNDARY MISC KINETIC TOTAL TEMP POTENTIAL TOTALAVG TEMPAVG PRESSURE GPRESSURE VOLUME PRESSAVG GPRESSAVG
ENERGY: 0 0.0648 1.2450 0.0000 0.0000 -10845.9473 1472.9523 0.0000 0.0000 1772.5575 -7599.1276 298.8246 -9371.6851 -7599.1276 298.8246 19.5511 105.8039 30893.1520 19.5511 105.8039
ENERGY: 300000 0.0573 0.3561 0.0000 0.0000 -10517.9612 1274.3582 0.0000 0.0000 1725.4648 -7517.7248 290.8855 -9243.1896 -7537.9553 301.0122 -1160.4623 -1145.3381 31185.4850 -601.9898 -569.1489
ENERGY: 600000 0.1159 1.2390 0.0000 0.0000 -10757.5342 1366.0915 0.0000 0.0000 1739.2199 -7650.8678 293.2044 -9390.0877 -7582.1497 299.3681 -1161.4857 -1111.5062 31515.1127 -516.9935 -464.0636
ENERGY: 900000 0.0035 2.6411 0.0000 0.0000 -10837.6273 1465.2306 0.0000 0.0000 1766.5602 -7603.1919 297.8136 -9369.7521 -7587.7787 300.2783 55.8998 136.1665 30535.5966 -251.0889 -204.5132
ENERGY: 1200000 0.0462 6.8279 0.0000 0.0000 -10871.4515 1517.4578 0.0000 0.0000 1803.7305 -7543.3891 304.0799 -9347.1196 -7601.8459 298.8389 604.5931 658.0366 30484.4788 -230.6614 -184.7658
ENERGY: 1500000 0.7908 1.8001 0.0000 0.0000 -10855.9530 1467.0530 0.0000 0.0000 1821.3913 -7564.9179 307.0572 -9386.3092 -7600.9695 299.3992 12.8655 57.7140 30999.5756 -199.4511 -150.1283
TCL: Running FEP window   6: Lambda1 0.7499999999999998 Lambda2 0.6999999999999997 [dLambda -0.050000000000000044]
TCL: Setting parameter firsttimestep to 0
TCL: Setting parameter alchLambda to 0.7499999999999998
Info: NONBONDED TABLE R-SQUARED SPACING: 0.0625
Info: NONBONDED TABLE SIZE: 705 POINTS
TCL: Setting parameter alchLambda2 to 0.6999999999999997
Info: NONBONDED TABLE R-SQUARED SPACING: 0.0625
Info: NONBONDED TABLE SIZE: 705 POINTS
TCL: Running for 1500000 steps
ETITLE: TS BOND ANGLE DIHED IMPRP ELECT VDW BOUNDARY MISC KINETIC TOTAL TEMP POTENTIAL TOTALAVG TEMPAVG PRESSURE GPRESSURE VOLUME PRESSAVG GPRESSAVG
ENERGY: 0 0.7908 1.8001 0.0000 0.0000 -10855.7156 1466.8538 0.0000 0.0000 1820.4772 -7565.7937 306.9031 -9386.2709 -7565.7937 306.9031 -48.6007 51.0740 30999.5756 -48.6007 51.0740
ENERGY: 300000 0.0017 2.9351 0.0000 0.0000 -10930.1296 1496.7372 0.0000 0.0000 1774.2439 -7656.2117 299.1089 -9430.4555 -7597.7823 300.4699 120.4202 250.6056 30602.8960 40.7135 123.6525
ENERGY: 600000 0.0772 3.1288 0.0000 0.0000 -10999.4084 1544.4269 0.0000 0.0000 1764.3174 -7687.4580 297.4355 -9451.7754 -7613.5712 298.6214 682.0555 716.1238 30523.1587 124.2957 181.3941
ENERGY: 900000 0.0308 3.9174 0.0000 0.0000 -10741.9945 1398.0430 0.0000 0.0000 1733.1172 -7606.8861 292.1756 -9340.0033 -7607.0099 298.4224 -252.7073 -144.6186 30492.6869 117.6372 179.5721
ENERGY: 1200000 1.1749 0.8380 0.0000 0.0000 -10894.0094 1507.2756 0.0000 0.0000 1793.3749 -7591.3461 302.3341 -9384.7210 -7599.3667 299.7138 340.1160 419.0173 30473.3498 113.0290 175.5495
ENERGY: 1500000 0.6813 2.2662 0.0000 0.0000 -10950.9920 1496.2835 0.0000 0.0000 1817.4516 -7634.3094 306.3930 -9451.7610 -7603.6839 299.5149 22.8733 68.0596 30906.6189 127.5247 192.6712
TCL: Running FEP window   7: Lambda1 0.6999999999999997 Lambda2 0.6499999999999997 [dLambda -0.050000000000000044]
TCL: Setting parameter firsttimestep to 0
TCL: Setting parameter alchLambda to 0.6999999999999997
Info: NONBONDED TABLE R-SQUARED SPACING: 0.0625
Info: NONBONDED TABLE SIZE: 705 POINTS
TCL: Setting parameter alchLambda2 to 0.6499999999999997
Info: NONBONDED TABLE R-SQUARED SPACING: 0.0625
Info: NONBONDED TABLE SIZE: 705 POINTS
TCL: Running for 1500000 steps
ETITLE: TS BOND ANGLE DIHED IMPRP ELECT VDW BOUNDARY MISC KINETIC TOTAL TEMP POTENTIAL TOTALAVG TEMPAVG PRESSURE GPRESSURE VOLUME PRESSAVG GPRESSAVG
ENERGY: 0 0.6813 2.2662 0.0000 0.0000 -10950.9027 1496.2808 0.0000 0.0000 1816.5354 -7635.1391 306.2386 -9451.6745 -7635.1391 306.2386 -20.3166 65.1636 30906.6189 -20.3166 65.1636
ENERGY: 300000 0.4592 2.1846 0.0000 0.0000 -11018.8589 1584.3036 0.0000 0.0000 1817.0487 -7614.8628 306.3251 -9431.9115 -7619.7710 300.2483 894.3859 1002.0883 30413.4950 -143.3684 -49.1205
ENERGY: 600000 0.2725 2.2455 0.0000 0.0000 -10776.0210 1416.3837 0.0000 0.0000 1817.7614 -7539.3579 306.4453 -9357.1193 -7589.1231 302.0128 -140.1489 -127.2508 30449.0745 -40.0171 20.1769
ENERGY: 900000 0.1172 1.5378 0.0000 0.0000 -10893.1211 1451.9786 0.0000 0.0000 1810.5265 -7628.9611 305.2256 -9439.4875 -7601.3951 302.8782 -105.5317 -37.0863 30720.7854 -11.1108 50.5300
ENERGY: 1200000 0.8459 6.0857 0.0000 0.0000 -10756.0978 1399.1434 0.0000 0.0000 1703.2999 -7646.7229 287.1489 -9350.0228 -7608.0468 301.3862 -609.9495 -554.0024 31052.6390 -101.1542 -43.3407
ENERGY: 1500000 0.1385 0.6997 0.0000 0.0000 -10779.7125 1444.5775 0.0000 0.0000 1761.8921 -7572.4047 297.0266 -9334.2968 -7616.1726 299.8585 -413.6033 -298.4937 31053.2977 -169.3845 -112.9183
TCL: Running FEP window   8: Lambda1 0.6499999999999997 Lambda2 0.5999999999999996 [dLambda -0.050000000000000044]
TCL: Setting parameter firsttimestep to 0
TCL: Setting parameter alchLambda to 0.6499999999999997
Info: NONBONDED TABLE R-SQUARED SPACING: 0.0625
Info: NONBONDED TABLE SIZE: 705 POINTS
TCL: Setting parameter alchLambda2 to 0.5999999999999996
Info: NONBONDED TABLE R-SQUARED SPACING: 0.0625
Info: NONBONDED TABLE SIZE: 705 POINTS
TCL: Running for 1500000 steps
ETITLE: TS BOND ANGLE DIHED IMPRP ELECT VDW BOUNDARY MISC KINETIC TOTAL TEMP POTENTIAL TOTALAVG TEMPAVG PRESSURE GPRESSURE VOLUME PRESSAVG GPRESSAVG
ENERGY: 0 0.1385 0.6997 0.0000 0.0000 -10779.7908 1444.6296 0.0000 0.0000 1760.9865 -7573.3364 296.8739 -9334.3230 -7573.3364 296.8739 -378.0496 -304.4424 31053.2977 -378.0496 -304.4424
ENERGY: 300000 0.0513 1.5254 0.0000 0.0000 -10823.4191 1520.3525 0.0000 0.0000 1753.0118 -7548.4781 295.5295 -9301.4898 -7587.4375 296.5038 813.8916 840.5368 30414.6700 185.9172 248.1392
ENERGY: 600000 0.0024 1.1298 0.0000 0.0000 -10766.6812 1436.7189 0.0000 0.0000 1740.5139 -7588.3161 293.4226 -9328.8300 -7601.2549 296.3509 -115.9997 -42.9109 30902.6429 191.8631 244.9890
ENERGY: 900000 0.6406 1.5169 0.0000 0.0000 -10815.4116 1414.8115 0.0000 0.0000 1711.9040 -7686.5386 288.5994 -9398.4426 -7604.2455 297.6433 -252.7518 -161.9869 30607.6010 -12.5391 45.7202
ENERGY: 1200000 0.0120 2.2401 0.0000 0.0000 -10795.6935 1405.8270 0.0000 0.0000 1803.2306 -7584.3838 303.9956 -9387.6144 -7593.5838 299.4515 -441.7964 -343.0131 30916.7619 -85.6392 -33.6017
ENERGY: 1500000 0.0456 0.3856 0.0000 0.0000 -10879.1601 1473.4912 0.0000 0.0000 1714.1495 -7691.0882 288.9780 -9405.2377 -7604.2416 298.4983 152.1418 206.8163 30420.3729 -116.4111 -60.1915
TCL: Running FEP window   9: Lambda1 0.5999999999999996 Lambda2 0.5499999999999996 [dLambda -0.050000000000000044]
TCL: Setting parameter firsttimestep to 0
TCL: Setting parameter alchLambda to 0.5999999999999996
Info: NONBONDED TABLE R-SQUARED SPACING: 0.0625
Info: NONBONDED TABLE SIZE: 705 POINTS
TCL: Setting parameter alchLambda2 to 0.5499999999999996
Info: NONBONDED TABLE R-SQUARED SPACING: 0.0625
Info: NONBONDED TABLE SIZE: 705 POINTS
TCL: Running for 1500000 steps
ETITLE: TS BOND ANGLE DIHED IMPRP ELECT VDW BOUNDARY MISC KINETIC TOTAL TEMP POTENTIAL TOTALAVG TEMPAVG PRESSURE GPRESSURE VOLUME PRESSAVG GPRESSAVG
ENERGY: 0 0.0456 0.3856 0.0000 0.0000 -10879.3254 1473.6486 0.0000 0.0000 1713.2332 -7692.0123 288.8235 -9405.2455 -7692.0123 288.8235 114.4444 203.9185 30420.3729 114.4444 203.9185
ENERGY: 300000 0.0204 2.5253 0.0000 0.0000 -10894.8545 1442.4508 0.0000 0.0000 1793.9810 -7655.8770 302.4363 -9449.8580 -7620.8783 298.7940 -302.4975 -174.9799 30786.0921 -229.4887 -132.3495
ENERGY: 600000 0.2784 2.6324 0.0000 0.0000 -10743.8376 1377.4220 0.0000 0.0000 1812.2828 -7551.2219 305.5217 -9363.5048 -7614.0467 298.1023 -395.2344 -352.8101 30776.6352 -201.9214 -127.7033
ENERGY: 900000 0.5959 3.0603 0.0000 0.0000 -10815.6139 1436.4804 0.0000 0.0000 1761.8752 -7613.6022 297.0238 -9375.4774 -7615.8312 298.8126 114.6072 112.4570 30259.8383 -273.7334 -216.0237
ENERGY: 1200000 0.0898 0.9001 0.0000 0.0000 -10787.6696 1433.4139 0.0000 0.0000 1818.7049 -7534.5609 306.6043 -9353.2658 -7602.6633 300.1029 -9.4242 -25.1696 30927.0746 -96.1447 -41.8337
ENERGY: 1500000 0.3236 4.3104 0.0000 0.0000 -10933.6700 1533.1406 0.0000 0.0000 1771.6466 -7624.2488 298.6711 -9395.8953 -7606.9614 299.0898 429.0760 521.2925 30695.9450 -31.2613 19.0042
TCL: Running FEP window  10: Lambda1 0.5499999999999996 Lambda2 0.4999999999999996 [dLambda -0.04999999999999999]
TCL: Setting parameter firsttimestep to 0
TCL: Setting parameter alchLambda to 0.5499999999999996
Info: NONBONDED TABLE R-SQUARED SPACING: 0.0625
Info: NONBONDED TABLE SIZE: 705 POINTS
TCL: Setting parameter alchLambda2 to 0.4999999999999996
Info: NONBONDED TABLE R-SQUARED SPACING: 0.0625
Info: NONBONDED TABLE SIZE: 705 POINTS
TCL: Running for 1500000 steps
ETITLE: TS BOND ANGLE DIHED IMPRP ELECT VDW BOUNDARY MISC KINETIC TOTAL TEMP POTENTIAL TOTALAVG TEMPAVG PRESSURE GPRESSURE VOLUME PRESSAVG GPRESSAVG
ENERGY: 0 0.3236 4.3104 0.0000 0.0000 -10933.6616 1533.2563 0.0000 0.0000 1770.7413 -7625.0300 298.5185 -9395.7713 -7625.0300 298.5185 424.1903 516.8956 30695.9450 424.1903 516.8956
ENERGY: 300000 0.0074 0.7463 0.0000 0.0000 -10910.2093 1462.2260 0.0000 0.0000 1763.0901 -7684.1395 297.2286 -9447.2296 -7629.3528 295.3108 -147.1148 -137.2569 30387.0842 -198.6478 -129.4992
ENERGY: 600000 0.1656 1.2886 0.0000 0.0000 -10740.0505 1380.5656 0.0000 0.0000 1820.8828 -7537.1479 306.9715 -9358.0307 -7598.5927 299.5512 -391.5782 -326.6865 30648.5604 -254.9389 -186.6540
ENERGY: 900000 0.0024 0.8130 0.0000 0.0000 -10731.5650 1429.0036 0.0000 0.0000 1807.9195 -7493.8264 304.7861 -9301.7460 -7584.3451 300.4547 -99.4094 12.2128 31065.5499 -162.1348 -90.6854
ENERGY: 1200000 0.0929 1.3760 0.0000 0.0000 -10734.4529 1440.9779 0.0000 0.0000 1768.9246 -7523.0814 298.2122 -9292.0060 -7580.2584 300.2111 354.5528 371.1328 30467.9762 -85.8598 -13.9982
ENERGY: 1500000 0.0947 0.8553 0.0000 0.0000 -10782.5737 1443.5108 0.0000 0.0000 1701.1999 -7636.9130 286.7949 -9338.1129 -7594.1643 299.5906 -236.7486 -165.2804 30999.6646 -29.9547 39.3134
TCL: Running FEP window  11: Lambda1 0.4999999999999996 Lambda2 0.4499999999999996 [dLambda -0.04999999999999999]
TCL: Setting parameter firsttimestep to 0
TCL: Setting parameter alchLambda to 0.4999999999999996
Info: NONBONDED TABLE R-SQUARED SPACING: 0.0625
Info: NONBONDED TABLE SIZE: 705 POINTS
TCL: Setting parameter alchLambda2 to 0.4499999999999996
Info: NONBONDED TABLE R-SQUARED SPACING: 0.0625
Info: NONBONDED TABLE SIZE: 705 POINTS
TCL: Running for 1500000 steps
ETITLE: TS BOND ANGLE DIHED IMPRP ELECT VDW BOUNDARY MISC KINETIC TOTAL TEMP POTENTIAL TOTALAVG TEMPAVG PRESSURE GPRESSURE VOLUME PRESSAVG GPRESSAVG
ENERGY: 0 0.0947 0.8553 0.0000 0.0000 -10782.5949 1443.7858 0.0000 0.0000 1700.2772 -7637.5819 286.6393 -9337.8591 -7637.5819 286.6393 -254.5316 -165.5491 30999.6646 -254.5316 -165.5491
ENERGY: 300000 0.1208 1.2636 0.0000 0.0000 -10794.8568 1447.9430 0.0000 0.0000 1739.7217 -7605.8077 293.2890 -9345.5294 -7609.2877 294.3073 -123.4828 -22.4988 30812.4297 -293.4608 -187.3852
ENERGY: 600000 0.1835 1.5200 0.0000 0.0000 -10872.4672 1427.6858 0.0000 0.0000 1771.0101 -7672.0678 298.5638 -9443.0779 -7619.6914 296.4101 -376.8638 -317.5613 30759.9587 -316.2070 -220.7467
ENERGY: 900000 0.2012 3.0232 0.0000 0.0000 -10975.2772 1529.0597 0.0000 0.0000 1787.6055 -7655.3875 301.3615 -9442.9930 -7639.7061 295.5787 538.2583 603.8412 30294.2410 -134.9414 -49.1118
ENERGY: 1200000 0.0671 2.2777 0.0000 0.0000 -10866.4538 1495.3801 0.0000 0.0000 1794.4588 -7574.2700 302.5168 -9368.7288 -7633.9941 296.4367 150.8544 182.7230 31042.1035 -80.6498 -2.4868
ENERGY: 1500000 1.0948 0.8334 0.0000 0.0000 -10481.1510 1288.8077 0.0000 0.0000 1772.0155 -7418.3995 298.7333 -9190.4151 -7609.6204 297.0188 -783.5394 -782.2251 31113.4085 -62.7605 5.8288
TCL: Running FEP window  12: Lambda1 0.4499999999999996 Lambda2 0.39999999999999963 [dLambda -0.04999999999999999]
TCL: Setting parameter firsttimestep to 0
TCL: Setting parameter alchLambda to 0.4499999999999996
Info: NONBONDED TABLE R-SQUARED SPACING: 0.0625
Info: NONBONDED TABLE SIZE: 705 POINTS
TCL: Setting parameter alchLambda2 to 0.39999999999999963
Info: NONBONDED TABLE R-SQUARED SPACING: 0.0625
Info: NONBONDED TABLE SIZE: 705 POINTS
TCL: Running for 1500000 steps
ETITLE: TS BOND ANGLE DIHED IMPRP ELECT VDW BOUNDARY MISC KINETIC TOTAL TEMP POTENTIAL TOTALAVG TEMPAVG PRESSURE GPRESSURE VOLUME PRESSAVG GPRESSAVG
ENERGY: 0 1.0948 0.8334 0.0000 0.0000 -10481.1501 1288.9519 0.0000 0.0000 1771.1317 -7419.1383 298.5843 -9190.2700 -7419.1383 298.5843 -846.5799 -780.6793 31113.4085 -846.5799 -780.6793
ENERGY: 300000 0.1137 2.5651 0.0000 0.0000 -10849.2369 1417.5237 0.0000 0.0000 1855.8535 -7573.1809 312.8670 -9429.0344 -7578.3475 300.3114 -510.7667 -501.7551 31168.0385 -509.4075 -442.0946
ENERGY: 600000 0.3248 2.5336 0.0000 0.0000 -10865.4829 1462.3941 0.0000 0.0000 1807.9702 -7592.2603 304.7946 -9400.2305 -7612.2941 297.7054 44.2143 61.2599 30638.2915 -380.0628 -310.4956
ENERGY: 900000 0.0926 0.8591 0.0000 0.0000 -10803.0988 1432.5298 0.0000 0.0000 1766.5478 -7603.0694 297.8115 -9369.6173 -7600.0030 298.5937 -154.3870 -95.1019 30861.5217 -334.7315 -275.1289
ENERGY: 1200000 0.1097 1.3216 0.0000 0.0000 -10841.5428 1399.2120 0.0000 0.0000 1769.9809 -7670.9186 298.3903 -9440.8995 -7606.8454 298.8762 -514.7303 -449.5312 30409.1558 -354.2950 -293.5801
ENERGY: 1500000 1.0601 2.0960 0.0000 0.0000 -10939.5317 1472.0465 0.0000 0.0000 1762.6979 -7701.6313 297.1624 -9464.3291 -7613.7017 298.9680 -228.6809 -187.9311 30864.7378 -298.4945 -237.4487
TCL: Running FEP window  13: Lambda1 0.39999999999999963 Lambda2 0.34999999999999964 [dLambda -0.04999999999999999]
TCL: Setting parameter firsttimestep to 0
TCL: Setting parameter alchLambda to 0.39999999999999963
Info: NONBONDED TABLE R-SQUARED SPACING: 0.0625
Info: NONBONDED TABLE SIZE: 705 POINTS
TCL: Setting parameter alchLambda2 to 0.34999999999999964
Info: NONBONDED TABLE R-SQUARED SPACING: 0.0625
Info: NONBONDED TABLE SIZE: 705 POINTS
TCL: Running for 1500000 steps
ETITLE: TS BOND ANGLE DIHED IMPRP ELECT VDW BOUNDARY MISC KINETIC TOTAL TEMP POTENTIAL TOTALAVG TEMPAVG PRESSURE GPRESSURE VOLUME PRESSAVG GPRESSAVG
ENERGY: 0 1.0601 2.0960 0.0000 0.0000 -10939.5319 1472.2464 0.0000 0.0000 1761.7946 -7702.3348 297.0102 -9464.1294 -7702.3348 297.0102 -264.9896 -188.0181 30864.7378 -264.9896 -188.0181
ENERGY: 300000 0.1791 0.9892 0.0000 0.0000 -10917.1438 1488.2191 0.0000 0.0000 1799.9604 -7627.7961 303.4443 -9427.7565 -7652.3837 301.4060 164.0992 243.2140 30599.7213 105.6089 173.7640
ENERGY: 600000 0.0018 1.7660 0.0000 0.0000 -10884.2022 1464.2069 0.0000 0.0000 1791.4288 -7626.7986 302.0060 -9418.2274 -7643.4954 300.4229 57.0388 95.8191 30541.3943 19.9083 97.4372
ENERGY: 900000 0.0095 1.0095 0.0000 0.0000 -10822.8201 1438.5170 0.0000 0.0000 1761.5011 -7621.7830 296.9607 -9383.2841 -7630.4495 300.0420 -350.4970 -296.3408 30855.1551 -135.9747 -55.0831
ENERGY: 1200000 0.3982 3.8521 0.0000 0.0000 -10814.1094 1444.1623 0.0000 0.0000 1775.5724 -7590.1245 299.3329 -9365.6969 -7630.2076 300.8085 -178.7040 -84.4900 30800.9802 -27.2026 53.8158
ENERGY: 1500000 0.2588 1.2429 0.0000 0.0000 -10821.8433 1460.1140 0.0000 0.0000 1745.0433 -7615.1844 294.1862 -9360.2276 -7619.6795 300.4404 193.3555 278.4262 30337.1599 -46.2764 36.1318
TCL: Running FEP window  14: Lambda1 0.34999999999999964 Lambda2 0.29999999999999966 [dLambda -0.04999999999999999]
TCL: Setting parameter firsttimestep to 0
TCL: Setting parameter alchLambda to 0.34999999999999964
Info: NONBONDED TABLE R-SQUARED SPACING: 0.0625
Info: NONBONDED TABLE SIZE: 705 POINTS
TCL: Setting parameter alchLambda2 to 0.29999999999999966
Info: NONBONDED TABLE R-SQUARED SPACING: 0.0625
Info: NONBONDED TABLE SIZE: 705 POINTS
TCL: Running for 1500000 steps
ETITLE: TS BOND ANGLE DIHED IMPRP ELECT VDW BOUNDARY MISC KINETIC TOTAL TEMP POTENTIAL TOTALAVG TEMPAVG PRESSURE GPRESSURE VOLUME PRESSAVG GPRESSAVG
ENERGY: 0 0.2588 1.2429 0.0000 0.0000 -10821.8440 1460.1391 0.0000 0.0000 1744.1677 -7616.0356 294.0386 -9360.2033 -7616.0356 294.0386 178.2666 274.9909 30337.1599 178.2666 274.9909
ENERGY: 300000 0.8907 1.7904 0.0000 0.0000 -11004.7685 1615.7685 0.0000 0.0000 1805.2904 -7581.0285 304.3429 -9386.3189 -7609.5153 299.7995 1274.0723 1338.7268 30514.5568 356.7447 417.8009
ENERGY: 600000 1.0795 1.2300 0.0000 0.0000 -10875.8104 1447.5647 0.0000 0.0000 1745.5800 -7680.3562 294.2767 -9425.9362 -7639.3634 298.5335 -80.2287 -87.3700 30609.0103 193.0213 239.2905
ENERGY: 900000 0.1821 0.8591 0.0000 0.0000 -10720.6587 1455.6844 0.0000 0.0000 1811.7142 -7452.2189 305.4258 -9263.9331 -7600.0081 299.8535 219.0504 248.0507 31240.0612 215.2114 259.5925
ENERGY: 1200000 0.0002 2.1156 0.0000 0.0000 -10905.5665 1476.6056 0.0000 0.0000 1777.7256 -7649.1195 299.6959 -9426.8450 -7603.3534 299.2211 195.3336 220.2956 30618.0313 83.2474 126.4051
ENERGY: 1500000 0.0860 1.9865 0.0000 0.0000 -10752.0572 1376.9173 0.0000 0.0000 1766.0995 -7606.9679 297.7359 -9373.0674 -7604.2823 299.0249 -364.9259 -321.1316 30472.5707 -16.1276 29.8305
TCL: Running FEP window  15: Lambda1 0.29999999999999966 Lambda2 0.24999999999999967 [dLambda -0.04999999999999999]
TCL: Setting parameter firsttimestep to 0
TCL: Setting parameter alchLambda to 0.29999999999999966
Info: NONBONDED TABLE R-SQUARED SPACING: 0.0625
Info: NONBONDED TABLE SIZE: 705 POINTS
TCL: Setting parameter alchLambda2 to 0.24999999999999967
Info: NONBONDED TABLE R-SQUARED SPACING: 0.0625
Info: NONBONDED TABLE SIZE: 705 POINTS
TCL: Running for 1500000 steps
ETITLE: TS BOND ANGLE DIHED IMPRP ELECT VDW BOUNDARY MISC KINETIC TOTAL TEMP POTENTIAL TOTALAVG TEMPAVG PRESSURE GPRESSURE VOLUME PRESSAVG GPRESSAVG
ENERGY: 0 0.0860 1.9865 0.0000 0.0000 -10752.0569 1376.5016 0.0000 0.0000 1765.2204 -7608.2625 297.5877 -9373.4829 -7608.2625 297.5877 -420.8508 -324.5878 30472.5707 -420.8508 -324.5878
ENERGY: 300000 0.0003 1.9581 0.0000 0.0000 -10984.5968 1496.1257 0.0000 0.0000 1815.5059 -7671.0069 306.0650 -9486.5127 -7602.3237 302.4781 101.6171 193.0799 30368.2966 38.5438 100.7418
ENERGY: 600000 0.7233 3.5865 0.0000 0.0000 -10939.5988 1503.1202 0.0000 0.0000 1832.4468 -7599.7220 308.9210 -9432.1688 -7609.0480 301.6106 129.2596 179.5084 30801.9475 99.8265 153.1317
ENERGY: 900000 0.0227 2.4893 0.0000 0.0000 -10868.4796 1474.7088 0.0000 0.0000 1763.9263 -7627.3324 297.3696 -9391.2588 -7619.2037 300.6320 93.3228 211.3719 30611.0017 97.2482 154.1804
ENERGY: 1200000 0.2422 1.7063 0.0000 0.0000 -10960.2482 1523.9716 0.0000 0.0000 1788.7727 -7645.5554 301.5583 -9434.3282 -7621.5682 300.2043 222.3840 317.9799 30791.1011 36.0091 94.7345
ENERGY: 1500000 0.3740 1.6702 0.0000 0.0000 -11049.8141 1598.3369 0.0000 0.0000 1819.4035 -7630.0296 306.7221 -9449.4331 -7618.7803 300.5118 824.1725 942.9246 30391.6895 36.0095 98.6800
TCL: Running FEP window  16: Lambda1 0.24999999999999967 Lambda2 0.19999999999999968 [dLambda -0.04999999999999999]
TCL: Setting parameter firsttimestep to 0
TCL: Setting parameter alchLambda to 0.24999999999999967
Info: NONBONDED TABLE R-SQUARED SPACING: 0.0625
Info: NONBONDED TABLE SIZE: 705 POINTS
TCL: Setting parameter alchLambda2 to 0.19999999999999968
Info: NONBONDED TABLE R-SQUARED SPACING: 0.0625
Info: NONBONDED TABLE SIZE: 705 POINTS
TCL: Running for 1500000 steps
ETITLE: TS BOND ANGLE DIHED IMPRP ELECT VDW BOUNDARY MISC KINETIC TOTAL TEMP POTENTIAL TOTALAVG TEMPAVG PRESSURE GPRESSURE VOLUME PRESSAVG GPRESSAVG
ENERGY: 0 0.3740 1.6702 0.0000 0.0000 -11049.8124 1598.4374 0.0000 0.0000 1818.5228 -7630.8081 306.5736 -9449.3309 -7630.8081 306.5736 858.7922 941.2473 30391.6895 858.7922 941.2473
ENERGY: 300000 0.2774 0.3923 0.0000 0.0000 -10898.8077 1484.3555 0.0000 0.0000 1783.4181 -7630.3644 300.6556 -9413.7825 -7601.3287 304.6860 -272.6333 -262.5454 31338.1621 -23.7709 27.2716
ENERGY: 600000 0.1944 2.2753 0.0000 0.0000 -10776.9678 1395.1918 0.0000 0.0000 1783.4706 -7595.8358 300.6644 -9379.3063 -7591.1157 304.0166 -594.1027 -523.9883 30910.1125 -286.8119 -231.0014
ENERGY: 900000 0.2403 1.2156 0.0000 0.0000 -10682.8990 1386.4310 0.0000 0.0000 1796.3430 -7498.6691 302.8345 -9295.0121 -7581.7200 303.0742 -342.8748 -294.5535 30906.5422 -316.3066 -255.4401
ENERGY: 1200000 0.0626 1.9961 0.0000 0.0000 -10921.0337 1565.1532 0.0000 0.0000 1790.6361 -7563.1857 301.8724 -9353.8218 -7580.4872 302.3246 658.4177 697.1433 31022.8193 -244.1342 -183.7264
ENERGY: 1500000 0.5541 1.4385 0.0000 0.0000 -11008.3163 1502.7898 0.0000 0.0000 1765.9638 -7737.5702 297.7130 -9503.5340 -7596.1504 301.5323 61.7186 129.2862 30379.3327 -191.3685 -132.3033
TCL: Running FEP window  17: Lambda1 0.19999999999999968 Lambda2 0.1499999999999997 [dLambda -0.04999999999999999]
TCL: Setting parameter firsttimestep to 0
TCL: Setting parameter alchLambda to 0.19999999999999968
Info: NONBONDED TABLE R-SQUARED SPACING: 0.0625
Info: NONBONDED TABLE SIZE: 705 POINTS
TCL: Setting parameter alchLambda2 to 0.1499999999999997
Info: NONBONDED TABLE R-SQUARED SPACING: 0.0625
Info: NONBONDED TABLE SIZE: 705 POINTS
TCL: Running for 1500000 steps
ETITLE: TS BOND ANGLE DIHED IMPRP ELECT VDW BOUNDARY MISC KINETIC TOTAL TEMP POTENTIAL TOTALAVG TEMPAVG PRESSURE GPRESSURE VOLUME PRESSAVG GPRESSAVG
ENERGY: 0 0.5541 1.4385 0.0000 0.0000 -11008.3167 1502.8525 0.0000 0.0000 1765.0579 -7738.4138 297.5603 -9503.4716 -7738.4138 297.5603 18.6912 125.8080 30379.3327 18.6912 125.8080
ENERGY: 300000 0.1106 2.3796 0.0000 0.0000 -10772.8542 1409.4692 0.0000 0.0000 1779.0127 -7581.8821 299.9129 -9360.8949 -7678.0233 299.5279 -605.3999 -487.1858 31109.9552 -1.1841 82.6497
ENERGY: 600000 2.1678 1.8236 0.0000 0.0000 -10872.2429 1508.1658 0.0000 0.0000 1752.5192 -7607.5664 295.4465 -9360.0856 -7645.1551 298.5936 248.5101 326.1899 30637.4564 -5.0435 62.7334
ENERGY: 900000 0.2597 0.7167 0.0000 0.0000 -10683.8197 1373.8110 0.0000 0.0000 1798.7610 -7510.2714 303.2421 -9309.0324 -7613.4416 300.0986 -902.1076 -827.6893 31624.9360 -128.3609 -70.8222
ENERGY: 1200000 0.5848 1.7844 0.0000 0.0000 -10874.2902 1469.0180 0.0000 0.0000 1850.3065 -7552.5966 311.9318 -9402.9030 -7611.6719 301.0322 -162.6701 -141.3625 31148.0972 -108.2610 -55.1197
ENERGY: 1500000 0.4242 0.3872 0.0000 0.0000 -10749.5597 1411.7740 0.0000 0.0000 1802.7243 -7534.2500 303.9103 -9336.9743 -7607.8340 300.6546 -355.2767 -280.5678 30959.8500 -68.3466 -8.5807
TCL: Running FEP window  18: Lambda1 0.1499999999999997 Lambda2 0.09999999999999969 [dLambda -0.05 ]
TCL: Setting parameter firsttimestep to 0
TCL: Setting parameter alchLambda to 0.1499999999999997
Info: NONBONDED TABLE R-SQUARED SPACING: 0.0625
Info: NONBONDED TABLE SIZE: 705 POINTS
TCL: Setting parameter alchLambda2 to 0.09999999999999969
Info: NONBONDED TABLE R-SQUARED SPACING: 0.0625
Info: NONBONDED TABLE SIZE: 705 POINTS
TCL: Running for 1500000 steps
ETITLE: TS BOND ANGLE DIHED IMPRP ELECT VDW BOUNDARY MISC KINETIC TOTAL TEMP POTENTIAL TOTALAVG TEMPAVG PRESSURE GPRESSURE VOLUME PRESSAVG GPRESSAVG
ENERGY: 0 0.4242 0.3872 0.0000 0.0000 -10749.5604 1411.9748 0.0000 0.0000 1801.8272 -7534.9469 303.7590 -9336.7742 -7534.9469 303.7590 -337.0826 -282.0061 30959.8500 -337.0826 -282.0061
ENERGY: 300000 0.1765 2.2632 0.0000 0.0000 -10757.2123 1415.5154 0.0000 0.0000 1776.5290 -7562.7282 299.4942 -9339.2572 -7579.3266 300.6005 -437.8263 -407.5598 31113.2727 -200.5904 -149.1338
ENERGY: 600000 0.6076 1.5270 0.0000 0.0000 -10760.6883 1393.4695 0.0000 0.0000 1785.2645 -7579.8198 300.9668 -9365.0843 -7557.2946 302.2331 -412.5882 -331.3405 30788.2849 -99.6357 -44.4578
ENERGY: 900000 0.3535 2.8929 0.0000 0.0000 -10860.5370 1467.6420 0.0000 0.0000 1766.2787 -7623.3699 297.7661 -9389.6487 -7576.0010 300.9108 -149.8927 -72.8485 31153.8397 -20.1985 28.7627
ENERGY: 1200000 0.1178 2.1561 0.0000 0.0000 -10801.7478 1391.1541 0.0000 0.0000 1791.8201 -7616.4997 302.0720 -9408.3198 -7587.0873 300.2759 -541.2686 -505.5322 30780.5103 -90.1996 -38.7243
ENERGY: 1500000 0.6672 0.9333 0.0000 0.0000 -10866.2547 1457.3128 0.0000 0.0000 1795.9148 -7611.4266 302.7623 -9407.3414 -7593.2642 299.2450 91.6831 149.1774 30484.4582 -7.7186 45.1641
TCL: Running FEP window  19: Lambda1 0.09999999999999969 Lambda2 0.049999999999999684 [dLambda -0.05 ]
TCL: Setting parameter firsttimestep to 0
TCL: Setting parameter alchLambda to 0.09999999999999969
Info: NONBONDED TABLE R-SQUARED SPACING: 0.0625
Info: NONBONDED TABLE SIZE: 705 POINTS
TCL: Setting parameter alchLambda2 to 0.049999999999999684
Info: NONBONDED TABLE R-SQUARED SPACING: 0.0625
Info: NONBONDED TABLE SIZE: 705 POINTS
TCL: Running for 1500000 steps
ETITLE: TS BOND ANGLE DIHED IMPRP ELECT VDW BOUNDARY MISC KINETIC TOTAL TEMP POTENTIAL TOTALAVG TEMPAVG PRESSURE GPRESSURE VOLUME PRESSAVG GPRESSAVG
ENERGY: 0 0.6672 0.9333 0.0000 0.0000 -10866.2527 1457.3030 0.0000 0.0000 1795.0317 -7612.3175 302.6134 -9407.3492 -7612.3175 302.6134 67.0230 147.9995 30484.4582 67.0230 147.9995
ENERGY: 300000 0.0000 1.6149 0.0000 0.0000 -10680.7091 1431.8604 0.0000 0.0000 1772.8941 -7474.3397 298.8814 -9247.2339 -7568.0489 301.7615 70.1480 72.1306 30852.2990 -61.6977 -2.3762
ENERGY: 600000 0.0844 0.7404 0.0000 0.0000 -10763.2767 1429.2477 0.0000 0.0000 1787.7209 -7545.4832 301.3809 -9333.2041 -7573.7155 301.0761 52.2807 74.1904 30486.3886 -62.8045 -7.5097
ENERGY: 900000 0.1569 2.9317 0.0000 0.0000 -10831.6861 1419.8941 0.0000 0.0000 1817.9879 -7590.7155 306.4835 -9408.7034 -7584.4993 302.2833 -312.9976 -327.4275 30778.1463 -145.3076 -93.5638
ENERGY: 1200000 0.9559 2.4591 0.0000 0.0000 -10908.1954 1528.6304 0.0000 0.0000 1787.2551 -7588.8950 301.3024 -9376.1500 -7590.6827 302.9765 616.1486 649.7180 30493.2306 36.2209 88.4060
ENERGY: 1500000 0.8220 1.4675 0.0000 0.0000 -10861.8523 1425.7281 0.0000 0.0000 1774.2049 -7659.6298 299.1023 -9433.8347 -7603.6435 301.8965 -325.4592 -269.6380 30360.9805 54.0608 107.8810
TCL: Running FEP window  20: Lambda1 0.049999999999999684 Lambda2 0.0    [dLambda -0.049999999999999684]
TCL: Setting parameter firsttimestep to 0
TCL: Setting parameter alchLambda to 0.049999999999999684
Info: NONBONDED TABLE R-SQUARED SPACING: 0.0625
Info: NONBONDED TABLE SIZE: 705 POINTS
TCL: Setting parameter alchLambda2 to 0.0
Info: NONBONDED TABLE R-SQUARED SPACING: 0.0625
Info: NONBONDED TABLE SIZE: 705 POINTS
TCL: Running for 1500000 steps
ETITLE: TS BOND ANGLE DIHED IMPRP ELECT VDW BOUNDARY MISC KINETIC TOTAL TEMP POTENTIAL TOTALAVG TEMPAVG PRESSURE GPRESSURE VOLUME PRESSAVG GPRESSAVG
ENERGY: 0 0.8220 1.4675 0.0000 0.0000 -10861.8516 1425.4241 0.0000 0.0000 1773.3210 -7660.8169 298.9533 -9434.1379 -7660.8169 298.9533 -354.9545 -275.7412 30360.9805 -354.9545 -275.7412
ENERGY: 300000 0.0710 1.9191 0.0000 0.0000 -10884.8577 1493.0275 0.0000 0.0000 1803.9035 -7585.9367 304.1091 -9389.8402 -7605.7379 299.0026 334.6264 419.0337 30198.8764 63.8810 154.8375
ENERGY: 600000 0.0424 0.8022 0.0000 0.0000 -10812.5996 1438.8925 0.0000 0.0000 1804.3719 -7568.4906 304.1880 -9372.8625 -7616.6758 299.7324 -143.9882 -46.1769 30791.5633 56.7962 134.1112
ENERGY: 900000 0.0570 0.6242 0.0000 0.0000 -10882.6577 1463.1598 0.0000 0.0000 1814.2276 -7604.5891 305.8495 -9418.8166 -7613.7670 300.9498 161.7211 257.8537 30027.8543 111.1132 189.7163
ENERGY: 1200000 0.2851 1.5524 0.0000 0.0000 -10793.0059 1398.8791 0.0000 0.0000 1776.0489 -7616.2404 299.4132 -9392.2893 -7621.3574 300.3194 -591.4956 -535.8262 30876.0041 3.5692 73.4599
ENERGY: 1500000 0.1070 1.6305 0.0000 0.0000 -10898.9776 1512.5625 0.0000 0.0000 1796.4233 -7588.2543 302.8480 -9384.6776 -7623.8664 300.2896 180.4344 284.6629 31036.4010 21.0519 88.8881
TCL: Exiting due to exit command.
