Info: SIMULATION PARAMETERS:
Info: TIMESTEP               2
Info: NUMBER OF STEPS        0
Info: STEPS PER CYCLE        10
Info: PERIODIC CELL BASIS 1  33.998 0 0
Info: PERIODIC CELL BASIS 2  0 35.411 0
Info: PERIODIC CELL BASIS 3  0 0 36.199
Info: PERIODIC CELL CENTER   0 0 0
Info: WRAPPING WATERS AROUND PERIODIC BOUNDARIES ON OUTPUT.
Info: WRAPPING ALL CLUSTERS AROUND PERIODIC BOUNDARIES ON OUTPUT.
Info: FIRST LDB TIMESTEP     50
Info: LAST LDB TIMESTEP     -1
Info: HOM BACKGROUND SCALING 1
Info: PME BACKGROUND SCALING 1
Info: MIN ATOMS PER PATCH    40
Info: EMPTY PATCH LOAD       40 ATOMS
Info: INITIAL TEMPERATURE    300
Info: CENTER OF MASS MOVING INITIALLY? NO
Info: DIELECTRIC             1
Info: EXCLUDE                SCALED ONE-FOUR
Info: 1-4 ELECTROSTATICS SCALED BY 0.833333
Info: MODIFIED 1-4 VDW PARAMETERS WILL BE USED
Info: DCD FILENAME           mobley_2881590_equil.dcd
Info: DCD FREQUENCY          100000
Info: DCD FIRST STEP         100000
Info: DCD FILE WILL CONTAIN UNIT CELL DATA
Info: XST FILENAME           mobley_2881590_equil.xst
Info: XST FREQUENCY          100000
Info: NO VELOCITY DCD OUTPUT
Info: NO FORCE DCD OUTPUT
Info: OUTPUT FILENAME        mobley_2881590_equil
Info: BINARY OUTPUT FILES WILL BE USED
Info: RESTART FILENAME       mobley_2881590_equil.restart
Info: RESTART FREQUENCY      100000
Info: BINARY RESTART FILES WILL BE USED
Info: CUTOFF                 9
Info: PAIRLIST DISTANCE      11
Info: PAIRLIST SHRINK RATE   0.01
Info: PAIRLIST GROW RATE     0.01
Info: PAIRLIST TRIGGER       0.3
Info: PAIRLISTS PER CYCLE    2
Info: PAIRLISTS ENABLED
Info: MARGIN                 8
Info: HYDROGEN GROUP CUTOFF  2.5
Info: PATCH DIMENSION        21.5
Info: ENERGY OUTPUT STEPS    100000
Info: ENERGY EVALUATION STEPS    100000
Info: OUTPUT ENERGY PRECISION 4
Info: CROSSTERM ENERGY INCLUDED IN DIHEDRAL
Info: TIMING OUTPUT STEPS    1000000
Info: PRESSURE OUTPUT STEPS  100000
Info: LANGEVIN DYNAMICS ACTIVE
Info: LANGEVIN TEMPERATURE   30
Info: LANGEVIN USING BBK INTEGRATOR
Info: LANGEVIN DAMPING COEFFICIENT IS 1 INVERSE PS
Info: LANGEVIN DYNAMICS APPLIED TO HYDROGENS
Info: LANGEVIN PISTON PRESSURE CONTROL ACTIVE
Info:        TARGET PRESSURE IS 1.01325 BAR
Info:     OSCILLATION PERIOD IS 50 FS
Info:             DECAY TIME IS 25 FS
Info:     PISTON TEMPERATURE IS 300 K
Info:       PRESSURE CONTROL IS GROUP-BASED
Info:    INITIAL STRAIN RATE IS 0 0 0
Info:       CELL FLUCTUATION IS ISOTROPIC
Info: PARTICLE MESH EWALD (PME) ACTIVE
Info: PME TOLERANCE               1e-06
Info: PME EWALD COEFFICIENT       0.348832
Info: PME INTERPOLATION ORDER     4
Info: PME GRID DIMENSIONS         36 36 40
Info: PME MAXIMUM GRID SPACING    1
Info: FULL ELECTROSTATIC EVALUATION FREQUENCY      2
Info: USING VERLET I (r-RESPA) MTS SCHEME.
Info: C1 SPLITTING OF LONG RANGE ELECTROSTATICS
Info: PLACING ATOMS IN PATCHES BY HYDROGEN GROUPS
Info: RIGID BONDS TO HYDROGEN : ALL
Info:         ERROR TOLERANCE : 1e-08
Info:          MAX ITERATIONS : 100
Info: RIGID WATER USING SETTLE ALGORITHM
Info: RANDOM NUMBER SEED     1743249409
Info: USE HYDROGEN BONDS?    NO
Info: Using AMBER format force field!
Info: AMBER PARM FILE        mobley_2881590.prmtop
Info: COORDINATE PDB         mobley_2881590.pdb
Info: Exclusions will be read from PARM file!
Info: SCNB (VDW SCALING)     2
Info: USING ARITHMETIC MEAN TO COMBINE L-J SIGMA PARAMETERS
Info: BINARY COORDINATES     mobley_2881590_min.coor
Info: SUMMARY OF PARAMETERS:
Info: 8 BONDS
Info: 10 ANGLES
Info:   10 HARMONIC
Info:   0 COSINE-BASED
Info: 7 DIHEDRAL
Info: 0 IMPROPER
Info: 0 CROSSTERM
Info: 0 VDW
Info: 36 VDW_PAIRS
Info: 0 NBTHOLE_PAIRS
Info: STRUCTURE SUMMARY:
Info: 2963 ATOMS
Info: 2962 BONDS
Info: 28 ANGLES
Info: 33 DIHEDRALS
Info: 0 IMPROPERS
Info: 0 CROSSTERMS
Info: 3022 EXCLUSIONS
Info: 2955 RIGID BONDS
Info: 5934 DEGREES OF FREEDOM
Info: 990 HYDROGEN GROUPS
Info: 4 ATOMS IN LARGEST HYDROGEN GROUP
Info: 990 MIGRATION GROUPS
Info: 4 ATOMS IN LARGEST MIGRATION GROUP
Info: TOTAL MASS = 17810.8 amu
Info: TOTAL CHARGE = -0.000200003 e
Info: MASS DENSITY = 0.678665 g/cm^3
Info: ATOM DENSITY = 0.0679898 atoms/A^3
Info: ADDED 0 IMPLICIT EXCLUSIONS
Info: NONBONDED TABLE R-SQUARED SPACING: 0.0625
Info: NONBONDED TABLE SIZE: 705 POINTS
Info: REMOVING COM VELOCITY -0.195488 -0.0230575 -0.0864963
TCL: Running for 100000 steps
ETITLE: TS BOND ANGLE DIHED IMPRP ELECT VDW BOUNDARY MISC KINETIC TOTAL TEMP POTENTIAL TOTAL3 TEMPAVG PRESSURE GPRESSURE VOLUME PRESSAVG GPRESSAVG
ENERGY: 0 0.1562 0.9402 0.8184 0.0000 -13667.4334 2391.4697 0.0000 0.0000 1703.7857 -9570.2633 288.9734 -11274.0490 -9569.9622 288.9734 416.4252 456.6290 43580.0911 416.4252 456.6290
ENERGY: 100000 0.4230 1.7880 0.7481 0.0000 -14335.0625 2514.2864 0.0000 0.0000 177.0493 -11640.7676 30.0287 -11817.8170 -11640.3151 30.9185 174.7602 264.5055 28615.3127 5.4965 5.5097
TCL: Running 100000 steps at 60 kelvin.
TCL: Setting parameter langevinTemp to 60
TCL: Running for 100000 steps
ETITLE: TS BOND ANGLE DIHED IMPRP ELECT VDW BOUNDARY MISC KINETIC TOTAL TEMP POTENTIAL TOTAL3 TEMPAVG PRESSURE GPRESSURE VOLUME PRESSAVG GPRESSAVG
ENERGY: 100000 0.4230 1.7880 0.7481 0.0000 -14335.0625 2514.2864 0.0000 0.0000 176.9601 -11640.8569 30.0136 -11817.8170 -11640.4879 30.0136 201.1517 264.5316 28615.3127 201.1517 264.5316
ENERGY: 200000 0.7655 2.1783 0.7056 0.0000 -14162.9316 2418.9809 0.0000 0.0000 340.5957 -11399.7057 57.7673 -11740.3014 -11399.3024 60.1291 -123.0022 -78.7406 28355.0930 4.1921 4.2721
TCL: Running 100000 steps at 90 kelvin.
TCL: Setting parameter langevinTemp to 90
TCL: Running for 100000 steps
ETITLE: TS BOND ANGLE DIHED IMPRP ELECT VDW BOUNDARY MISC KINETIC TOTAL TEMP POTENTIAL TOTAL3 TEMPAVG PRESSURE GPRESSURE VOLUME PRESSAVG GPRESSAVG
ENERGY: 200000 0.7655 2.1783 0.7056 0.0000 -14162.9316 2418.9809 0.0000 0.0000 340.4189 -11399.8825 57.7373 -11740.3014 -11399.2162 57.7373 -132.8625 -79.0575 28355.0930 -132.8625 -79.0575
ENERGY: 300000 0.6130 3.3734 0.8836 0.0000 -14146.8942 2480.9558 0.0000 0.0000 526.0073 -11135.0611 89.2143 -11661.0684 -11134.0350 89.8569 788.3069 852.0021 28378.8948 3.0002 3.0843
TCL: Running 100000 steps at 120 kelvin.
TCL: Setting parameter langevinTemp to 120
TCL: Running for 100000 steps
ETITLE: TS BOND ANGLE DIHED IMPRP ELECT VDW BOUNDARY MISC KINETIC TOTAL TEMP POTENTIAL TOTAL3 TEMPAVG PRESSURE GPRESSURE VOLUME PRESSAVG GPRESSAVG
ENERGY: 300000 0.6130 3.3734 0.8836 0.0000 -14146.8942 2480.9558 0.0000 0.0000 525.7497 -11135.3187 89.1706 -11661.0684 -11134.1376 89.1706 793.3363 851.3417 28378.8948 793.3363 851.3417
ENERGY: 400000 1.3412 2.7418 1.4582 0.0000 -13781.0696 2308.2804 0.0000 0.0000 684.6465 -10782.6015 116.1206 -11467.2480 -10780.8142 119.8398 -251.8364 -222.6339 29156.6888 4.9001 4.9664
TCL: Running 100000 steps at 150 kelvin.
TCL: Setting parameter langevinTemp to 150
TCL: Running for 100000 steps
ETITLE: TS BOND ANGLE DIHED IMPRP ELECT VDW BOUNDARY MISC KINETIC TOTAL TEMP POTENTIAL TOTAL3 TEMPAVG PRESSURE GPRESSURE VOLUME PRESSAVG GPRESSAVG
ENERGY: 400000 1.3412 2.7418 1.4582 0.0000 -13781.0696 2308.2804 0.0000 0.0000 684.2875 -10782.9605 116.0597 -11467.2480 -10781.5439 116.0597 -266.8954 -222.4542 29156.6888 -266.8954 -222.4542
ENERGY: 500000 1.0120 4.5012 1.3704 0.0000 -13589.4384 2252.1464 0.0000 0.0000 888.2454 -10442.1630 150.6523 -11330.4083 -10438.7874 150.1448 -74.5117 -19.5531 28789.1465 4.0834 4.0433
TCL: Running 100000 steps at 180 kelvin.
TCL: Setting parameter langevinTemp to 180
TCL: Running for 100000 steps
ETITLE: TS BOND ANGLE DIHED IMPRP ELECT VDW BOUNDARY MISC KINETIC TOTAL TEMP POTENTIAL TOTAL3 TEMPAVG PRESSURE GPRESSURE VOLUME PRESSAVG GPRESSAVG
ENERGY: 500000 1.0120 4.5012 1.3704 0.0000 -13589.4384 2252.1464 0.0000 0.0000 887.7867 -10442.6216 150.5745 -11330.4083 -10440.8460 150.5745 -83.8657 -19.7078 28789.1465 -83.8657 -19.7078
ENERGY: 600000 2.1597 4.3288 1.9920 0.0000 -13119.1160 2113.3793 0.0000 0.0000 1079.9246 -9917.3316 183.1624 -10997.2562 -9915.7914 179.8879 -162.7058 -79.8041 29019.9902 3.2169 3.1362
TCL: Running 100000 steps at 210 kelvin.
TCL: Setting parameter langevinTemp to 210
TCL: Running for 100000 steps
ETITLE: TS BOND ANGLE DIHED IMPRP ELECT VDW BOUNDARY MISC KINETIC TOTAL TEMP POTENTIAL TOTAL3 TEMPAVG PRESSURE GPRESSURE VOLUME PRESSAVG GPRESSAVG
ENERGY: 600000 2.1597 4.3288 1.9920 0.0000 -13119.1160 2113.3793 0.0000 0.0000 1079.4276 -9917.8286 183.0781 -10997.2562 -9916.1249 183.0781 -140.4435 -80.2553 29019.9902 -140.4435 -80.2553
ENERGY: 700000 0.8321 4.8617 2.0551 0.0000 -12562.2241 1999.6571 0.0000 0.0000 1229.1688 -9325.6493 208.4752 -10554.8181 -9324.4493 210.0040 879.1638 946.2076 28655.3478 3.8862 3.7960
TCL: Running 100000 steps at 240 kelvin.
TCL: Setting parameter langevinTemp to 240
TCL: Running for 100000 steps
ETITLE: TS BOND ANGLE DIHED IMPRP ELECT VDW BOUNDARY MISC KINETIC TOTAL TEMP POTENTIAL TOTAL3 TEMPAVG PRESSURE GPRESSURE VOLUME PRESSAVG GPRESSAVG
ENERGY: 700000 0.8321 4.8617 2.0551 0.0000 -12562.2241 1999.6571 0.0000 0.0000 1228.5386 -9326.2795 208.3683 -10554.8181 -9324.6683 208.3683 860.3091 946.3055 28655.3478 860.3091 946.3055
ENERGY: 800000 3.2896 5.5434 1.9465 0.0000 -11828.7636 1743.5372 0.0000 0.0000 1460.7705 -8613.6764 247.7564 -10074.4468 -8609.5794 240.1182 278.4953 411.4394 29177.2629 3.6288 3.8289
TCL: Running 100000 steps at 270 kelvin.
TCL: Setting parameter langevinTemp to 270
TCL: Running for 100000 steps
ETITLE: TS BOND ANGLE DIHED IMPRP ELECT VDW BOUNDARY MISC KINETIC TOTAL TEMP POTENTIAL TOTAL3 TEMPAVG PRESSURE GPRESSURE VOLUME PRESSAVG GPRESSAVG
ENERGY: 800000 3.2896 5.5434 1.9465 0.0000 -11828.7636 1743.5372 0.0000 0.0000 1460.0326 -8614.4143 247.6312 -10074.4468 -8612.4839 247.6312 330.4096 411.6534 29177.2629 330.4096 411.6534
ENERGY: 900000 1.9149 5.3102 2.4282 0.0000 -11249.4302 1509.3922 0.0000 0.0000 1610.5911 -8119.7936 273.1669 -9730.3847 -8116.4742 269.9071 -617.6297 -530.3552 29562.8967 2.6477 2.6814
TCL: Running 1000000 steps at 300 kelvin.
TCL: Setting parameter langevinTemp to 300
TCL: Running for 1000000 steps
ETITLE: TS BOND ANGLE DIHED IMPRP ELECT VDW BOUNDARY MISC KINETIC TOTAL TEMP POTENTIAL TOTAL3 TEMPAVG PRESSURE GPRESSURE VOLUME PRESSAVG GPRESSAVG
ENERGY: 900000 1.9149 5.3102 2.4282 0.0000 -11249.4302 1509.3922 0.0000 0.0000 1609.8073 -8120.5774 273.0340 -9730.3847 -8117.8245 273.0340 -614.5742 -531.4187 29562.8967 -614.5742 -531.4187
ENERGY: 1100000 3.4485 6.5994 2.2303 0.0000 -10714.8111 1387.3879 0.0000 0.0000 1781.1675 -7533.9775 302.0978 -9315.1449 -7527.5487 300.6675 -793.5242 -654.1100 30744.6409 3.9029 3.8105
ENERGY: 1300000 1.7842 9.7965 1.2395 0.0000 -10548.8670 1375.7954 0.0000 0.0000 1802.9344 -7357.3169 305.7896 -9160.2513 -7352.5693 300.5665 -331.1182 -252.2897 30759.2697 3.5832 3.4847
ENERGY: 1500000 1.5711 10.1963 1.3847 0.0000 -10678.7573 1429.6525 0.0000 0.0000 1738.5815 -7497.3713 294.8750 -9235.9528 -7493.2774 300.4009 -103.5635 -13.3756 30794.1406 2.3638 2.4963
ENERGY: 1700000 0.6145 13.7707 1.9364 0.0000 -10641.5404 1386.6065 0.0000 0.0000 1773.4816 -7465.1308 300.7943 -9238.6124 -7458.0376 299.7552 -119.4787 -46.4058 30329.8990 3.4780 3.6160
ENERGY: 1900000 2.2685 12.8905 1.7219 0.0000 -10681.5424 1390.9335 0.0000 0.0000 1819.3381 -7454.3899 308.5718 -9273.7280 -7449.2756 299.9390 -484.3033 -415.3240 30708.1812 2.7802 3.0491
TCL: Exiting due to exit command.
