Info: SIMULATION PARAMETERS:
Info: TIMESTEP               2
Info: NUMBER OF STEPS        0
Info: STEPS PER CYCLE        10
Info: PERIODIC CELL BASIS 1  36.592 0 0
Info: PERIODIC CELL BASIS 2  0 31.785 0
Info: PERIODIC CELL BASIS 3  0 0 37.195
Info: PERIODIC CELL CENTER   0 0 0
Info: WRAPPING WATERS AROUND PERIODIC BOUNDARIES ON OUTPUT.
Info: WRAPPING ALL CLUSTERS AROUND PERIODIC BOUNDARIES ON OUTPUT.
Info: FIRST LDB TIMESTEP     50
Info: LAST LDB TIMESTEP     -1
Info: HOM BACKGROUND SCALING 1
Info: PME BACKGROUND SCALING 1
Info: MIN ATOMS PER PATCH    40
Info: EMPTY PATCH LOAD       40 ATOMS
Info: INITIAL TEMPERATURE    300
Info: CENTER OF MASS MOVING INITIALLY? NO
Info: DIELECTRIC             1
Info: EXCLUDE                SCALED ONE-FOUR
Info: 1-4 ELECTROSTATICS SCALED BY 0.833333
Info: MODIFIED 1-4 VDW PARAMETERS WILL BE USED
Info: DCD FILENAME           mobley_6201330_equil.dcd
Info: DCD FREQUENCY          100000
Info: DCD FIRST STEP         100000
Info: DCD FILE WILL CONTAIN UNIT CELL DATA
Info: XST FILENAME           mobley_6201330_equil.xst
Info: XST FREQUENCY          100000
Info: NO VELOCITY DCD OUTPUT
Info: NO FORCE DCD OUTPUT
Info: OUTPUT FILENAME        mobley_6201330_equil
Info: BINARY OUTPUT FILES WILL BE USED
Info: RESTART FILENAME       mobley_6201330_equil.restart
Info: RESTART FREQUENCY      100000
Info: BINARY RESTART FILES WILL BE USED
Info: CUTOFF                 9
Info: PAIRLIST DISTANCE      11
Info: PAIRLIST SHRINK RATE   0.01
Info: PAIRLIST GROW RATE     0.01
Info: PAIRLIST TRIGGER       0.3
Info: PAIRLISTS PER CYCLE    2
Info: PAIRLISTS ENABLED
Info: MARGIN                 8
Info: HYDROGEN GROUP CUTOFF  2.5
Info: PATCH DIMENSION        21.5
Info: ENERGY OUTPUT STEPS    100000
Info: ENERGY EVALUATION STEPS    100000
Info: OUTPUT ENERGY PRECISION 4
Info: CROSSTERM ENERGY INCLUDED IN DIHEDRAL
Info: TIMING OUTPUT STEPS    1000000
Info: PRESSURE OUTPUT STEPS  100000
Info: LANGEVIN DYNAMICS ACTIVE
Info: LANGEVIN TEMPERATURE   30
Info: LANGEVIN USING BBK INTEGRATOR
Info: LANGEVIN DAMPING COEFFICIENT IS 1 INVERSE PS
Info: LANGEVIN DYNAMICS APPLIED TO HYDROGENS
Info: LANGEVIN PISTON PRESSURE CONTROL ACTIVE
Info:        TARGET PRESSURE IS 1.01325 BAR
Info:     OSCILLATION PERIOD IS 50 FS
Info:             DECAY TIME IS 25 FS
Info:     PISTON TEMPERATURE IS 300 K
Info:       PRESSURE CONTROL IS GROUP-BASED
Info:    INITIAL STRAIN RATE IS 0 0 0
Info:       CELL FLUCTUATION IS ISOTROPIC
Info: PARTICLE MESH EWALD (PME) ACTIVE
Info: PME TOLERANCE               1e-06
Info: PME EWALD COEFFICIENT       0.348832
Info: PME INTERPOLATION ORDER     4
Info: PME GRID DIMENSIONS         40 32 40
Info: PME MAXIMUM GRID SPACING    1
Info: FULL ELECTROSTATIC EVALUATION FREQUENCY      2
Info: USING VERLET I (r-RESPA) MTS SCHEME.
Info: C1 SPLITTING OF LONG RANGE ELECTROSTATICS
Info: PLACING ATOMS IN PATCHES BY HYDROGEN GROUPS
Info: RIGID BONDS TO HYDROGEN : ALL
Info:         ERROR TOLERANCE : 1e-08
Info:          MAX ITERATIONS : 100
Info: RIGID WATER USING SETTLE ALGORITHM
Info: RANDOM NUMBER SEED     1743253058
Info: USE HYDROGEN BONDS?    NO
Info: Using AMBER format force field!
Info: AMBER PARM FILE        mobley_6201330.prmtop
Info: COORDINATE PDB         mobley_6201330.pdb
Info: Exclusions will be read from PARM file!
Info: SCNB (VDW SCALING)     2
Info: USING ARITHMETIC MEAN TO COMBINE L-J SIGMA PARAMETERS
Info: BINARY COORDINATES     mobley_6201330_min.coor
Info: SUMMARY OF PARAMETERS:
Info: 13 BONDS
Info: 16 ANGLES
Info:   16 HARMONIC
Info:   0 COSINE-BASED
Info: 14 DIHEDRAL
Info: 0 IMPROPER
Info: 0 CROSSTERM
Info: 0 VDW
Info: 55 VDW_PAIRS
Info: 0 NBTHOLE_PAIRS
Info: STRUCTURE SUMMARY:
Info: 2923 ATOMS
Info: 2923 BONDS
Info: 41 ANGLES
Info: 64 DIHEDRALS
Info: 0 IMPROPERS
Info: 0 CROSSTERMS
Info: 3014 EXCLUSIONS
Info: 2910 RIGID BONDS
Info: 5859 DEGREES OF FREEDOM
Info: 979 HYDROGEN GROUPS
Info: 4 ATOMS IN LARGEST HYDROGEN GROUP
Info: 979 MIGRATION GROUPS
Info: 4 ATOMS IN LARGEST MIGRATION GROUP
Info: TOTAL MASS = 17583.7 amu
Info: TOTAL CHARGE = 3.72529e-08 e
Info: MASS DENSITY = 0.674956 g/cm^3
Info: ATOM DENSITY = 0.0675672 atoms/A^3
Info: ADDED 0 IMPLICIT EXCLUSIONS
Info: NONBONDED TABLE R-SQUARED SPACING: 0.0625
Info: NONBONDED TABLE SIZE: 705 POINTS
Info: REMOVING COM VELOCITY -0.101504 0.126506 0.0771154
TCL: Running for 100000 steps
ETITLE: TS BOND ANGLE DIHED IMPRP ELECT VDW BOUNDARY MISC KINETIC TOTAL TEMP POTENTIAL TOTAL3 TEMPAVG PRESSURE GPRESSURE VOLUME PRESSAVG GPRESSAVG
ENERGY: 0 0.2891 0.3955 3.9463 0.0000 -13492.6664 2397.2876 0.0000 0.0000 1749.3230 -9341.4248 300.4948 -11090.7479 -9341.1009 300.4948 565.7243 593.6878 43260.6386 565.7243 593.6878
ENERGY: 100000 0.7028 1.7275 3.8946 0.0000 -14123.1668 2494.7936 0.0000 0.0000 173.1779 -11448.8704 29.7481 -11622.0483 -11448.1911 30.9870 486.2471 568.4691 28297.6230 3.2098 3.2635
TCL: Running 100000 steps at 60 kelvin.
TCL: Setting parameter langevinTemp to 60
TCL: Running for 100000 steps
ETITLE: TS BOND ANGLE DIHED IMPRP ELECT VDW BOUNDARY MISC KINETIC TOTAL TEMP POTENTIAL TOTAL3 TEMPAVG PRESSURE GPRESSURE VOLUME PRESSAVG GPRESSAVG
ENERGY: 100000 0.7028 1.7275 3.8946 0.0000 -14123.1668 2494.7936 0.0000 0.0000 173.0901 -11448.9581 29.7330 -11622.0483 -11448.5283 29.7330 502.9514 568.6077 28297.6230 502.9514 568.6077
ENERGY: 200000 2.2875 1.7949 4.7217 0.0000 -13765.3582 2224.4053 0.0000 0.0000 354.9298 -11177.2191 60.9690 -11532.1489 -11176.1510 59.9930 -1440.7887 -1401.0224 28357.9574 4.0855 4.1207
TCL: Running 100000 steps at 90 kelvin.
TCL: Setting parameter langevinTemp to 90
TCL: Running for 100000 steps
ETITLE: TS BOND ANGLE DIHED IMPRP ELECT VDW BOUNDARY MISC KINETIC TOTAL TEMP POTENTIAL TOTAL3 TEMPAVG PRESSURE GPRESSURE VOLUME PRESSAVG GPRESSAVG
ENERGY: 200000 2.2875 1.7949 4.7217 0.0000 -13765.3582 2224.4053 0.0000 0.0000 354.7576 -11177.3912 60.9395 -11532.1489 -11176.4881 60.9395 -1451.8622 -1401.5345 28357.9574 -1451.8622 -1401.5345
ENERGY: 300000 1.3001 3.1722 5.4363 0.0000 -13620.9900 2167.3651 0.0000 0.0000 515.1138 -10928.6025 88.4851 -11443.7163 -10927.0599 89.8040 -1472.7122 -1418.1050 28389.1813 4.5302 4.6585
TCL: Running 100000 steps at 120 kelvin.
TCL: Setting parameter langevinTemp to 120
TCL: Running for 100000 steps
ETITLE: TS BOND ANGLE DIHED IMPRP ELECT VDW BOUNDARY MISC KINETIC TOTAL TEMP POTENTIAL TOTAL3 TEMPAVG PRESSURE GPRESSURE VOLUME PRESSAVG GPRESSAVG
ENERGY: 300000 1.3001 3.1722 5.4363 0.0000 -13620.9900 2167.3651 0.0000 0.0000 514.8604 -10928.8559 88.4416 -11443.7163 -10927.4404 88.4416 -1467.2253 -1418.2918 28389.1813 -1467.2253 -1418.2918
ENERGY: 400000 2.0095 3.2117 4.8766 0.0000 -13548.6635 2198.4195 0.0000 0.0000 698.3287 -10641.8175 119.9573 -11340.1462 -10640.0341 119.9077 -815.3825 -806.5570 28364.2253 3.6625 3.7815
TCL: Running 100000 steps at 150 kelvin.
TCL: Setting parameter langevinTemp to 150
TCL: Running for 100000 steps
ETITLE: TS BOND ANGLE DIHED IMPRP ELECT VDW BOUNDARY MISC KINETIC TOTAL TEMP POTENTIAL TOTAL3 TEMPAVG PRESSURE GPRESSURE VOLUME PRESSAVG GPRESSAVG
ENERGY: 400000 2.0095 3.2117 4.8766 0.0000 -13548.6635 2198.4195 0.0000 0.0000 697.9975 -10642.1487 119.9004 -11340.1462 -10640.1561 119.9004 -842.7171 -806.9150 28364.2253 -842.7171 -806.9150
ENERGY: 500000 3.0661 2.6499 5.0379 0.0000 -13434.4807 2232.6560 0.0000 0.0000 892.1572 -10298.9136 153.2527 -11191.0708 -10296.3710 149.9790 -122.6288 -59.1699 28590.5297 3.5238 3.5583
TCL: Running 100000 steps at 180 kelvin.
TCL: Setting parameter langevinTemp to 180
TCL: Running for 100000 steps
ETITLE: TS BOND ANGLE DIHED IMPRP ELECT VDW BOUNDARY MISC KINETIC TOTAL TEMP POTENTIAL TOTAL3 TEMPAVG PRESSURE GPRESSURE VOLUME PRESSAVG GPRESSAVG
ENERGY: 500000 3.0661 2.6499 5.0379 0.0000 -13434.4807 2232.6560 0.0000 0.0000 891.7096 -10299.3612 153.1759 -11191.0708 -10297.4704 153.1759 -121.0309 -59.3397 28590.5297 -121.0309 -59.3397
ENERGY: 600000 6.1759 5.1179 7.5955 0.0000 -13044.4244 2152.1752 0.0000 0.0000 1032.8651 -9840.4949 177.4232 -10873.3599 -9839.4932 179.8846 495.9862 538.7032 28623.6734 4.6672 4.7091
TCL: Running 100000 steps at 210 kelvin.
TCL: Setting parameter langevinTemp to 210
TCL: Running for 100000 steps
ETITLE: TS BOND ANGLE DIHED IMPRP ELECT VDW BOUNDARY MISC KINETIC TOTAL TEMP POTENTIAL TOTAL3 TEMPAVG PRESSURE GPRESSURE VOLUME PRESSAVG GPRESSAVG
ENERGY: 600000 6.1759 5.1179 7.5955 0.0000 -13044.4244 2152.1752 0.0000 0.0000 1032.3633 -9840.9966 177.3370 -10873.3599 -9839.8650 177.3370 456.4132 537.6871 28623.6734 456.4132 537.6871
ENERGY: 700000 3.3536 6.0396 7.8935 0.0000 -12373.1611 1926.0934 0.0000 0.0000 1230.2172 -9199.5637 211.3239 -10429.7809 -9197.1674 209.9422 458.5296 521.9788 28172.6773 4.9104 4.8733
TCL: Running 100000 steps at 240 kelvin.
TCL: Setting parameter langevinTemp to 240
TCL: Running for 100000 steps
ETITLE: TS BOND ANGLE DIHED IMPRP ELECT VDW BOUNDARY MISC KINETIC TOTAL TEMP POTENTIAL TOTAL3 TEMPAVG PRESSURE GPRESSURE VOLUME PRESSAVG GPRESSAVG
ENERGY: 700000 3.3536 6.0396 7.8935 0.0000 -12373.1611 1926.0934 0.0000 0.0000 1229.5880 -9200.1930 211.2158 -10429.7809 -9197.9861 211.2158 456.3557 520.6928 28172.6773 456.3557 520.6928
ENERGY: 800000 4.3430 4.5143 4.0419 0.0000 -11573.7604 1616.4256 0.0000 0.0000 1420.8332 -8523.6024 244.0675 -9944.4356 -8521.6541 239.6241 -496.0298 -453.5517 28850.6867 3.4408 3.3521
TCL: Running 100000 steps at 270 kelvin.
TCL: Setting parameter langevinTemp to 270
TCL: Running for 100000 steps
ETITLE: TS BOND ANGLE DIHED IMPRP ELECT VDW BOUNDARY MISC KINETIC TOTAL TEMP POTENTIAL TOTAL3 TEMPAVG PRESSURE GPRESSURE VOLUME PRESSAVG GPRESSAVG
ENERGY: 800000 4.3430 4.5143 4.0419 0.0000 -11573.7604 1616.4256 0.0000 0.0000 1420.1350 -8524.3006 243.9476 -9944.4356 -8522.1990 243.9476 -523.0570 -453.5904 28850.6867 -523.0570 -453.5904
ENERGY: 900000 5.2518 7.4796 6.7367 0.0000 -11056.4172 1557.7222 0.0000 0.0000 1510.0827 -7969.1441 259.3986 -9479.2269 -7966.4697 270.1222 101.0160 143.8658 29725.1926 3.2269 3.1461
TCL: Running 1000000 steps at 300 kelvin.
TCL: Setting parameter langevinTemp to 300
TCL: Running for 1000000 steps
ETITLE: TS BOND ANGLE DIHED IMPRP ELECT VDW BOUNDARY MISC KINETIC TOTAL TEMP POTENTIAL TOTAL3 TEMPAVG PRESSURE GPRESSURE VOLUME PRESSAVG GPRESSAVG
ENERGY: 900000 5.2518 7.4796 6.7367 0.0000 -11056.4172 1557.7222 0.0000 0.0000 1509.2970 -7969.9298 259.2636 -9479.2269 -7966.8679 259.2636 63.6736 141.9702 29725.1926 63.6736 141.9702
ENERGY: 1100000 3.8492 9.1507 5.5837 0.0000 -10522.0495 1365.0137 0.0000 0.0000 1666.3084 -7472.1439 286.2347 -9138.4523 -7466.9288 299.9668 -547.2990 -484.0074 30046.5032 2.1380 2.4016
ENERGY: 1300000 6.1266 7.3021 6.1202 0.0000 -10562.9909 1420.7985 0.0000 0.0000 1749.0256 -7373.6178 300.4437 -9122.6434 -7370.3063 300.3449 -64.8938 10.3514 30282.1809 3.5156 3.7402
ENERGY: 1500000 1.6555 4.7641 9.7156 0.0000 -10574.1490 1406.1520 0.0000 0.0000 1720.4923 -7431.3696 295.5423 -9151.8618 -7427.3985 299.9976 -108.6676 -65.2713 30210.1535 2.4367 2.2126
ENERGY: 1700000 6.4297 5.6709 7.9019 0.0000 -10399.0819 1311.3362 0.0000 0.0000 1767.6750 -7300.0682 303.6472 -9067.7432 -7293.5736 300.8303 -698.9602 -588.7651 30305.2354 3.7535 3.8045
ENERGY: 1900000 3.9688 9.6054 3.7196 0.0000 -10632.9884 1424.6085 0.0000 0.0000 1755.7707 -7435.3155 301.6023 -9191.0861 -7428.6873 299.3197 -117.3017 -16.2767 29827.6749 2.6585 2.6496
TCL: Exiting due to exit command.
