Info: SIMULATION PARAMETERS:
Info: TIMESTEP               2
Info: NUMBER OF STEPS        0
Info: STEPS PER CYCLE        10
Info: PERIODIC CELL BASIS 1  34.986 0 0
Info: PERIODIC CELL BASIS 2  0 35.411 0
Info: PERIODIC CELL BASIS 3  0 0 35.723
Info: PERIODIC CELL CENTER   0 0 0
Info: WRAPPING WATERS AROUND PERIODIC BOUNDARIES ON OUTPUT.
Info: WRAPPING ALL CLUSTERS AROUND PERIODIC BOUNDARIES ON OUTPUT.
Info: FIRST LDB TIMESTEP     50
Info: LAST LDB TIMESTEP     -1
Info: HOM BACKGROUND SCALING 1
Info: PME BACKGROUND SCALING 1
Info: MIN ATOMS PER PATCH    40
Info: EMPTY PATCH LOAD       40 ATOMS
Info: INITIAL TEMPERATURE    300
Info: CENTER OF MASS MOVING INITIALLY? NO
Info: DIELECTRIC             1
Info: EXCLUDE                SCALED ONE-FOUR
Info: 1-4 ELECTROSTATICS SCALED BY 0.833333
Info: MODIFIED 1-4 VDW PARAMETERS WILL BE USED
Info: DCD FILENAME           mobley_3682850_equil.dcd
Info: DCD FREQUENCY          100000
Info: DCD FIRST STEP         100000
Info: DCD FILE WILL CONTAIN UNIT CELL DATA
Info: XST FILENAME           mobley_3682850_equil.xst
Info: XST FREQUENCY          100000
Info: NO VELOCITY DCD OUTPUT
Info: NO FORCE DCD OUTPUT
Info: OUTPUT FILENAME        mobley_3682850_equil
Info: BINARY OUTPUT FILES WILL BE USED
Info: RESTART FILENAME       mobley_3682850_equil.restart
Info: RESTART FREQUENCY      100000
Info: BINARY RESTART FILES WILL BE USED
Info: CUTOFF                 9
Info: PAIRLIST DISTANCE      11
Info: PAIRLIST SHRINK RATE   0.01
Info: PAIRLIST GROW RATE     0.01
Info: PAIRLIST TRIGGER       0.3
Info: PAIRLISTS PER CYCLE    2
Info: PAIRLISTS ENABLED
Info: MARGIN                 8
Info: HYDROGEN GROUP CUTOFF  2.5
Info: PATCH DIMENSION        21.5
Info: ENERGY OUTPUT STEPS    100000
Info: ENERGY EVALUATION STEPS    100000
Info: OUTPUT ENERGY PRECISION 4
Info: CROSSTERM ENERGY INCLUDED IN DIHEDRAL
Info: TIMING OUTPUT STEPS    1000000
Info: PRESSURE OUTPUT STEPS  100000
Info: LANGEVIN DYNAMICS ACTIVE
Info: LANGEVIN TEMPERATURE   30
Info: LANGEVIN USING BBK INTEGRATOR
Info: LANGEVIN DAMPING COEFFICIENT IS 1 INVERSE PS
Info: LANGEVIN DYNAMICS APPLIED TO HYDROGENS
Info: LANGEVIN PISTON PRESSURE CONTROL ACTIVE
Info:        TARGET PRESSURE IS 1.01325 BAR
Info:     OSCILLATION PERIOD IS 50 FS
Info:             DECAY TIME IS 25 FS
Info:     PISTON TEMPERATURE IS 300 K
Info:       PRESSURE CONTROL IS GROUP-BASED
Info:    INITIAL STRAIN RATE IS 0 0 0
Info:       CELL FLUCTUATION IS ISOTROPIC
Info: PARTICLE MESH EWALD (PME) ACTIVE
Info: PME TOLERANCE               1e-06
Info: PME EWALD COEFFICIENT       0.348832
Info: PME INTERPOLATION ORDER     4
Info: PME GRID DIMENSIONS         36 36 36
Info: PME MAXIMUM GRID SPACING    1
Info: FULL ELECTROSTATIC EVALUATION FREQUENCY      2
Info: USING VERLET I (r-RESPA) MTS SCHEME.
Info: C1 SPLITTING OF LONG RANGE ELECTROSTATICS
Info: PLACING ATOMS IN PATCHES BY HYDROGEN GROUPS
Info: RIGID BONDS TO HYDROGEN : ALL
Info:         ERROR TOLERANCE : 1e-08
Info:          MAX ITERATIONS : 100
Info: RIGID WATER USING SETTLE ALGORITHM
Info: RANDOM NUMBER SEED     1743213629
Info: USE HYDROGEN BONDS?    NO
Info: Using AMBER format force field!
Info: AMBER PARM FILE        mobley_3682850.prmtop
Info: COORDINATE PDB         mobley_3682850.pdb
Info: Exclusions will be read from PARM file!
Info: SCNB (VDW SCALING)     2
Info: USING ARITHMETIC MEAN TO COMBINE L-J SIGMA PARAMETERS
Info: BINARY COORDINATES     mobley_3682850_min.coor
Info: SUMMARY OF PARAMETERS:
Info: 6 BONDS
Info: 7 ANGLES
Info:   7 HARMONIC
Info:   0 COSINE-BASED
Info: 11 DIHEDRAL
Info: 0 IMPROPER
Info: 0 CROSSTERM
Info: 0 VDW
Info: 21 VDW_PAIRS
Info: 0 NBTHOLE_PAIRS
Info: STRUCTURE SUMMARY:
Info: 2936 ATOMS
Info: 2936 BONDS
Info: 33 ANGLES
Info: 61 DIHEDRALS
Info: 0 IMPROPERS
Info: 0 CROSSTERMS
Info: 3014 EXCLUSIONS
Info: 2929 RIGID BONDS
Info: 5879 DEGREES OF FREEDOM
Info: 980 HYDROGEN GROUPS
Info: 3 ATOMS IN LARGEST HYDROGEN GROUP
Info: 980 MIGRATION GROUPS
Info: 3 ATOMS IN LARGEST MIGRATION GROUP
Info: TOTAL MASS = 17627.7 amu
Info: TOTAL CHARGE = 0.000299945 e
Info: MASS DENSITY = 0.661416 g/cm^3
Info: ATOM DENSITY = 0.06634 atoms/A^3
Info: ADDED 0 IMPLICIT EXCLUSIONS
Info: NONBONDED TABLE R-SQUARED SPACING: 0.0625
Info: NONBONDED TABLE SIZE: 705 POINTS
Info: REMOVING COM VELOCITY 0.154533 -0.153502 0.0996008
TCL: Running for 100000 steps
ETITLE: TS BOND ANGLE DIHED IMPRP ELECT VDW BOUNDARY MISC KINETIC TOTAL TEMP POTENTIAL TOTAL3 TEMPAVG PRESSURE GPRESSURE VOLUME PRESSAVG GPRESSAVG
ENERGY: 0 0.1345 0.2216 5.1536 0.0000 -13605.2873 2422.9250 0.0000 0.0000 1728.7616 -9448.0910 295.9525 -11176.8526 -9447.7531 295.9525 538.7012 580.0047 44256.8405 538.7012 580.0047
ENERGY: 100000 0.5613 0.8090 5.2346 0.0000 -14119.6876 2408.0931 0.0000 0.0000 175.8825 -11529.1070 30.1099 -11704.9896 -11528.3961 30.9216 -289.6962 -244.8749 28070.1326 4.6400 4.6260
TCL: Running 100000 steps at 60 kelvin.
TCL: Setting parameter langevinTemp to 60
TCL: Running for 100000 steps
ETITLE: TS BOND ANGLE DIHED IMPRP ELECT VDW BOUNDARY MISC KINETIC TOTAL TEMP POTENTIAL TOTAL3 TEMPAVG PRESSURE GPRESSURE VOLUME PRESSAVG GPRESSAVG
ENERGY: 100000 0.5613 0.8090 5.2346 0.0000 -14119.6876 2408.0931 0.0000 0.0000 175.7933 -11529.1963 30.0946 -11704.9896 -11528.8682 30.0946 -290.4271 -244.5610 28070.1326 -290.4271 -244.5610
ENERGY: 200000 0.2281 1.0085 5.1383 0.0000 -14120.2688 2489.3657 0.0000 0.0000 351.5711 -11272.9572 60.1866 -11624.5283 -11272.3279 59.9430 809.9076 863.9543 27923.9498 5.7059 5.6330
TCL: Running 100000 steps at 90 kelvin.
TCL: Setting parameter langevinTemp to 90
TCL: Running for 100000 steps
ETITLE: TS BOND ANGLE DIHED IMPRP ELECT VDW BOUNDARY MISC KINETIC TOTAL TEMP POTENTIAL TOTAL3 TEMPAVG PRESSURE GPRESSURE VOLUME PRESSAVG GPRESSAVG
ENERGY: 200000 0.2281 1.0085 5.1383 0.0000 -14120.2688 2489.3657 0.0000 0.0000 351.3879 -11273.1404 60.1553 -11624.5283 -11272.4522 60.1553 809.5407 864.0104 27923.9498 809.5407 864.0104
ENERGY: 300000 1.0766 2.5346 5.1778 0.0000 -13778.3278 2251.1108 0.0000 0.0000 525.4533 -10992.9747 89.9541 -11518.4280 -10991.9029 90.0855 -923.7050 -861.1860 28222.7223 5.4038 5.2920
TCL: Running 100000 steps at 120 kelvin.
TCL: Setting parameter langevinTemp to 120
TCL: Running for 100000 steps
ETITLE: TS BOND ANGLE DIHED IMPRP ELECT VDW BOUNDARY MISC KINETIC TOTAL TEMP POTENTIAL TOTAL3 TEMPAVG PRESSURE GPRESSURE VOLUME PRESSAVG GPRESSAVG
ENERGY: 300000 1.0766 2.5346 5.1778 0.0000 -13778.3278 2251.1108 0.0000 0.0000 525.1927 -10993.2354 89.9095 -11518.4280 -10992.0757 89.9095 -922.2862 -861.7397 28222.7223 -922.2862 -861.7397
ENERGY: 400000 0.7158 2.3357 5.3173 0.0000 -13809.8830 2404.2191 0.0000 0.0000 704.4123 -10692.8828 120.5907 -11397.2951 -10690.7933 120.0609 735.9886 791.7071 28366.5820 3.4696 3.3648
TCL: Running 100000 steps at 150 kelvin.
TCL: Setting parameter langevinTemp to 150
TCL: Running for 100000 steps
ETITLE: TS BOND ANGLE DIHED IMPRP ELECT VDW BOUNDARY MISC KINETIC TOTAL TEMP POTENTIAL TOTAL3 TEMPAVG PRESSURE GPRESSURE VOLUME PRESSAVG GPRESSAVG
ENERGY: 400000 0.7158 2.3357 5.3173 0.0000 -13809.8830 2404.2191 0.0000 0.0000 704.0573 -10693.2378 120.5299 -11397.2951 -10691.8596 120.5299 738.1709 792.0735 28366.5820 738.1709 792.0735
ENERGY: 500000 0.7882 3.8374 5.5764 0.0000 -13461.1169 2234.6126 0.0000 0.0000 904.5426 -10311.7598 154.8517 -11216.3024 -10309.3572 149.8966 -81.0687 -8.5566 28802.7399 6.4341 6.4085
TCL: Running 100000 steps at 180 kelvin.
TCL: Setting parameter langevinTemp to 180
TCL: Running for 100000 steps
ETITLE: TS BOND ANGLE DIHED IMPRP ELECT VDW BOUNDARY MISC KINETIC TOTAL TEMP POTENTIAL TOTAL3 TEMPAVG PRESSURE GPRESSURE VOLUME PRESSAVG GPRESSAVG
ENERGY: 500000 0.7882 3.8374 5.5764 0.0000 -13461.1169 2234.6126 0.0000 0.0000 904.1343 -10312.1681 154.7818 -11216.3024 -10310.0919 154.7818 -52.4144 -8.2523 28802.7399 -52.4144 -8.2523
ENERGY: 600000 1.2032 5.7481 5.7733 0.0000 -12976.6171 2033.2315 0.0000 0.0000 1095.1041 -9835.5569 187.4745 -10930.6609 -9833.6702 179.7140 -789.6164 -700.8500 29058.8657 3.7201 3.9290
TCL: Running 100000 steps at 210 kelvin.
TCL: Setting parameter langevinTemp to 210
TCL: Running for 100000 steps
ETITLE: TS BOND ANGLE DIHED IMPRP ELECT VDW BOUNDARY MISC KINETIC TOTAL TEMP POTENTIAL TOTAL3 TEMPAVG PRESSURE GPRESSURE VOLUME PRESSAVG GPRESSAVG
ENERGY: 600000 1.2032 5.7481 5.7733 0.0000 -12976.6171 2033.2315 0.0000 0.0000 1094.5816 -9836.0793 187.3851 -10930.6609 -9833.7769 187.3851 -751.7335 -701.4299 29058.8657 -751.7335 -701.4299
ENERGY: 700000 1.3651 4.6712 5.7771 0.0000 -12301.2183 1845.7485 0.0000 0.0000 1204.1846 -9239.4718 206.1484 -10443.6564 -9237.0921 209.7684 -552.1762 -455.0816 28891.6549 2.5672 2.5774
TCL: Running 100000 steps at 240 kelvin.
TCL: Setting parameter langevinTemp to 240
TCL: Running for 100000 steps
ETITLE: TS BOND ANGLE DIHED IMPRP ELECT VDW BOUNDARY MISC KINETIC TOTAL TEMP POTENTIAL TOTAL3 TEMPAVG PRESSURE GPRESSURE VOLUME PRESSAVG GPRESSAVG
ENERGY: 700000 1.3651 4.6712 5.7771 0.0000 -12301.2183 1845.7485 0.0000 0.0000 1203.5885 -9240.0679 206.0464 -10443.6564 -9237.2786 206.0464 -532.6707 -455.7579 28891.6549 -532.6707 -455.7579
ENERGY: 800000 2.1245 6.4072 5.5161 0.0000 -11565.4879 1600.1076 0.0000 0.0000 1433.6842 -8517.6483 245.4372 -9951.3325 -8515.1500 239.9016 -677.3892 -646.3260 29152.0721 2.5856 2.3521
TCL: Running 100000 steps at 270 kelvin.
TCL: Setting parameter langevinTemp to 270
TCL: Running for 100000 steps
ETITLE: TS BOND ANGLE DIHED IMPRP ELECT VDW BOUNDARY MISC KINETIC TOTAL TEMP POTENTIAL TOTAL3 TEMPAVG PRESSURE GPRESSURE VOLUME PRESSAVG GPRESSAVG
ENERGY: 800000 2.1245 6.4072 5.5161 0.0000 -11565.4879 1600.1076 0.0000 0.0000 1432.9948 -8518.3377 245.3192 -9951.3325 -8516.2093 245.3192 -728.7450 -648.6062 29152.0721 -728.7450 -648.6062
ENERGY: 900000 1.0247 5.4270 6.1220 0.0000 -11258.1148 1589.7146 0.0000 0.0000 1545.6690 -8110.1574 264.6083 -9655.8264 -8106.9358 270.4011 -20.8615 82.7619 29584.4595 3.6741 3.6372
TCL: Running 1000000 steps at 300 kelvin.
TCL: Setting parameter langevinTemp to 300
TCL: Running for 1000000 steps
ETITLE: TS BOND ANGLE DIHED IMPRP ELECT VDW BOUNDARY MISC KINETIC TOTAL TEMP POTENTIAL TOTAL3 TEMPAVG PRESSURE GPRESSURE VOLUME PRESSAVG GPRESSAVG
ENERGY: 900000 1.0247 5.4270 6.1220 0.0000 -11258.1148 1589.7146 0.0000 0.0000 1544.9142 -8110.9122 264.4791 -9655.8264 -8108.2435 264.4791 1.5631 82.0561 29584.4595 1.5631 82.0561
ENERGY: 1100000 2.2914 5.8365 5.1733 0.0000 -10503.6806 1379.8843 0.0000 0.0000 1798.7481 -7311.7470 307.9337 -9110.4950 -7308.2511 300.3780 -435.0123 -315.7448 30663.4477 2.1277 2.1378
ENERGY: 1300000 2.7683 10.2019 5.6655 0.0000 -10762.0598 1499.5501 0.0000 0.0000 1708.2153 -7535.6587 292.4351 -9243.8740 -7532.2781 300.7260 585.3510 698.7057 29693.6445 3.1921 3.3265
ENERGY: 1500000 1.3106 5.1255 5.6045 0.0000 -10652.9208 1463.6207 0.0000 0.0000 1779.1748 -7398.0846 304.5829 -9177.2594 -7396.1380 300.3143 396.3547 445.9942 30166.0850 5.3856 5.4178
ENERGY: 1700000 2.4149 12.8913 6.1534 0.0000 -10605.9404 1404.2037 0.0000 0.0000 1736.0764 -7444.2008 297.2047 -9180.2771 -7440.1649 300.2502 -235.2159 -235.3509 30398.0026 4.1118 3.9249
ENERGY: 1900000 3.6819 7.3167 5.2301 0.0000 -10778.0980 1524.7715 0.0000 0.0000 1736.8650 -7500.2327 297.3398 -9237.0978 -7499.3576 300.8629 669.4734 775.1630 30166.0368 3.1682 3.1119
TCL: Exiting due to exit command.
