Info: SIMULATION PARAMETERS:
Info: TIMESTEP               2
Info: NUMBER OF STEPS        0
Info: STEPS PER CYCLE        10
Info: PERIODIC CELL BASIS 1  35.89 0 0
Info: PERIODIC CELL BASIS 2  0 33.404 0
Info: PERIODIC CELL BASIS 3  0 0 37.195
Info: PERIODIC CELL CENTER   0 0 0
Info: WRAPPING WATERS AROUND PERIODIC BOUNDARIES ON OUTPUT.
Info: WRAPPING ALL CLUSTERS AROUND PERIODIC BOUNDARIES ON OUTPUT.
Info: FIRST LDB TIMESTEP     50
Info: LAST LDB TIMESTEP     -1
Info: HOM BACKGROUND SCALING 1
Info: PME BACKGROUND SCALING 1
Info: MIN ATOMS PER PATCH    40
Info: EMPTY PATCH LOAD       40 ATOMS
Info: INITIAL TEMPERATURE    300
Info: CENTER OF MASS MOVING INITIALLY? NO
Info: DIELECTRIC             1
Info: EXCLUDE                SCALED ONE-FOUR
Info: 1-4 ELECTROSTATICS SCALED BY 0.833333
Info: MODIFIED 1-4 VDW PARAMETERS WILL BE USED
Info: DCD FILENAME           mobley_4845722_equil.dcd
Info: DCD FREQUENCY          100000
Info: DCD FIRST STEP         100000
Info: DCD FILE WILL CONTAIN UNIT CELL DATA
Info: XST FILENAME           mobley_4845722_equil.xst
Info: XST FREQUENCY          100000
Info: NO VELOCITY DCD OUTPUT
Info: NO FORCE DCD OUTPUT
Info: OUTPUT FILENAME        mobley_4845722_equil
Info: BINARY OUTPUT FILES WILL BE USED
Info: RESTART FILENAME       mobley_4845722_equil.restart
Info: RESTART FREQUENCY      100000
Info: BINARY RESTART FILES WILL BE USED
Info: CUTOFF                 9
Info: PAIRLIST DISTANCE      11
Info: PAIRLIST SHRINK RATE   0.01
Info: PAIRLIST GROW RATE     0.01
Info: PAIRLIST TRIGGER       0.3
Info: PAIRLISTS PER CYCLE    2
Info: PAIRLISTS ENABLED
Info: MARGIN                 8
Info: HYDROGEN GROUP CUTOFF  2.5
Info: PATCH DIMENSION        21.5
Info: ENERGY OUTPUT STEPS    100000
Info: ENERGY EVALUATION STEPS    100000
Info: OUTPUT ENERGY PRECISION 4
Info: CROSSTERM ENERGY INCLUDED IN DIHEDRAL
Info: TIMING OUTPUT STEPS    1000000
Info: PRESSURE OUTPUT STEPS  100000
Info: LANGEVIN DYNAMICS ACTIVE
Info: LANGEVIN TEMPERATURE   30
Info: LANGEVIN USING BBK INTEGRATOR
Info: LANGEVIN DAMPING COEFFICIENT IS 1 INVERSE PS
Info: LANGEVIN DYNAMICS APPLIED TO HYDROGENS
Info: LANGEVIN PISTON PRESSURE CONTROL ACTIVE
Info:        TARGET PRESSURE IS 1.01325 BAR
Info:     OSCILLATION PERIOD IS 50 FS
Info:             DECAY TIME IS 25 FS
Info:     PISTON TEMPERATURE IS 300 K
Info:       PRESSURE CONTROL IS GROUP-BASED
Info:    INITIAL STRAIN RATE IS 0 0 0
Info:       CELL FLUCTUATION IS ISOTROPIC
Info: PARTICLE MESH EWALD (PME) ACTIVE
Info: PME TOLERANCE               1e-06
Info: PME EWALD COEFFICIENT       0.348832
Info: PME INTERPOLATION ORDER     4
Info: PME GRID DIMENSIONS         36 36 40
Info: PME MAXIMUM GRID SPACING    1
Info: FULL ELECTROSTATIC EVALUATION FREQUENCY      2
Info: USING VERLET I (r-RESPA) MTS SCHEME.
Info: C1 SPLITTING OF LONG RANGE ELECTROSTATICS
Info: PLACING ATOMS IN PATCHES BY HYDROGEN GROUPS
Info: RIGID BONDS TO HYDROGEN : ALL
Info:         ERROR TOLERANCE : 1e-08
Info:          MAX ITERATIONS : 100
Info: RIGID WATER USING SETTLE ALGORITHM
Info: RANDOM NUMBER SEED     1743163399
Info: USE HYDROGEN BONDS?    NO
Info: Using AMBER format force field!
Info: AMBER PARM FILE        mobley_4845722.prmtop
Info: COORDINATE PDB         mobley_4845722.pdb
Info: Exclusions will be read from PARM file!
Info: SCNB (VDW SCALING)     2
Info: USING ARITHMETIC MEAN TO COMBINE L-J SIGMA PARAMETERS
Info: BINARY COORDINATES     mobley_4845722_min.coor
Info: SUMMARY OF PARAMETERS:
Info: 4 BONDS
Info: 2 ANGLES
Info:   2 HARMONIC
Info:   0 COSINE-BASED
Info: 2 DIHEDRAL
Info: 0 IMPROPER
Info: 0 CROSSTERM
Info: 0 VDW
Info: 10 VDW_PAIRS
Info: 0 NBTHOLE_PAIRS
Info: STRUCTURE SUMMARY:
Info: 2976 ATOMS
Info: 2976 BONDS
Info: 18 ANGLES
Info: 30 DIHEDRALS
Info: 0 IMPROPERS
Info: 0 CROSSTERMS
Info: 3015 EXCLUSIONS
Info: 2964 RIGID BONDS
Info: 5964 DEGREES OF FREEDOM
Info: 1000 HYDROGEN GROUPS
Info: 3 ATOMS IN LARGEST HYDROGEN GROUP
Info: 1000 MIGRATION GROUPS
Info: 3 ATOMS IN LARGEST MIGRATION GROUP
Info: TOTAL MASS = 18084.6 amu
Info: TOTAL CHARGE = -9.99998e-05 e
Info: MASS DENSITY = 0.673459 g/cm^3
Info: ATOM DENSITY = 0.0667385 atoms/A^3
Info: ADDED 0 IMPLICIT EXCLUSIONS
Info: NONBONDED TABLE R-SQUARED SPACING: 0.0625
Info: NONBONDED TABLE SIZE: 705 POINTS
Info: REMOVING COM VELOCITY -0.0271617 0.0356089 -0.0156056
TCL: Running for 100000 steps
ETITLE: TS BOND ANGLE DIHED IMPRP ELECT VDW BOUNDARY MISC KINETIC TOTAL TEMP POTENTIAL TOTAL3 TEMPAVG PRESSURE GPRESSURE VOLUME PRESSAVG GPRESSAVG
ENERGY: 0 0.3949 0.0797 0.0132 0.0000 -13738.9614 2421.7002 0.0000 0.0000 1751.0002 -9565.7731 295.4874 -11316.7734 -9565.3882 295.4874 585.4350 620.5282 44591.9533 585.4350 620.5282
ENERGY: 100000 0.4513 0.4057 0.3351 0.0000 -14500.3416 2620.9013 0.0000 0.0000 183.9728 -11694.2754 31.0461 -11878.2482 -11693.3765 30.9059 1413.2182 1463.9336 28341.0548 4.1111 4.1483
TCL: Running 100000 steps at 60 kelvin.
TCL: Setting parameter langevinTemp to 60
TCL: Running for 100000 steps
ETITLE: TS BOND ANGLE DIHED IMPRP ELECT VDW BOUNDARY MISC KINETIC TOTAL TEMP POTENTIAL TOTAL3 TEMPAVG PRESSURE GPRESSURE VOLUME PRESSAVG GPRESSAVG
ENERGY: 100000 0.4513 0.4057 0.3351 0.0000 -14500.3416 2620.9013 0.0000 0.0000 183.8847 -11694.3635 31.0312 -11878.2482 -11694.0361 31.0312 1412.4110 1464.1306 28341.0548 1412.4110 1464.1306
ENERGY: 200000 1.8397 0.6610 0.3752 0.0000 -14148.0988 2357.4755 0.0000 0.0000 345.9281 -11441.8194 58.3766 -11787.7475 -11440.6845 59.8596 -836.0421 -770.8067 28893.6565 4.1404 4.0866
TCL: Running 100000 steps at 90 kelvin.
TCL: Setting parameter langevinTemp to 90
TCL: Running for 100000 steps
ETITLE: TS BOND ANGLE DIHED IMPRP ELECT VDW BOUNDARY MISC KINETIC TOTAL TEMP POTENTIAL TOTAL3 TEMPAVG PRESSURE GPRESSURE VOLUME PRESSAVG GPRESSAVG
ENERGY: 200000 1.8397 0.6610 0.3752 0.0000 -14148.0988 2357.4755 0.0000 0.0000 345.7518 -11441.9957 58.3468 -11787.7475 -11441.2386 58.3468 -828.8956 -771.1195 28893.6565 -828.8956 -771.1195
ENERGY: 300000 1.5291 0.8889 0.8783 0.0000 -14147.9154 2478.0045 0.0000 0.0000 518.9639 -11147.6506 87.5770 -11666.6146 -11146.4231 89.7451 699.8877 747.3482 28698.1460 3.2847 3.3253
TCL: Running 100000 steps at 120 kelvin.
TCL: Setting parameter langevinTemp to 120
TCL: Running for 100000 steps
ETITLE: TS BOND ANGLE DIHED IMPRP ELECT VDW BOUNDARY MISC KINETIC TOTAL TEMP POTENTIAL TOTAL3 TEMPAVG PRESSURE GPRESSURE VOLUME PRESSAVG GPRESSAVG
ENERGY: 300000 1.5291 0.8889 0.8783 0.0000 -14147.9154 2478.0045 0.0000 0.0000 518.7070 -11147.9076 87.5336 -11666.6146 -11146.9148 87.5336 690.5656 747.4645 28698.1460 690.5656 747.4645
ENERGY: 400000 3.5841 1.5702 1.0598 0.0000 -14071.8989 2519.7217 0.0000 0.0000 696.0543 -10849.9087 117.4616 -11545.9631 -10847.8512 120.0111 1421.2473 1460.0714 28910.7616 4.7346 4.6605
TCL: Running 100000 steps at 150 kelvin.
TCL: Setting parameter langevinTemp to 150
TCL: Running for 100000 steps
ETITLE: TS BOND ANGLE DIHED IMPRP ELECT VDW BOUNDARY MISC KINETIC TOTAL TEMP POTENTIAL TOTAL3 TEMPAVG PRESSURE GPRESSURE VOLUME PRESSAVG GPRESSAVG
ENERGY: 400000 3.5841 1.5702 1.0598 0.0000 -14071.8989 2519.7217 0.0000 0.0000 695.7029 -10850.2601 117.4023 -11545.9631 -10848.9427 117.4023 1418.9054 1460.5757 28910.7616 1418.9054 1460.5757
ENERGY: 500000 2.1229 1.4362 1.4326 0.0000 -13626.1934 2245.5772 0.0000 0.0000 883.3974 -10492.2272 149.0764 -11375.6246 -10490.0974 149.7346 -249.6527 -217.6517 29440.2640 3.8354 3.8548
TCL: Running 100000 steps at 180 kelvin.
TCL: Setting parameter langevinTemp to 180
TCL: Running for 100000 steps
ETITLE: TS BOND ANGLE DIHED IMPRP ELECT VDW BOUNDARY MISC KINETIC TOTAL TEMP POTENTIAL TOTAL3 TEMPAVG PRESSURE GPRESSURE VOLUME PRESSAVG GPRESSAVG
ENERGY: 500000 2.1229 1.4362 1.4326 0.0000 -13626.1934 2245.5772 0.0000 0.0000 882.9647 -10492.6599 149.0034 -11375.6246 -10490.7109 149.0034 -272.3316 -218.2993 29440.2640 -272.3316 -218.2993
ENERGY: 600000 1.3125 0.9664 2.4380 0.0000 -13287.1135 2167.0150 0.0000 0.0000 1066.2002 -10049.1815 179.9250 -11115.3817 -10048.3244 179.8271 308.9401 345.6066 28925.8189 5.2492 5.2315
TCL: Running 100000 steps at 210 kelvin.
TCL: Setting parameter langevinTemp to 210
TCL: Running for 100000 steps
ETITLE: TS BOND ANGLE DIHED IMPRP ELECT VDW BOUNDARY MISC KINETIC TOTAL TEMP POTENTIAL TOTAL3 TEMPAVG PRESSURE GPRESSURE VOLUME PRESSAVG GPRESSAVG
ENERGY: 600000 1.3125 0.9664 2.4380 0.0000 -13287.1135 2167.0150 0.0000 0.0000 1065.6487 -10049.7330 179.8319 -11115.3817 -10047.6383 179.8319 285.0140 344.7695 28925.8189 285.0140 344.7695
ENERGY: 700000 3.2561 1.0815 1.8788 0.0000 -12580.6215 1944.4223 0.0000 0.0000 1247.0349 -9382.9479 210.4415 -10629.9828 -9378.7378 209.5068 203.2940 282.2349 28976.7174 3.6878 3.6064
TCL: Running 100000 steps at 240 kelvin.
TCL: Setting parameter langevinTemp to 240
TCL: Running for 100000 steps
ETITLE: TS BOND ANGLE DIHED IMPRP ELECT VDW BOUNDARY MISC KINETIC TOTAL TEMP POTENTIAL TOTAL3 TEMPAVG PRESSURE GPRESSURE VOLUME PRESSAVG GPRESSAVG
ENERGY: 700000 3.2561 1.0815 1.8788 0.0000 -12580.6215 1944.4223 0.0000 0.0000 1246.4361 -9383.5467 210.3404 -10629.9828 -9381.0824 210.3404 216.7360 283.5028 28976.7174 216.7360 283.5028
ENERGY: 800000 4.4228 2.3821 2.8607 0.0000 -11823.1975 1688.5245 0.0000 0.0000 1421.8640 -8703.1433 239.9445 -10125.0073 -8700.2973 239.4507 -123.7107 -97.5460 29251.6895 3.6684 3.5514
TCL: Running 100000 steps at 270 kelvin.
TCL: Setting parameter langevinTemp to 270
TCL: Running for 100000 steps
ETITLE: TS BOND ANGLE DIHED IMPRP ELECT VDW BOUNDARY MISC KINETIC TOTAL TEMP POTENTIAL TOTAL3 TEMPAVG PRESSURE GPRESSURE VOLUME PRESSAVG GPRESSAVG
ENERGY: 800000 4.4228 2.3821 2.8607 0.0000 -11823.1975 1688.5245 0.0000 0.0000 1421.1416 -8703.8658 239.8226 -10125.0073 -8702.3696 239.8226 -181.0814 -96.9804 29251.6895 -181.0814 -96.9804
ENERGY: 900000 2.0540 1.0367 2.1201 0.0000 -11446.6961 1653.5639 0.0000 0.0000 1610.4786 -8177.4428 271.7739 -9787.9214 -8175.1282 269.8577 604.9325 704.2062 29827.2924 2.4771 2.3730
TCL: Running 1000000 steps at 300 kelvin.
TCL: Setting parameter langevinTemp to 300
TCL: Running for 1000000 steps
ETITLE: TS BOND ANGLE DIHED IMPRP ELECT VDW BOUNDARY MISC KINETIC TOTAL TEMP POTENTIAL TOTAL3 TEMPAVG PRESSURE GPRESSURE VOLUME PRESSAVG GPRESSAVG
ENERGY: 900000 2.0540 1.0367 2.1201 0.0000 -11446.6961 1653.5639 0.0000 0.0000 1609.6826 -8178.2388 271.6395 -9787.9214 -8175.1530 271.6395 621.8717 704.7501 29827.2924 621.8717 704.7501
ENERGY: 1100000 3.8486 2.3802 4.2273 0.0000 -10878.3625 1513.6286 0.0000 0.0000 1725.6767 -7628.6011 291.2140 -9354.2778 -7626.4976 300.5664 535.7434 638.5228 30320.6399 3.7644 3.7495
ENERGY: 1300000 2.6494 1.4429 1.5652 0.0000 -10745.1202 1413.5802 0.0000 0.0000 1763.9411 -7561.9413 297.6712 -9325.8824 -7559.8451 300.1498 -247.5476 -142.9920 30938.6904 2.9776 2.7593
ENERGY: 1500000 4.1778 1.6508 3.5634 0.0000 -10732.1065 1472.8966 0.0000 0.0000 1798.8908 -7450.9271 303.5691 -9249.8179 -7447.0833 300.4055 261.5625 286.7048 30772.2515 3.1286 2.9640
ENERGY: 1700000 7.1457 1.5907 2.3488 0.0000 -10804.1188 1421.2105 0.0000 0.0000 1745.7296 -7626.0935 294.5980 -9371.8231 -7625.8027 300.6182 -507.2668 -476.8817 30811.1152 3.3718 3.3380
ENERGY: 1900000 2.5929 2.3867 7.6946 0.0000 -10935.3060 1525.5037 0.0000 0.0000 1738.3517 -7658.7765 293.3529 -9397.1281 -7657.6526 300.5342 446.1360 466.1814 30650.1908 3.8369 3.7957
TCL: Exiting due to exit command.
