Info: SIMULATION PARAMETERS:
Info: TIMESTEP               2
Info: NUMBER OF STEPS        0
Info: STEPS PER CYCLE        10
Info: PERIODIC CELL BASIS 1  32.955 0 0
Info: PERIODIC CELL BASIS 2  0 35.267 0
Info: PERIODIC CELL BASIS 3  0 0 37.195
Info: PERIODIC CELL CENTER   0 0 0
Info: WRAPPING WATERS AROUND PERIODIC BOUNDARIES ON OUTPUT.
Info: WRAPPING ALL CLUSTERS AROUND PERIODIC BOUNDARIES ON OUTPUT.
Info: FIRST LDB TIMESTEP     50
Info: LAST LDB TIMESTEP     -1
Info: HOM BACKGROUND SCALING 1
Info: PME BACKGROUND SCALING 1
Info: MIN ATOMS PER PATCH    40
Info: EMPTY PATCH LOAD       40 ATOMS
Info: INITIAL TEMPERATURE    300
Info: CENTER OF MASS MOVING INITIALLY? NO
Info: DIELECTRIC             1
Info: EXCLUDE                SCALED ONE-FOUR
Info: 1-4 ELECTROSTATICS SCALED BY 0.833333
Info: MODIFIED 1-4 VDW PARAMETERS WILL BE USED
Info: DCD FILENAME           mobley_1735893_equil.dcd
Info: DCD FREQUENCY          100000
Info: DCD FIRST STEP         100000
Info: DCD FILE WILL CONTAIN UNIT CELL DATA
Info: XST FILENAME           mobley_1735893_equil.xst
Info: XST FREQUENCY          100000
Info: NO VELOCITY DCD OUTPUT
Info: NO FORCE DCD OUTPUT
Info: OUTPUT FILENAME        mobley_1735893_equil
Info: BINARY OUTPUT FILES WILL BE USED
Info: RESTART FILENAME       mobley_1735893_equil.restart
Info: RESTART FREQUENCY      100000
Info: BINARY RESTART FILES WILL BE USED
Info: CUTOFF                 9
Info: PAIRLIST DISTANCE      11
Info: PAIRLIST SHRINK RATE   0.01
Info: PAIRLIST GROW RATE     0.01
Info: PAIRLIST TRIGGER       0.3
Info: PAIRLISTS PER CYCLE    2
Info: PAIRLISTS ENABLED
Info: MARGIN                 8
Info: HYDROGEN GROUP CUTOFF  2.5
Info: PATCH DIMENSION        21.5
Info: ENERGY OUTPUT STEPS    100000
Info: ENERGY EVALUATION STEPS    100000
Info: OUTPUT ENERGY PRECISION 4
Info: CROSSTERM ENERGY INCLUDED IN DIHEDRAL
Info: TIMING OUTPUT STEPS    1000000
Info: PRESSURE OUTPUT STEPS  100000
Info: LANGEVIN DYNAMICS ACTIVE
Info: LANGEVIN TEMPERATURE   30
Info: LANGEVIN USING BBK INTEGRATOR
Info: LANGEVIN DAMPING COEFFICIENT IS 1 INVERSE PS
Info: LANGEVIN DYNAMICS APPLIED TO HYDROGENS
Info: LANGEVIN PISTON PRESSURE CONTROL ACTIVE
Info:        TARGET PRESSURE IS 1.01325 BAR
Info:     OSCILLATION PERIOD IS 50 FS
Info:             DECAY TIME IS 25 FS
Info:     PISTON TEMPERATURE IS 300 K
Info:       PRESSURE CONTROL IS GROUP-BASED
Info:    INITIAL STRAIN RATE IS 0 0 0
Info:       CELL FLUCTUATION IS ISOTROPIC
Info: PARTICLE MESH EWALD (PME) ACTIVE
Info: PME TOLERANCE               1e-06
Info: PME EWALD COEFFICIENT       0.348832
Info: PME INTERPOLATION ORDER     4
Info: PME GRID DIMENSIONS         36 36 40
Info: PME MAXIMUM GRID SPACING    1
Info: FULL ELECTROSTATIC EVALUATION FREQUENCY      2
Info: USING VERLET I (r-RESPA) MTS SCHEME.
Info: C1 SPLITTING OF LONG RANGE ELECTROSTATICS
Info: PLACING ATOMS IN PATCHES BY HYDROGEN GROUPS
Info: RIGID BONDS TO HYDROGEN : ALL
Info:         ERROR TOLERANCE : 1e-08
Info:          MAX ITERATIONS : 100
Info: RIGID WATER USING SETTLE ALGORITHM
Info: RANDOM NUMBER SEED     1743255073
Info: USE HYDROGEN BONDS?    NO
Info: Using AMBER format force field!
Info: AMBER PARM FILE        mobley_1735893.prmtop
Info: COORDINATE PDB         mobley_1735893.pdb
Info: Exclusions will be read from PARM file!
Info: SCNB (VDW SCALING)     2
Info: USING ARITHMETIC MEAN TO COMBINE L-J SIGMA PARAMETERS
Info: BINARY COORDINATES     mobley_1735893_min.coor
Info: SUMMARY OF PARAMETERS:
Info: 8 BONDS
Info: 9 ANGLES
Info:   9 HARMONIC
Info:   0 COSINE-BASED
Info: 13 DIHEDRAL
Info: 0 IMPROPER
Info: 0 CROSSTERM
Info: 0 VDW
Info: 28 VDW_PAIRS
Info: 0 NBTHOLE_PAIRS
Info: STRUCTURE SUMMARY:
Info: 2984 ATOMS
Info: 2983 BONDS
Info: 34 ANGLES
Info: 54 DIHEDRALS
Info: 0 IMPROPERS
Info: 0 CROSSTERMS
Info: 3061 EXCLUSIONS
Info: 2976 RIGID BONDS
Info: 5976 DEGREES OF FREEDOM
Info: 996 HYDROGEN GROUPS
Info: 4 ATOMS IN LARGEST HYDROGEN GROUP
Info: 996 MIGRATION GROUPS
Info: 4 ATOMS IN LARGEST MIGRATION GROUP
Info: TOTAL MASS = 17916 amu
Info: TOTAL CHARGE = 5.21541e-08 e
Info: MASS DENSITY = 0.688216 g/cm^3
Info: ATOM DENSITY = 0.0690279 atoms/A^3
Info: ADDED 0 IMPLICIT EXCLUSIONS
Info: NONBONDED TABLE R-SQUARED SPACING: 0.0625
Info: NONBONDED TABLE SIZE: 705 POINTS
Info: REMOVING COM VELOCITY 0.0221925 0.0118247 -0.113741
TCL: Running for 100000 steps
ETITLE: TS BOND ANGLE DIHED IMPRP ELECT VDW BOUNDARY MISC KINETIC TOTAL TEMP POTENTIAL TOTAL3 TEMPAVG PRESSURE GPRESSURE VOLUME PRESSAVG GPRESSAVG
ENERGY: 0 0.0980 0.4446 1.9028 0.0000 -13757.8720 2379.7170 0.0000 0.0000 1712.4057 -9663.3039 288.3942 -11375.7096 -9662.9763 288.3942 209.3218 249.4350 43228.9211 209.3218 249.4350
ENERGY: 100000 0.8518 1.3564 2.0899 0.0000 -14212.6954 2304.7154 0.0000 0.0000 178.1690 -11725.5129 30.0063 -11903.6818 -11725.2389 30.8511 -1719.4743 -1656.1393 29112.4740 4.1025 4.0848
TCL: Running 100000 steps at 60 kelvin.
TCL: Setting parameter langevinTemp to 60
TCL: Running for 100000 steps
ETITLE: TS BOND ANGLE DIHED IMPRP ELECT VDW BOUNDARY MISC KINETIC TOTAL TEMP POTENTIAL TOTAL3 TEMPAVG PRESSURE GPRESSURE VOLUME PRESSAVG GPRESSAVG
ENERGY: 100000 0.8518 1.3564 2.0899 0.0000 -14212.6954 2304.7154 0.0000 0.0000 178.0810 -11725.6008 29.9914 -11903.6818 -11725.1886 29.9914 -1721.7424 -1656.4380 29112.4740 -1721.7424 -1656.4380
ENERGY: 200000 0.4203 2.4407 2.4038 0.0000 -14242.2411 2413.6203 0.0000 0.0000 349.9796 -11473.3765 58.9417 -11823.3560 -11472.9239 59.8500 -411.3682 -324.2947 28706.6406 4.6477 4.6542
TCL: Running 100000 steps at 90 kelvin.
TCL: Setting parameter langevinTemp to 90
TCL: Running for 100000 steps
ETITLE: TS BOND ANGLE DIHED IMPRP ELECT VDW BOUNDARY MISC KINETIC TOTAL TEMP POTENTIAL TOTAL3 TEMPAVG PRESSURE GPRESSURE VOLUME PRESSAVG GPRESSAVG
ENERGY: 200000 0.4203 2.4407 2.4038 0.0000 -14242.2411 2413.6203 0.0000 0.0000 349.8031 -11473.5529 58.9120 -11823.3560 -11472.8009 58.9120 -388.7780 -324.2664 28706.6406 -388.7780 -324.2664
ENERGY: 300000 0.9826 2.8804 3.5579 0.0000 -14155.3952 2423.0630 0.0000 0.0000 539.4405 -11185.4707 90.8497 -11724.9113 -11183.3779 89.9931 216.6856 304.3675 28541.9102 5.5630 5.5764
TCL: Running 100000 steps at 120 kelvin.
TCL: Setting parameter langevinTemp to 120
TCL: Running for 100000 steps
ETITLE: TS BOND ANGLE DIHED IMPRP ELECT VDW BOUNDARY MISC KINETIC TOTAL TEMP POTENTIAL TOTAL3 TEMPAVG PRESSURE GPRESSURE VOLUME PRESSAVG GPRESSAVG
ENERGY: 300000 0.9826 2.8804 3.5579 0.0000 -14155.3952 2423.0630 0.0000 0.0000 539.1776 -11185.7336 90.8054 -11724.9113 -11184.6859 90.8054 240.6503 305.4848 28541.9102 240.6503 305.4848
ENERGY: 400000 0.6083 3.6282 2.8244 0.0000 -14007.2820 2416.9796 0.0000 0.0000 703.7942 -10879.4474 118.5292 -11583.2416 -10877.5734 119.9605 466.9281 486.6435 29047.9912 2.8642 2.8459
TCL: Running 100000 steps at 150 kelvin.
TCL: Setting parameter langevinTemp to 150
TCL: Running for 100000 steps
ETITLE: TS BOND ANGLE DIHED IMPRP ELECT VDW BOUNDARY MISC KINETIC TOTAL TEMP POTENTIAL TOTAL3 TEMPAVG PRESSURE GPRESSURE VOLUME PRESSAVG GPRESSAVG
ENERGY: 400000 0.6083 3.6282 2.8244 0.0000 -14007.2820 2416.9796 0.0000 0.0000 703.4359 -10879.8057 118.4689 -11583.2416 -10878.7238 118.4689 444.6072 486.8005 29047.9912 444.6072 486.8005
ENERGY: 500000 0.5851 8.1212 3.1288 0.0000 -13773.6017 2327.5722 0.0000 0.0000 867.6959 -10566.4986 146.1327 -11434.1944 -10563.8063 149.8340 344.5690 367.4091 29150.8662 4.5408 4.4979
TCL: Running 100000 steps at 180 kelvin.
TCL: Setting parameter langevinTemp to 180
TCL: Running for 100000 steps
ETITLE: TS BOND ANGLE DIHED IMPRP ELECT VDW BOUNDARY MISC KINETIC TOTAL TEMP POTENTIAL TOTAL3 TEMPAVG PRESSURE GPRESSURE VOLUME PRESSAVG GPRESSAVG
ENERGY: 500000 0.5851 8.1212 3.1288 0.0000 -13773.6017 2327.5722 0.0000 0.0000 867.2524 -10566.9420 146.0580 -11434.1944 -10565.0797 146.0580 331.4031 368.2061 29150.8662 331.4031 368.2061
ENERGY: 600000 2.2244 6.6394 3.2706 0.0000 -13300.8677 2166.7703 0.0000 0.0000 1040.5434 -10081.4197 175.2427 -11121.9631 -10078.4428 179.9050 104.5147 125.8134 29283.5090 2.7640 2.9388
TCL: Running 100000 steps at 210 kelvin.
TCL: Setting parameter langevinTemp to 210
TCL: Running for 100000 steps
ETITLE: TS BOND ANGLE DIHED IMPRP ELECT VDW BOUNDARY MISC KINETIC TOTAL TEMP POTENTIAL TOTAL3 TEMPAVG PRESSURE GPRESSURE VOLUME PRESSAVG GPRESSAVG
ENERGY: 600000 2.2244 6.6394 3.2706 0.0000 -13300.8677 2166.7703 0.0000 0.0000 1040.0181 -10081.9450 175.1543 -11121.9631 -10080.0932 175.1543 66.1415 126.8312 29283.5090 66.1415 126.8312
ENERGY: 700000 1.5758 2.7227 3.3171 0.0000 -12564.6516 1921.6935 0.0000 0.0000 1302.3037 -9333.0387 219.3270 -10635.3424 -9329.1835 209.7160 -137.6722 -48.0426 29418.6427 3.1116 3.1779
TCL: Running 100000 steps at 240 kelvin.
TCL: Setting parameter langevinTemp to 240
TCL: Running for 100000 steps
ETITLE: TS BOND ANGLE DIHED IMPRP ELECT VDW BOUNDARY MISC KINETIC TOTAL TEMP POTENTIAL TOTAL3 TEMPAVG PRESSURE GPRESSURE VOLUME PRESSAVG GPRESSAVG
ENERGY: 700000 1.5758 2.7227 3.3171 0.0000 -12564.6516 1921.6935 0.0000 0.0000 1301.6856 -9333.6569 219.2229 -10635.3424 -9331.5270 219.2229 -135.2609 -48.0175 29418.6427 -135.2609 -48.0175
ENERGY: 800000 1.8997 4.3523 3.8453 0.0000 -11924.1482 1703.3734 0.0000 0.0000 1426.0194 -8784.6581 240.1625 -10210.6775 -8781.5613 239.7686 -293.5487 -184.6327 29292.9779 3.9122 4.1131
TCL: Running 100000 steps at 270 kelvin.
TCL: Setting parameter langevinTemp to 270
TCL: Running for 100000 steps
ETITLE: TS BOND ANGLE DIHED IMPRP ELECT VDW BOUNDARY MISC KINETIC TOTAL TEMP POTENTIAL TOTAL3 TEMPAVG PRESSURE GPRESSURE VOLUME PRESSAVG GPRESSAVG
ENERGY: 800000 1.8997 4.3523 3.8453 0.0000 -11924.1482 1703.3734 0.0000 0.0000 1425.3309 -8785.3466 240.0466 -10210.6775 -8782.9375 240.0466 -262.5776 -184.5694 29292.9779 -262.5776 -184.5694
ENERGY: 900000 1.9916 8.7844 3.0647 0.0000 -11358.5320 1542.9031 0.0000 0.0000 1561.7896 -8239.9986 263.0282 -9801.7882 -8236.1132 269.8898 -417.0897 -366.9333 30004.4762 4.0028 3.9013
TCL: Running 1000000 steps at 300 kelvin.
TCL: Setting parameter langevinTemp to 300
TCL: Running for 1000000 steps
ETITLE: TS BOND ANGLE DIHED IMPRP ELECT VDW BOUNDARY MISC KINETIC TOTAL TEMP POTENTIAL TOTAL3 TEMPAVG PRESSURE GPRESSURE VOLUME PRESSAVG GPRESSAVG
ENERGY: 900000 1.9916 8.7844 3.0647 0.0000 -11358.5320 1542.9031 0.0000 0.0000 1560.9834 -8240.8048 262.8924 -9801.7882 -8238.3976 262.8924 -451.3954 -365.7303 30004.4762 -451.3954 -365.7303
ENERGY: 1100000 1.2966 10.2275 2.6737 0.0000 -10874.5821 1459.7626 0.0000 0.0000 1793.5311 -7607.0905 302.0569 -9400.6217 -7600.3963 300.3125 96.2953 140.0752 30598.0825 2.7827 2.7278
ENERGY: 1300000 1.2595 7.3043 7.3572 0.0000 -10718.9826 1397.4179 0.0000 0.0000 1809.7639 -7495.8798 304.7907 -9305.6437 -7490.0652 300.0493 -94.1029 -52.8188 30604.8717 3.4081 3.2215
ENERGY: 1500000 2.2621 7.4683 8.7725 0.0000 -10947.8585 1517.8098 0.0000 0.0000 1716.9898 -7694.5560 289.1662 -9411.5458 -7692.1874 300.8007 190.5650 260.3763 30672.3531 2.6734 2.5843
ENERGY: 1700000 1.5499 12.3911 4.2917 0.0000 -10752.8910 1353.9501 0.0000 0.0000 1784.3012 -7596.4070 300.5024 -9380.7082 -7590.1856 300.0503 -685.1098 -627.9690 30814.7521 2.8021 2.8061
ENERGY: 1900000 3.0881 5.7185 3.8941 0.0000 -10704.9226 1407.3069 0.0000 0.0000 1807.7862 -7477.1288 304.4576 -9284.9150 -7474.8063 300.1301 93.5340 169.8710 30505.9485 4.0453 4.0655
TCL: Exiting due to exit command.
