Info: SIMULATION PARAMETERS:
Info: TIMESTEP               2
Info: NUMBER OF STEPS        0
Info: STEPS PER CYCLE        10
Info: PERIODIC CELL BASIS 1  30.9808 0 0
Info: PERIODIC CELL BASIS 2  0 31.3357 0
Info: PERIODIC CELL BASIS 3  0 0 31.6118
Info: PERIODIC CELL CENTER   0 0 0
Info: WRAPPING WATERS AROUND PERIODIC BOUNDARIES ON OUTPUT.
Info: WRAPPING ALL CLUSTERS AROUND PERIODIC BOUNDARIES ON OUTPUT.
Info: FIRST LDB TIMESTEP     50
Info: LAST LDB TIMESTEP     -1
Info: HOM BACKGROUND SCALING 1
Info: PME BACKGROUND SCALING 1
Info: MIN ATOMS PER PATCH    40
Info: EMPTY PATCH LOAD       40 ATOMS
Info: VELOCITY FILE          mobley_4364398_equil.vel
Info: CENTER OF MASS MOVING INITIALLY? NO
Info: DIELECTRIC             1
Info: EXCLUDE                SCALED ONE-FOUR
Info: 1-4 ELECTROSTATICS SCALED BY 0.833333
Info: MODIFIED 1-4 VDW PARAMETERS WILL BE USED
Info: DCD FILENAME           mobley_4364398_prod.dcd
Info: DCD FREQUENCY          100000
Info: DCD FIRST STEP         100000
Info: DCD FILE WILL CONTAIN UNIT CELL DATA
Info: XST FILENAME           mobley_4364398_prod.xst
Info: XST FREQUENCY          100000
Info: NO VELOCITY DCD OUTPUT
Info: NO FORCE DCD OUTPUT
Info: OUTPUT FILENAME        mobley_4364398_prod
Info: BINARY OUTPUT FILES WILL BE USED
Info: RESTART FILENAME       mobley_4364398_prod.restart
Info: RESTART FREQUENCY      100000
Info: BINARY RESTART FILES WILL BE USED
Info: CUTOFF                 9
Info: PAIRLIST DISTANCE      11
Info: PAIRLIST SHRINK RATE   0.01
Info: PAIRLIST GROW RATE     0.01
Info: PAIRLIST TRIGGER       0.3
Info: PAIRLISTS PER CYCLE    2
Info: PAIRLISTS ENABLED
Info: MARGIN                 2
Info: HYDROGEN GROUP CUTOFF  2.5
Info: PATCH DIMENSION        15.5
Info: ENERGY OUTPUT STEPS    100000
Info: ENERGY EVALUATION STEPS    100000
Info: OUTPUT ENERGY PRECISION 4
Info: CROSSTERM ENERGY INCLUDED IN DIHEDRAL
Info: TIMING OUTPUT STEPS    1000000
Info: PRESSURE OUTPUT STEPS  100000
Info: ALCHEMICAL FEP ON
Info: FEP CURRENT LAMBDA VALUE     0
Info: FEP COMPARISON LAMBDA VALUE  0.05
Info: FEP INTRA-ALCHEMICAL NON-BONDED INTERACTIONS WILL BE RETAINED
Info: FEP INTRA-ALCHEMICAL BONDED INTERACTIONS WILL BE RETAINED
Info: FEP VDW SHIFTING COEFFICIENT 5
Info: FEP ELEC. ACTIVE FOR ANNIHILATED PARTICLES BETWEEN LAMBDA = 0 AND LAMBDA = 0.5
Info: FEP ELEC. ACTIVE FOR EXNIHILATED PARTICLES BETWEEN LAMBDA = 0.5 AND LAMBDA = 1
Info: FEP VDW ACTIVE FOR ANNIHILATED PARTICLES BETWEEN LAMBDA = 0 AND LAMBDA = 1
Info: FEP VDW ACTIVE FOR EXNIHILATED PARTICLES BETWEEN LAMBDA = 0 AND LAMBDA = 1
Info: FEP BOND ACTIVE FOR ANNIHILATED PARTICLES BETWEEN LAMBDA = 1 AND LAMBDA = 1
Info: FEP BOND ACTIVE FOR EXNIHILATED PARTICLES BETWEEN LAMBDA = 0 AND LAMBDA = 0
Info: LANGEVIN DYNAMICS ACTIVE
Info: LANGEVIN TEMPERATURE   300
Info: LANGEVIN USING BBK INTEGRATOR
Info: LANGEVIN DAMPING COEFFICIENT IS 1 INVERSE PS
Info: LANGEVIN DYNAMICS APPLIED TO HYDROGENS
Info: LANGEVIN PISTON PRESSURE CONTROL ACTIVE
Info:        TARGET PRESSURE IS 1.01325 BAR
Info:     OSCILLATION PERIOD IS 50 FS
Info:             DECAY TIME IS 25 FS
Info:     PISTON TEMPERATURE IS 300 K
Info:       PRESSURE CONTROL IS GROUP-BASED
Info:    INITIAL STRAIN RATE IS 0.000130774 0.000130774 0.000130774
Info:       CELL FLUCTUATION IS ISOTROPIC
Info: PARTICLE MESH EWALD (PME) ACTIVE
Info: PME TOLERANCE               1e-06
Info: PME EWALD COEFFICIENT       0.348832
Info: PME INTERPOLATION ORDER     4
Info: PME GRID DIMENSIONS         32 32 32
Info: PME MAXIMUM GRID SPACING    1
Info: PME CALCULATION WILL BE PERFORMED ON GPU
Info: FULL ELECTROSTATIC EVALUATION FREQUENCY      2
Info: USING VERLET I (r-RESPA) MTS SCHEME.
Info: C1 SPLITTING OF LONG RANGE ELECTROSTATICS
Info: PLACING ATOMS IN PATCHES BY HYDROGEN GROUPS
Info: RIGID BONDS TO HYDROGEN : ALL
Info:         ERROR TOLERANCE : 1e-08
Info:          MAX ITERATIONS : 100
Info: RIGID WATER USING SETTLE ALGORITHM
Info: RANDOM NUMBER SEED     1743390539
Info: USE HYDROGEN BONDS?    NO
Info: Using AMBER format force field!
Info: AMBER PARM FILE        mobley_4364398.prmtop
Info: COORDINATE PDB         mobley_4364398.pdb
Info: Exclusions will be read from PARM file!
Info: SCNB (VDW SCALING)     2
Info: USING ARITHMETIC MEAN TO COMBINE L-J SIGMA PARAMETERS
Info: BINARY COORDINATES     mobley_4364398_equil.coor
Info: SUMMARY OF PARAMETERS:
Info: 4 BONDS
Info: 2 ANGLES
Info:   2 HARMONIC
Info:   0 COSINE-BASED
Info: 0 DIHEDRAL
Info: 0 IMPROPER
Info: 0 CROSSTERM
Info: 0 VDW
Info: 15 VDW_PAIRS
Info: 0 NBTHOLE_PAIRS
Info: To read alchdata from file: mobley_4364398.pdb
Info: To read alchflag data from column: 5
Info: STRUCTURE SUMMARY:
Info: 2987 ATOMS
Info: 2986 BONDS
Info: 6 ANGLES
Info: 0 DIHEDRALS
Info: 0 IMPROPERS
Info: 0 CROSSTERMS
Info: 2992 EXCLUSIONS
Info: 2985 RIGID BONDS
Info: ALCH: 0 ATOMS TO DISAPPEAR IN FINAL STATE
Info: ALCH: 5 ATOMS TO APPEAR IN FINAL STATE
Info: 5976 DEGREES OF FREEDOM
Info: 996 HYDROGEN GROUPS
Info: 4 ATOMS IN LARGEST HYDROGEN GROUP
Info: 996 MIGRATION GROUPS
Info: 4 ATOMS IN LARGEST MIGRATION GROUP
Info: TOTAL MASS = 18049.8 amu
Info: TOTAL CHARGE = -9.99942e-05 e
Info: MASS DENSITY = 0.976678 g/cm^3
Info: ATOM DENSITY = 0.0973316 atoms/A^3
Info: ADDED 0 IMPLICIT EXCLUSIONS
Info: NONBONDED TABLE R-SQUARED SPACING: 0.0625
Info: NONBONDED TABLE SIZE: 705 POINTS
Info: REMOVING COM VELOCITY 0.117569 0.199802 0.045877
Info: Use 3D box decompostion in PME FFT.
Info: Updated CUDA force table with 4096 elements.
Info: Updated CUDA LJ table with 5 x 5 elements.
Info: Found 8 unique exclusion lists needing 8 bytes
TCL: Running for 1500000 steps
ETITLE: TS BOND ANGLE DIHED IMPRP ELECT VDW BOUNDARY MISC KINETIC TOTAL TEMP POTENTIAL TOTALAVG TEMPAVG PRESSURE GPRESSURE VOLUME PRESSAVG GPRESSAVG
ENERGY: 0 1.0053 2.4221 0.0000 0.0000 -10870.6614 1406.3298 0.0000 0.0000 1819.6096 -7641.2946 306.4489 -9460.9042 -7641.2946 306.4489 -637.2960 -547.6931 30688.8949 -637.2960 -547.6931
ENERGY: 300000 0.0000 2.8004 0.0000 0.0000 -10941.6855 1521.0573 0.0000 0.0000 1765.7446 -7652.0831 297.3772 -9417.8277 -7652.7716 300.9024 273.8365 318.7562 30663.3856 -133.5467 -80.2914
ENERGY: 600000 0.0342 2.1593 0.0000 0.0000 -10797.5336 1441.5674 0.0000 0.0000 1799.5931 -7554.1796 303.0778 -9353.7727 -7632.5324 298.6752 24.4371 66.0654 30540.2672 -69.4901 -16.5698
ENERGY: 900000 2.4690 0.6427 0.0000 0.0000 -10892.8450 1514.3778 0.0000 0.0000 1787.1519 -7588.2035 300.9825 -9375.3554 -7619.7364 299.9952 215.4219 289.8638 30899.0239 48.1498 97.7300
ENERGY: 1200000 0.0062 1.8572 0.0000 0.0000 -11016.9067 1564.3805 0.0000 0.0000 1754.6376 -7696.0253 295.5066 -9450.6629 -7631.6574 299.8414 567.3859 583.8074 30590.2858 134.5281 184.4041
ENERGY: 1500000 0.1680 1.6466 0.0000 0.0000 -10789.4817 1471.4180 0.0000 0.0000 1723.7019 -7592.5472 290.2966 -9316.2491 -7631.2832 298.4656 468.4728 505.0401 30415.0239 102.1500 156.1226
TCL: Running FEP window   2: Lambda1 0.05   Lambda2 0.1    [dLambda 0.05  ]
TCL: Setting parameter firsttimestep to 0
TCL: Setting parameter alchLambda to 0.05
Info: NONBONDED TABLE R-SQUARED SPACING: 0.0625
Info: NONBONDED TABLE SIZE: 705 POINTS
TCL: Setting parameter alchLambda2 to 0.1
Info: NONBONDED TABLE R-SQUARED SPACING: 0.0625
Info: NONBONDED TABLE SIZE: 705 POINTS
TCL: Running for 1500000 steps
ETITLE: TS BOND ANGLE DIHED IMPRP ELECT VDW BOUNDARY MISC KINETIC TOTAL TEMP POTENTIAL TOTALAVG TEMPAVG PRESSURE GPRESSURE VOLUME PRESSAVG GPRESSAVG
ENERGY: 0 0.1680 1.6466 0.0000 0.0000 -10789.4805 1473.6418 0.0000 0.0000 1722.8123 -7591.2118 290.1468 -9314.0241 -7591.2118 290.1468 427.4807 512.2282 30415.0239 427.4807 512.2282
ENERGY: 300000 0.2883 1.6825 0.0000 0.0000 -10945.9520 1435.9676 0.0000 0.0000 1752.4383 -7755.5754 295.1362 -9508.0137 -7637.4734 298.9543 -486.4386 -392.3595 30491.5608 194.9522 265.2606
ENERGY: 600000 0.3261 1.9680 0.0000 0.0000 -10843.2954 1416.2499 0.0000 0.0000 1803.6512 -7621.1001 303.7612 -9424.7513 -7635.4402 298.7656 -680.3084 -608.6747 31086.3003 41.8593 108.0671
ENERGY: 900000 0.0002 1.0804 0.0000 0.0000 -10783.7990 1402.8671 0.0000 0.0000 1814.2768 -7565.5744 305.5507 -9379.8512 -7624.0018 298.8904 -382.8057 -394.1512 30856.0864 -8.9572 41.8945
ENERGY: 1200000 0.2612 3.9310 0.0000 0.0000 -11005.7810 1567.1261 0.0000 0.0000 1828.9825 -7605.4802 308.0274 -9434.4627 -7622.8941 299.8013 707.8777 767.5248 30723.4354 56.6550 113.4798
ENERGY: 1500000 0.0311 1.5782 0.0000 0.0000 -10929.4479 1520.0938 0.0000 0.0000 1756.9131 -7650.8317 295.8898 -9407.7448 -7621.2604 299.6831 517.1711 569.7780 30509.2218 80.3050 137.9976
TCL: Running FEP window   3: Lambda1 0.1    Lambda2 0.15000000000000002 [dLambda 0.05000000000000002]
TCL: Setting parameter firsttimestep to 0
TCL: Setting parameter alchLambda to 0.1
Info: NONBONDED TABLE R-SQUARED SPACING: 0.0625
Info: NONBONDED TABLE SIZE: 705 POINTS
TCL: Setting parameter alchLambda2 to 0.15000000000000002
Info: NONBONDED TABLE R-SQUARED SPACING: 0.0625
Info: NONBONDED TABLE SIZE: 705 POINTS
TCL: Running for 1500000 steps
ETITLE: TS BOND ANGLE DIHED IMPRP ELECT VDW BOUNDARY MISC KINETIC TOTAL TEMP POTENTIAL TOTALAVG TEMPAVG PRESSURE GPRESSURE VOLUME PRESSAVG GPRESSAVG
ENERGY: 0 0.0311 1.5782 0.0000 0.0000 -10929.4458 1521.7756 0.0000 0.0000 1756.0185 -7650.0423 295.7392 -9406.0608 -7650.0423 295.7392 502.9473 576.6944 30509.2218 502.9473 576.6944
ENERGY: 300000 0.5461 1.1877 0.0000 0.0000 -10917.4787 1529.6341 0.0000 0.0000 1809.7140 -7576.3968 304.7823 -9386.1108 -7593.8990 301.0210 608.1075 675.5724 30345.0885 485.9476 530.9213
ENERGY: 600000 1.1223 4.8136 0.0000 0.0000 -10833.8832 1431.1403 0.0000 0.0000 1829.4934 -7567.3136 308.1134 -9396.8071 -7607.1999 301.4388 -523.7801 -488.0536 31342.4155 412.3814 453.0179
ENERGY: 900000 0.8012 2.9810 0.0000 0.0000 -10828.7165 1449.0633 0.0000 0.0000 1789.9948 -7585.8762 301.4613 -9375.8710 -7611.5173 300.5368 -69.0299 21.9682 30760.9155 124.9029 182.7334
ENERGY: 1200000 1.0839 1.8511 0.0000 0.0000 -10708.0557 1354.7770 0.0000 0.0000 1751.1369 -7599.2069 294.9171 -9350.3438 -7607.5559 300.1979 -984.4437 -887.7298 31306.9090 144.9016 202.4003
ENERGY: 1500000 2.8001 3.0291 0.0000 0.0000 -10897.3791 1477.4126 0.0000 0.0000 1800.2337 -7613.9035 303.1857 -9414.1373 -7604.9237 300.8614 -317.0537 -157.8576 31183.9089 30.7129 96.8806
TCL: Running FEP window   4: Lambda1 0.15000000000000002 Lambda2 0.2    [dLambda 0.04999999999999999]
TCL: Setting parameter firsttimestep to 0
TCL: Setting parameter alchLambda to 0.15000000000000002
Info: NONBONDED TABLE R-SQUARED SPACING: 0.0625
Info: NONBONDED TABLE SIZE: 705 POINTS
TCL: Setting parameter alchLambda2 to 0.2
Info: NONBONDED TABLE R-SQUARED SPACING: 0.0625
Info: NONBONDED TABLE SIZE: 705 POINTS
TCL: Running for 1500000 steps
ETITLE: TS BOND ANGLE DIHED IMPRP ELECT VDW BOUNDARY MISC KINETIC TOTAL TEMP POTENTIAL TOTALAVG TEMPAVG PRESSURE GPRESSURE VOLUME PRESSAVG GPRESSAVG
ENERGY: 0 2.8001 3.0291 0.0000 0.0000 -10897.3781 1479.2445 0.0000 0.0000 1799.3645 -7612.9399 303.0393 -9412.3044 -7612.9399 303.0393 -223.4857 -150.9191 31183.9089 -223.4857 -150.9191
ENERGY: 300000 0.6402 1.1566 0.0000 0.0000 -10879.7813 1400.5476 0.0000 0.0000 1782.8640 -7694.5730 300.2604 -9477.4370 -7651.8061 297.4031 -970.6384 -901.8101 30972.4545 -516.3426 -450.8338
ENERGY: 600000 0.0374 2.5335 0.0000 0.0000 -10841.1435 1432.4525 0.0000 0.0000 1743.7473 -7662.3728 293.6725 -9406.1201 -7648.9021 297.4190 -400.3800 -363.0404 30697.7013 -257.2431 -193.9946
ENERGY: 900000 0.3106 2.1545 0.0000 0.0000 -10915.6526 1452.8168 0.0000 0.0000 1755.0432 -7705.3273 295.5749 -9460.3706 -7646.7980 298.3910 -306.6293 -245.2260 30703.5773 -157.1132 -92.1989
ENERGY: 1200000 0.0176 0.9217 0.0000 0.0000 -10691.2173 1337.7708 0.0000 0.0000 1856.9601 -7495.5472 312.7392 -9352.5073 -7615.6330 300.3810 -748.0429 -721.8821 31142.2259 -182.7536 -119.7960
ENERGY: 1500000 0.3311 3.0198 0.0000 0.0000 -10945.2292 1482.9534 0.0000 0.0000 1867.4867 -7591.4381 314.5121 -9458.9249 -7610.9361 301.5054 -8.1189 72.9521 30779.7348 -236.8206 -175.0019
TCL: Running FEP window   5: Lambda1 0.2    Lambda2 0.25   [dLambda 0.04999999999999999]
TCL: Setting parameter firsttimestep to 0
TCL: Setting parameter alchLambda to 0.2
Info: NONBONDED TABLE R-SQUARED SPACING: 0.0625
Info: NONBONDED TABLE SIZE: 705 POINTS
TCL: Setting parameter alchLambda2 to 0.25
Info: NONBONDED TABLE R-SQUARED SPACING: 0.0625
Info: NONBONDED TABLE SIZE: 705 POINTS
TCL: Running for 1500000 steps
ETITLE: TS BOND ANGLE DIHED IMPRP ELECT VDW BOUNDARY MISC KINETIC TOTAL TEMP POTENTIAL TOTALAVG TEMPAVG PRESSURE GPRESSURE VOLUME PRESSAVG GPRESSAVG
ENERGY: 0 0.3311 3.0198 0.0000 0.0000 -10945.2296 1483.7613 0.0000 0.0000 1866.6047 -7591.5127 314.3635 -9458.1174 -7591.5127 314.3635 -4.2784 78.6948 30779.7348 -4.2784 78.6948
ENERGY: 300000 0.7722 1.5138 0.0000 0.0000 -10897.9047 1455.8989 0.0000 0.0000 1828.4271 -7611.2927 307.9339 -9439.7198 -7618.7255 306.3148 -233.1379 -184.8375 30690.5494 -350.3678 -254.9454
ENERGY: 600000 0.5106 1.6571 0.0000 0.0000 -10839.8485 1383.3657 0.0000 0.0000 1757.8069 -7696.5082 296.0404 -9454.3152 -7627.7329 303.0807 -591.2243 -561.0270 30441.3348 -375.8552 -292.9410
ENERGY: 900000 0.4124 2.3662 0.0000 0.0000 -10867.3776 1498.4917 0.0000 0.0000 1827.3613 -7538.7460 307.7544 -9366.1072 -7594.7611 303.5018 167.7056 212.5801 30990.7318 -341.4423 -268.3112
ENERGY: 1200000 0.0116 0.9143 0.0000 0.0000 -10777.4977 1375.9108 0.0000 0.0000 1779.4632 -7621.1978 299.6876 -9400.6610 -7593.1368 302.1592 -453.2318 -418.7468 30366.6795 -384.2465 -315.9746
ENERGY: 1500000 0.0014 1.5083 0.0000 0.0000 -10987.7155 1544.2003 0.0000 0.0000 1759.6057 -7682.3999 296.3433 -9442.0055 -7599.0431 301.1736 628.9796 703.1234 30482.7229 -312.4041 -247.3197
TCL: Running FEP window   6: Lambda1 0.25   Lambda2 0.3    [dLambda 0.04999999999999999]
TCL: Setting parameter firsttimestep to 0
TCL: Setting parameter alchLambda to 0.25
Info: NONBONDED TABLE R-SQUARED SPACING: 0.0625
Info: NONBONDED TABLE SIZE: 705 POINTS
TCL: Setting parameter alchLambda2 to 0.3
Info: NONBONDED TABLE R-SQUARED SPACING: 0.0625
Info: NONBONDED TABLE SIZE: 705 POINTS
TCL: Running for 1500000 steps
ETITLE: TS BOND ANGLE DIHED IMPRP ELECT VDW BOUNDARY MISC KINETIC TOTAL TEMP POTENTIAL TOTALAVG TEMPAVG PRESSURE GPRESSURE VOLUME PRESSAVG GPRESSAVG
ENERGY: 0 0.0014 1.5083 0.0000 0.0000 -10987.7152 1543.9228 0.0000 0.0000 1758.7136 -7683.5691 296.1931 -9442.2827 -7683.5691 296.1931 630.9771 706.4783 30482.7229 630.9771 706.4783
ENERGY: 300000 2.2502 1.6866 0.0000 0.0000 -10882.7039 1523.8709 0.0000 0.0000 1815.1061 -7539.7902 305.6904 -9354.8963 -7611.3617 299.7046 434.1855 527.1919 30771.9748 260.0188 334.8428
ENERGY: 600000 0.3642 2.6660 0.0000 0.0000 -10810.8884 1391.6787 0.0000 0.0000 1750.1266 -7666.0529 294.7469 -9416.1795 -7625.7188 299.6017 -652.9536 -552.8624 30703.3356 76.2347 143.4901
ENERGY: 900000 0.3799 3.7454 0.0000 0.0000 -10789.7235 1376.6731 0.0000 0.0000 1768.1698 -7640.7553 297.7856 -9408.9250 -7630.0573 298.6128 -814.8245 -785.1678 30768.1444 -184.2086 -117.2653
ENERGY: 1200000 0.0323 4.6927 0.0000 0.0000 -10950.2507 1445.0004 0.0000 0.0000 1822.4226 -7678.1027 306.9226 -9500.5253 -7623.7907 299.8367 -362.7396 -331.7145 30571.6514 -114.4023 -46.7726
ENERGY: 1500000 0.0454 3.0293 0.0000 0.0000 -10965.5360 1489.1405 0.0000 0.0000 1805.5545 -7667.7662 304.0818 -9473.3207 -7618.8789 300.5521 398.1655 427.2612 30180.3224 -23.2757 40.6971
TCL: Running FEP window   7: Lambda1 0.3    Lambda2 0.35   [dLambda 0.04999999999999999]
TCL: Setting parameter firsttimestep to 0
TCL: Setting parameter alchLambda to 0.3
Info: NONBONDED TABLE R-SQUARED SPACING: 0.0625
Info: NONBONDED TABLE SIZE: 705 POINTS
TCL: Setting parameter alchLambda2 to 0.35
Info: NONBONDED TABLE R-SQUARED SPACING: 0.0625
Info: NONBONDED TABLE SIZE: 705 POINTS
TCL: Running for 1500000 steps
ETITLE: TS BOND ANGLE DIHED IMPRP ELECT VDW BOUNDARY MISC KINETIC TOTAL TEMP POTENTIAL TOTALAVG TEMPAVG PRESSURE GPRESSURE VOLUME PRESSAVG GPRESSAVG
ENERGY: 0 0.0454 3.0293 0.0000 0.0000 -10965.5360 1489.2619 0.0000 0.0000 1804.6358 -7668.5635 303.9271 -9473.1993 -7668.5635 303.9271 350.2944 428.9163 30180.3224 350.2944 428.9163
ENERGY: 300000 0.6062 1.9218 0.0000 0.0000 -10883.9642 1465.4390 0.0000 0.0000 1803.0318 -7612.9654 303.6569 -9415.9972 -7644.4736 300.6336 131.1911 179.1066 30375.7872 -55.2112 32.9251
ENERGY: 600000 0.0813 2.6943 0.0000 0.0000 -11013.6378 1519.2578 0.0000 0.0000 1809.8786 -7681.7258 304.8100 -9491.6044 -7638.7653 300.5748 -75.4112 8.6413 31043.5291 -74.9849 9.8884
ENERGY: 900000 0.0010 2.4198 0.0000 0.0000 -10858.6190 1408.1334 0.0000 0.0000 1770.4436 -7677.6211 298.1686 -9448.0648 -7645.2881 302.0632 -716.4221 -651.6190 31176.4742 -198.9256 -110.9004
ENERGY: 1200000 0.0416 1.3314 0.0000 0.0000 -10744.1293 1417.4259 0.0000 0.0000 1729.4630 -7595.8675 291.2669 -9325.3305 -7637.6923 301.7506 -147.7671 -27.8871 30619.4422 -101.4929 -10.3172
ENERGY: 1500000 0.0685 3.3029 0.0000 0.0000 -10847.1571 1450.1709 0.0000 0.0000 1745.5502 -7648.0646 293.9762 -9393.6148 -7639.2266 300.9848 -56.3723 -5.0801 30796.4889 -114.7021 -35.1399
TCL: Running FEP window   8: Lambda1 0.35   Lambda2 0.39999999999999997 [dLambda 0.04999999999999999]
TCL: Setting parameter firsttimestep to 0
TCL: Setting parameter alchLambda to 0.35
Info: NONBONDED TABLE R-SQUARED SPACING: 0.0625
Info: NONBONDED TABLE SIZE: 705 POINTS
TCL: Setting parameter alchLambda2 to 0.39999999999999997
Info: NONBONDED TABLE R-SQUARED SPACING: 0.0625
Info: NONBONDED TABLE SIZE: 705 POINTS
TCL: Running for 1500000 steps
ETITLE: TS BOND ANGLE DIHED IMPRP ELECT VDW BOUNDARY MISC KINETIC TOTAL TEMP POTENTIAL TOTALAVG TEMPAVG PRESSURE GPRESSURE VOLUME PRESSAVG GPRESSAVG
ENERGY: 0 0.0685 3.3029 0.0000 0.0000 -10847.1567 1450.1131 0.0000 0.0000 1744.6966 -7648.9757 293.8324 -9393.6723 -7648.9757 293.8324 -82.7779 -2.6964 30796.4889 -82.7779 -2.6964
ENERGY: 300000 0.6699 0.7020 0.0000 0.0000 -10731.6783 1359.3112 0.0000 0.0000 1795.5754 -7575.4198 302.4012 -9370.9952 -7598.7107 300.2059 -824.0070 -758.1998 31024.6233 -333.9171 -299.0625
ENERGY: 600000 1.1324 1.9463 0.0000 0.0000 -10715.6525 1408.6648 0.0000 0.0000 1791.8329 -7512.0762 301.7709 -9303.9091 -7582.0933 300.0525 -19.5680 8.0413 30640.6749 -363.3752 -319.3648
ENERGY: 900000 0.0327 1.3519 0.0000 0.0000 -10908.5204 1420.6500 0.0000 0.0000 1809.4251 -7677.0607 304.7336 -9486.4858 -7599.1044 301.3877 -564.7648 -484.2767 30617.3823 -241.0929 -188.9545
ENERGY: 1200000 1.1312 4.9214 0.0000 0.0000 -10855.7654 1442.7178 0.0000 0.0000 1815.7003 -7591.2946 305.7905 -9406.9949 -7602.2628 301.7716 -490.0378 -421.1157 31577.6170 -184.1817 -122.5310
ENERGY: 1500000 0.4047 2.0385 0.0000 0.0000 -10755.2431 1432.4432 0.0000 0.0000 1879.8970 -7440.4597 316.6022 -9320.3568 -7584.7397 303.2800 -201.6819 -160.7205 31191.4089 -212.9756 -156.6835
TCL: Running FEP window   9: Lambda1 0.39999999999999997 Lambda2 0.44999999999999996 [dLambda 0.04999999999999999]
TCL: Setting parameter firsttimestep to 0
TCL: Setting parameter alchLambda to 0.39999999999999997
Info: NONBONDED TABLE R-SQUARED SPACING: 0.0625
Info: NONBONDED TABLE SIZE: 705 POINTS
TCL: Setting parameter alchLambda2 to 0.44999999999999996
Info: NONBONDED TABLE R-SQUARED SPACING: 0.0625
Info: NONBONDED TABLE SIZE: 705 POINTS
TCL: Running for 1500000 steps
ETITLE: TS BOND ANGLE DIHED IMPRP ELECT VDW BOUNDARY MISC KINETIC TOTAL TEMP POTENTIAL TOTALAVG TEMPAVG PRESSURE GPRESSURE VOLUME PRESSAVG GPRESSAVG
ENERGY: 0 0.4047 2.0385 0.0000 0.0000 -10755.2427 1432.5633 0.0000 0.0000 1878.9878 -7441.2484 316.4490 -9320.2362 -7441.2484 316.4490 -243.6619 -154.9763 31191.4089 -243.6619 -154.9763
ENERGY: 300000 1.3994 0.5440 0.0000 0.0000 -10867.2712 1468.1417 0.0000 0.0000 1789.6102 -7607.5759 301.3965 -9397.1861 -7567.4326 302.0429 -33.3776 78.1043 30655.5853 -423.4576 -331.9085
ENERGY: 600000 2.0297 2.8373 0.0000 0.0000 -10855.4014 1458.1583 0.0000 0.0000 1766.4656 -7625.9105 297.4986 -9392.3761 -7585.4435 300.4883 -2.4252 70.9245 30549.4974 -362.8041 -280.5599
ENERGY: 900000 0.1650 2.3396 0.0000 0.0000 -10798.2426 1448.5532 0.0000 0.0000 1769.9112 -7577.2736 298.0789 -9347.1848 -7597.4149 300.2353 46.3206 103.3848 30699.3049 -143.5157 -76.2374
ENERGY: 1200000 0.2539 1.0831 0.0000 0.0000 -10769.5450 1402.5587 0.0000 0.0000 1815.1660 -7550.4834 305.7005 -9365.6494 -7605.7350 300.0332 -344.7204 -288.0061 30497.4166 -125.3671 -57.0550
ENERGY: 1500000 0.2175 3.7947 0.0000 0.0000 -10784.8389 1392.7933 0.0000 0.0000 1788.9056 -7599.1278 301.2779 -9388.0334 -7609.1434 300.1160 -395.0288 -308.6873 30372.6772 -91.2763 -23.0116
TCL: Running FEP window  10: Lambda1 0.44999999999999996 Lambda2 0.49999999999999994 [dLambda 0.04999999999999999]
TCL: Setting parameter firsttimestep to 0
TCL: Setting parameter alchLambda to 0.44999999999999996
Info: NONBONDED TABLE R-SQUARED SPACING: 0.0625
Info: NONBONDED TABLE SIZE: 705 POINTS
TCL: Setting parameter alchLambda2 to 0.49999999999999994
Info: NONBONDED TABLE R-SQUARED SPACING: 0.0625
Info: NONBONDED TABLE SIZE: 705 POINTS
TCL: Running for 1500000 steps
ETITLE: TS BOND ANGLE DIHED IMPRP ELECT VDW BOUNDARY MISC KINETIC TOTAL TEMP POTENTIAL TOTALAVG TEMPAVG PRESSURE GPRESSURE VOLUME PRESSAVG GPRESSAVG
ENERGY: 0 0.2175 3.7947 0.0000 0.0000 -10784.8383 1392.7099 0.0000 0.0000 1788.0343 -7600.0819 301.1311 -9388.1163 -7600.0819 301.1311 -387.8460 -304.9262 30372.6772 -387.8460 -304.9262
ENERGY: 300000 0.0580 4.7521 0.0000 0.0000 -10942.7357 1434.8705 0.0000 0.0000 1779.8302 -7723.2248 299.7494 -9503.0551 -7612.7336 302.8183 -553.7764 -443.4017 30713.2106 -285.7696 -180.1425
ENERGY: 600000 0.0195 2.6175 0.0000 0.0000 -10885.0887 1460.4362 0.0000 0.0000 1756.7835 -7665.2319 295.8680 -9422.0154 -7622.2170 301.0793 -258.9661 -220.9637 31096.4093 -361.7405 -274.9973
ENERGY: 900000 0.7420 1.1402 0.0000 0.0000 -10998.3594 1559.8280 0.0000 0.0000 1780.7952 -7655.8542 299.9119 -9436.6493 -7637.2734 299.4965 555.7667 592.1514 30866.7511 -245.3359 -169.3015
ENERGY: 1200000 0.1906 1.4441 0.0000 0.0000 -10813.3107 1393.4070 0.0000 0.0000 1718.2415 -7700.0275 289.3770 -9418.2690 -7645.2737 298.3627 -730.5477 -697.9853 30952.1487 -298.9136 -228.1893
ENERGY: 1500000 0.1985 1.0806 0.0000 0.0000 -10910.7772 1511.0294 0.0000 0.0000 1794.1726 -7604.2959 302.1649 -9398.4686 -7636.5331 298.3281 350.1902 395.3246 30727.5364 -294.6395 -230.4871
TCL: Running FEP window  11: Lambda1 0.49999999999999994 Lambda2 0.5499999999999999 [dLambda 0.04999999999999999]
TCL: Setting parameter firsttimestep to 0
TCL: Setting parameter alchLambda to 0.49999999999999994
Info: NONBONDED TABLE R-SQUARED SPACING: 0.0625
Info: NONBONDED TABLE SIZE: 705 POINTS
TCL: Setting parameter alchLambda2 to 0.5499999999999999
Info: NONBONDED TABLE R-SQUARED SPACING: 0.0625
Info: NONBONDED TABLE SIZE: 705 POINTS
TCL: Running for 1500000 steps
ETITLE: TS BOND ANGLE DIHED IMPRP ELECT VDW BOUNDARY MISC KINETIC TOTAL TEMP POTENTIAL TOTALAVG TEMPAVG PRESSURE GPRESSURE VOLUME PRESSAVG GPRESSAVG
ENERGY: 0 0.1985 1.0806 0.0000 0.0000 -10910.7791 1511.5348 0.0000 0.0000 1793.2691 -7604.6960 302.0127 -9397.9651 -7604.6960 302.0127 321.3109 405.8103 30727.5364 321.3109 405.8103
ENERGY: 300000 0.0084 2.0330 0.0000 0.0000 -10907.2091 1473.8837 0.0000 0.0000 1768.0434 -7663.2407 297.7644 -9431.2841 -7608.1504 304.2302 -69.8716 40.1248 30495.7105 -67.7331 7.0603
ENERGY: 600000 0.0105 2.4632 0.0000 0.0000 -10882.9005 1465.0676 0.0000 0.0000 1829.0982 -7586.2610 308.0469 -9415.3592 -7615.9031 303.5037 -46.8772 -30.8622 30987.3137 -0.3952 52.1557
ENERGY: 900000 0.1701 1.9441 0.0000 0.0000 -10859.3768 1444.0140 0.0000 0.0000 1808.4236 -7604.8250 304.5650 -9413.2486 -7605.7763 303.6256 -45.0643 -14.3837 30500.0517 82.0628 132.0032
ENERGY: 1200000 0.0329 3.2472 0.0000 0.0000 -10930.1111 1495.0601 0.0000 0.0000 1787.1223 -7644.6487 300.9775 -9431.7709 -7615.0232 302.8851 376.5189 472.1523 30310.1803 134.7147 191.8408
ENERGY: 1500000 0.2632 2.4469 0.0000 0.0000 -10890.0623 1460.6128 0.0000 0.0000 1747.6710 -7679.0685 294.3333 -9426.7395 -7622.9049 302.0109 -31.8087 -8.5414 30590.1019 102.7555 157.0626
TCL: Running FEP window  12: Lambda1 0.5499999999999999 Lambda2 0.6    [dLambda 0.050000000000000044]
TCL: Setting parameter firsttimestep to 0
TCL: Setting parameter alchLambda to 0.5499999999999999
Info: NONBONDED TABLE R-SQUARED SPACING: 0.0625
Info: NONBONDED TABLE SIZE: 705 POINTS
TCL: Setting parameter alchLambda2 to 0.6
Info: NONBONDED TABLE R-SQUARED SPACING: 0.0625
Info: NONBONDED TABLE SIZE: 705 POINTS
TCL: Running for 1500000 steps
ETITLE: TS BOND ANGLE DIHED IMPRP ELECT VDW BOUNDARY MISC KINETIC TOTAL TEMP POTENTIAL TOTALAVG TEMPAVG PRESSURE GPRESSURE VOLUME PRESSAVG GPRESSAVG
ENERGY: 0 0.2632 2.4469 0.0000 0.0000 -10890.2525 1460.7105 0.0000 0.0000 1746.7943 -7680.0378 294.1857 -9426.8320 -7680.0378 294.1857 -89.4831 -4.1936 30590.1019 -89.4831 -4.1936
ENERGY: 300000 0.6817 3.0623 0.0000 0.0000 -10883.5981 1462.1134 0.0000 0.0000 1802.7535 -7614.9871 303.6101 -9417.7406 -7612.1088 300.6643 -95.4339 -107.3121 30906.8695 -83.8080 -50.1771
ENERGY: 600000 0.0431 2.0339 0.0000 0.0000 -10830.7720 1455.3507 0.0000 0.0000 1789.2726 -7584.0717 301.3397 -9373.3443 -7601.9587 302.0940 217.3854 170.6225 30657.8849 -128.2474 -106.8872
ENERGY: 900000 0.5698 3.6521 0.0000 0.0000 -10860.1684 1544.4583 0.0000 0.0000 1779.2888 -7532.1994 299.6583 -9311.4883 -7595.4429 301.6655 899.5045 995.7493 30774.1054 -31.1284 14.2573
ENERGY: 1200000 0.0530 2.2945 0.0000 0.0000 -10785.4250 1432.1451 0.0000 0.0000 1792.6981 -7558.2344 301.9166 -9350.9325 -7596.0099 301.7536 -344.6044 -264.9371 31170.6440 -66.4695 -16.7182
ENERGY: 1500000 1.0292 1.3739 0.0000 0.0000 -10888.8634 1482.6934 0.0000 0.0000 1729.4730 -7674.2938 291.2685 -9403.7669 -7597.1532 300.6661 76.8797 169.4066 30687.3424 -53.2431 -1.7602
TCL: Running FEP window  13: Lambda1 0.6    Lambda2 0.65   [dLambda 0.050000000000000044]
TCL: Setting parameter firsttimestep to 0
TCL: Setting parameter alchLambda to 0.6
Info: NONBONDED TABLE R-SQUARED SPACING: 0.0625
Info: NONBONDED TABLE SIZE: 705 POINTS
TCL: Setting parameter alchLambda2 to 0.65
Info: NONBONDED TABLE R-SQUARED SPACING: 0.0625
Info: NONBONDED TABLE SIZE: 705 POINTS
TCL: Running for 1500000 steps
ETITLE: TS BOND ANGLE DIHED IMPRP ELECT VDW BOUNDARY MISC KINETIC TOTAL TEMP POTENTIAL TOTALAVG TEMPAVG PRESSURE GPRESSURE VOLUME PRESSAVG GPRESSAVG
ENERGY: 0 1.0292 1.3739 0.0000 0.0000 -10888.6681 1482.3630 0.0000 0.0000 1728.5840 -7675.3180 291.1188 -9403.9020 -7675.3180 291.1188 89.6263 168.1520 30687.3424 89.6263 168.1520
ENERGY: 300000 0.0024 1.4120 0.0000 0.0000 -10998.2395 1542.2651 0.0000 0.0000 1848.0189 -7606.5411 311.2334 -9454.5600 -7625.7545 301.9033 550.6292 621.9118 30586.3792 -30.8481 41.1037
ENERGY: 600000 0.0143 1.7807 0.0000 0.0000 -10826.6364 1465.2287 0.0000 0.0000 1746.9720 -7612.6407 294.2156 -9359.6127 -7609.6933 303.0479 260.1881 274.4099 30708.3564 52.2558 113.8570
ENERGY: 900000 0.0161 1.9361 0.0000 0.0000 -10855.2837 1416.1909 0.0000 0.0000 1869.2894 -7567.8511 314.8157 -9437.1405 -7610.3842 303.5668 -393.6913 -368.9309 30820.4892 -58.7431 0.6676
ENERGY: 1200000 0.1517 1.1480 0.0000 0.0000 -10763.8618 1424.2107 0.0000 0.0000 1748.4258 -7589.9256 294.4605 -9338.3515 -7607.5061 301.3319 -142.9250 -135.2102 30816.5655 -110.3335 -53.4160
ENERGY: 1500000 0.0611 1.4966 0.0000 0.0000 -10814.1798 1393.5503 0.0000 0.0000 1770.9070 -7648.1648 298.2466 -9419.0719 -7618.8566 300.3433 -685.2163 -627.5515 30854.2251 -230.9249 -174.2115
TCL: Running FEP window  14: Lambda1 0.65   Lambda2 0.7000000000000001 [dLambda 0.050000000000000044]
TCL: Setting parameter firsttimestep to 0
TCL: Setting parameter alchLambda to 0.65
Info: NONBONDED TABLE R-SQUARED SPACING: 0.0625
Info: NONBONDED TABLE SIZE: 705 POINTS
TCL: Setting parameter alchLambda2 to 0.7000000000000001
Info: NONBONDED TABLE R-SQUARED SPACING: 0.0625
Info: NONBONDED TABLE SIZE: 705 POINTS
TCL: Running for 1500000 steps
ETITLE: TS BOND ANGLE DIHED IMPRP ELECT VDW BOUNDARY MISC KINETIC TOTAL TEMP POTENTIAL TOTALAVG TEMPAVG PRESSURE GPRESSURE VOLUME PRESSAVG GPRESSAVG
ENERGY: 0 0.0611 1.4966 0.0000 0.0000 -10814.5406 1393.3660 0.0000 0.0000 1770.0390 -7649.5779 298.1004 -9419.6169 -7649.5779 298.1004 -719.3747 -626.6663 30854.2251 -719.3747 -626.6663
ENERGY: 300000 0.2425 4.6295 0.0000 0.0000 -10850.0916 1446.2166 0.0000 0.0000 1761.0656 -7637.9374 296.5892 -9399.0030 -7659.7386 298.9325 -3.5695 2.0791 30726.6839 -70.7258 -0.3867
ENERGY: 600000 0.0019 2.2578 0.0000 0.0000 -10875.7828 1414.8892 0.0000 0.0000 1832.1126 -7626.5213 308.5545 -9458.6339 -7644.9479 299.4119 -583.2128 -558.7973 31033.1403 -132.9026 -87.1149
ENERGY: 900000 0.0096 1.5044 0.0000 0.0000 -10944.3853 1473.8139 0.0000 0.0000 1792.5659 -7676.4915 301.8943 -9469.0574 -7636.3026 300.2587 -294.8833 -226.6032 31101.3743 -125.8816 -72.3141
ENERGY: 1200000 0.1660 2.3923 0.0000 0.0000 -10907.3905 1489.7925 0.0000 0.0000 1739.8439 -7675.1958 293.0152 -9415.0397 -7639.2900 299.8805 207.7583 213.6088 30621.3262 -122.3136 -73.8170
ENERGY: 1500000 0.0019 1.4856 0.0000 0.0000 -10819.5909 1447.2322 0.0000 0.0000 1790.4429 -7580.4283 301.5368 -9370.8712 -7626.4368 300.0895 -6.5749 61.0954 30706.0620 -132.9428 -90.0891
TCL: Running FEP window  15: Lambda1 0.7000000000000001 Lambda2 0.7500000000000001 [dLambda 0.050000000000000044]
TCL: Setting parameter firsttimestep to 0
TCL: Setting parameter alchLambda to 0.7000000000000001
Info: NONBONDED TABLE R-SQUARED SPACING: 0.0625
Info: NONBONDED TABLE SIZE: 705 POINTS
TCL: Setting parameter alchLambda2 to 0.7500000000000001
Info: NONBONDED TABLE R-SQUARED SPACING: 0.0625
Info: NONBONDED TABLE SIZE: 705 POINTS
TCL: Running for 1500000 steps
ETITLE: TS BOND ANGLE DIHED IMPRP ELECT VDW BOUNDARY MISC KINETIC TOTAL TEMP POTENTIAL TOTALAVG TEMPAVG PRESSURE GPRESSURE VOLUME PRESSAVG GPRESSAVG
ENERGY: 0 0.0019 1.4856 0.0000 0.0000 -10819.7020 1447.3431 0.0000 0.0000 1789.5381 -7581.3333 301.3844 -9370.8714 -7581.3333 301.3844 -21.8805 66.9772 30706.0620 -21.8805 66.9772
ENERGY: 300000 0.0000 1.7141 0.0000 0.0000 -11064.2184 1550.7818 0.0000 0.0000 1821.6549 -7690.0676 306.7933 -9511.7226 -7631.8583 302.8184 556.5967 603.5411 30420.0587 335.9786 410.1050
ENERGY: 600000 0.0042 1.2079 0.0000 0.0000 -10788.0194 1368.5433 0.0000 0.0000 1769.8459 -7648.4181 298.0679 -9418.2640 -7626.8124 301.2802 -825.0799 -682.5963 30653.7077 33.7115 113.3661
ENERGY: 900000 0.1499 2.2723 0.0000 0.0000 -10884.4157 1416.8780 0.0000 0.0000 1750.4343 -7714.6811 294.7987 -9465.1154 -7641.7684 300.3190 -531.9159 -454.9357 30688.4203 -70.8520 6.3293
ENERGY: 1200000 0.1259 2.6078 0.0000 0.0000 -10766.7964 1451.9387 0.0000 0.0000 1822.1802 -7489.9438 306.8818 -9312.1240 -7623.7680 300.3987 237.1874 293.1145 30910.9670 44.7779 119.1567
ENERGY: 1500000 1.6350 1.4861 0.0000 0.0000 -10842.9173 1472.2371 0.0000 0.0000 1776.8967 -7590.6623 299.2554 -9367.5590 -7617.3214 300.4373 -44.7704 114.7388 30851.5073 50.1188 118.1915
TCL: Running FEP window  16: Lambda1 0.7500000000000001 Lambda2 0.8000000000000002 [dLambda 0.050000000000000044]
TCL: Setting parameter firsttimestep to 0
TCL: Setting parameter alchLambda to 0.7500000000000001
Info: NONBONDED TABLE R-SQUARED SPACING: 0.0625
Info: NONBONDED TABLE SIZE: 705 POINTS
TCL: Setting parameter alchLambda2 to 0.8000000000000002
Info: NONBONDED TABLE R-SQUARED SPACING: 0.0625
Info: NONBONDED TABLE SIZE: 705 POINTS
TCL: Running for 1500000 steps
ETITLE: TS BOND ANGLE DIHED IMPRP ELECT VDW BOUNDARY MISC KINETIC TOTAL TEMP POTENTIAL TOTALAVG TEMPAVG PRESSURE GPRESSURE VOLUME PRESSAVG GPRESSAVG
ENERGY: 0 1.6350 1.4861 0.0000 0.0000 -10843.4437 1472.9216 0.0000 0.0000 1776.0394 -7591.3616 299.1110 -9367.4010 -7591.3616 299.1110 41.5773 127.9994 30851.5073 41.5773 127.9994
ENERGY: 300000 0.0056 3.5706 0.0000 0.0000 -10910.4645 1497.5814 0.0000 0.0000 1789.6961 -7619.6107 301.4110 -9409.3068 -7616.4337 299.4920 125.0791 209.5829 30732.7827 -91.8074 -7.6747
ENERGY: 600000 0.3579 1.4124 0.0000 0.0000 -10939.6689 1516.7010 0.0000 0.0000 1728.3041 -7692.8935 291.0717 -9421.1976 -7638.2548 298.6092 355.7494 386.9531 30807.1297 -140.0537 -64.2961
ENERGY: 900000 0.0217 1.7072 0.0000 0.0000 -10794.1521 1378.4386 0.0000 0.0000 1769.4840 -7644.5006 298.0070 -9413.9847 -7624.1138 299.4406 -736.4901 -643.6030 30988.9084 -192.5139 -117.3460
ENERGY: 1200000 0.0190 2.7350 0.0000 0.0000 -10792.4124 1438.4521 0.0000 0.0000 1845.8948 -7505.3115 310.8757 -9351.2063 -7604.5536 300.5120 -98.6531 3.3799 30923.5792 -150.9075 -76.5566
ENERGY: 1500000 0.1957 1.4912 0.0000 0.0000 -10772.9693 1426.4851 0.0000 0.0000 1710.0938 -7634.7034 288.0048 -9344.7972 -7607.6828 299.4638 -344.9714 -290.4782 30982.5530 -121.6017 -47.2526
TCL: Running FEP window  17: Lambda1 0.8000000000000002 Lambda2 0.8500000000000002 [dLambda 0.050000000000000044]
TCL: Setting parameter firsttimestep to 0
TCL: Setting parameter alchLambda to 0.8000000000000002
Info: NONBONDED TABLE R-SQUARED SPACING: 0.0625
Info: NONBONDED TABLE SIZE: 705 POINTS
TCL: Setting parameter alchLambda2 to 0.8500000000000002
Info: NONBONDED TABLE R-SQUARED SPACING: 0.0625
Info: NONBONDED TABLE SIZE: 705 POINTS
TCL: Running for 1500000 steps
ETITLE: TS BOND ANGLE DIHED IMPRP ELECT VDW BOUNDARY MISC KINETIC TOTAL TEMP POTENTIAL TOTALAVG TEMPAVG PRESSURE GPRESSURE VOLUME PRESSAVG GPRESSAVG
ENERGY: 0 0.1957 1.4912 0.0000 0.0000 -10773.3185 1426.3519 0.0000 0.0000 1709.1812 -7636.0985 287.8511 -9345.2796 -7636.0985 287.8511 -364.4994 -289.0015 30982.5530 -364.4994 -289.0015
ENERGY: 300000 0.0020 2.5477 0.0000 0.0000 -10832.2006 1497.0018 0.0000 0.0000 1774.1259 -7558.5232 298.7887 -9332.6491 -7578.6386 300.0263 388.6367 404.1038 30840.9063 2.9696 51.5369
ENERGY: 600000 0.3711 3.7776 0.0000 0.0000 -10924.4663 1512.1432 0.0000 0.0000 1798.1702 -7610.0041 302.8382 -9408.1743 -7605.5399 301.2045 242.4810 292.6064 30772.2601 -100.6540 -36.3905
ENERGY: 900000 0.6588 4.3095 0.0000 0.0000 -10830.5896 1437.6479 0.0000 0.0000 1817.8331 -7570.1403 306.1497 -9387.9734 -7617.4785 300.2950 -173.5424 8.5952 30639.2563 4.6619 82.4026
ENERGY: 1200000 0.1058 2.2037 0.0000 0.0000 -10735.7971 1362.3940 0.0000 0.0000 1812.2090 -7558.8847 305.2025 -9371.0936 -7612.4399 300.3621 -841.3351 -796.2109 31294.7609 -79.5286 -1.4753
ENERGY: 1500000 0.1725 1.1862 0.0000 0.0000 -10857.6736 1494.5537 0.0000 0.0000 1767.6740 -7594.0873 297.7021 -9361.7613 -7605.2658 300.0480 514.0144 581.9248 30217.6607 2.1924 74.0991
TCL: Running FEP window  18: Lambda1 0.8500000000000002 Lambda2 0.9000000000000002 [dLambda 0.050000000000000044]
TCL: Setting parameter firsttimestep to 0
TCL: Setting parameter alchLambda to 0.8500000000000002
Info: NONBONDED TABLE R-SQUARED SPACING: 0.0625
Info: NONBONDED TABLE SIZE: 705 POINTS
TCL: Setting parameter alchLambda2 to 0.9000000000000002
Info: NONBONDED TABLE R-SQUARED SPACING: 0.0625
Info: NONBONDED TABLE SIZE: 705 POINTS
TCL: Running for 1500000 steps
ETITLE: TS BOND ANGLE DIHED IMPRP ELECT VDW BOUNDARY MISC KINETIC TOTAL TEMP POTENTIAL TOTALAVG TEMPAVG PRESSURE GPRESSURE VOLUME PRESSAVG GPRESSAVG
ENERGY: 0 0.1725 1.1862 0.0000 0.0000 -10858.3518 1494.5099 0.0000 0.0000 1766.7747 -7595.7087 297.5507 -9362.4833 -7595.7087 297.5507 508.1268 584.8877 30217.6607 508.1268 584.8877
ENERGY: 300000 0.0528 1.1254 0.0000 0.0000 -10910.4532 1449.6476 0.0000 0.0000 1765.7673 -7693.8601 297.3810 -9459.6274 -7624.1371 298.2700 -497.3287 -436.7858 31478.6392 140.6739 209.0873
ENERGY: 600000 1.5492 1.4619 0.0000 0.0000 -10824.9427 1391.4445 0.0000 0.0000 1837.6489 -7592.8382 309.4869 -9430.4871 -7632.0755 299.7798 -417.1292 -322.2260 30592.3544 8.6795 85.1885
ENERGY: 900000 0.8801 2.6097 0.0000 0.0000 -10875.6572 1457.2147 0.0000 0.0000 1771.2725 -7643.6804 298.3082 -9414.9528 -7638.1751 299.2562 -318.9477 -266.0202 31093.4785 55.8471 126.8162
ENERGY: 1200000 0.3342 2.2025 0.0000 0.0000 -10834.5626 1463.9137 0.0000 0.0000 1821.1560 -7546.9561 306.7093 -9368.1122 -7621.1735 299.9810 9.6702 170.7399 30808.9635 48.1151 127.5505
ENERGY: 1500000 0.7488 2.3176 0.0000 0.0000 -10842.8908 1466.7761 0.0000 0.0000 1795.2867 -7577.7616 302.3525 -9373.0484 -7618.1021 300.5171 -61.0137 48.0373 30898.1464 -0.2259 77.9920
TCL: Running FEP window  19: Lambda1 0.9000000000000002 Lambda2 0.9500000000000003 [dLambda 0.050000000000000044]
TCL: Setting parameter firsttimestep to 0
TCL: Setting parameter alchLambda to 0.9000000000000002
Info: NONBONDED TABLE R-SQUARED SPACING: 0.0625
Info: NONBONDED TABLE SIZE: 705 POINTS
TCL: Setting parameter alchLambda2 to 0.9500000000000003
Info: NONBONDED TABLE R-SQUARED SPACING: 0.0625
Info: NONBONDED TABLE SIZE: 705 POINTS
TCL: Running for 1500000 steps
ETITLE: TS BOND ANGLE DIHED IMPRP ELECT VDW BOUNDARY MISC KINETIC TOTAL TEMP POTENTIAL TOTALAVG TEMPAVG PRESSURE GPRESSURE VOLUME PRESSAVG GPRESSAVG
ENERGY: 0 0.7488 2.3176 0.0000 0.0000 -10843.5022 1466.6253 0.0000 0.0000 1794.3755 -7579.4350 302.1991 -9373.8105 -7579.4350 302.1991 -39.2501 49.5321 30898.1464 -39.2501 49.5321
ENERGY: 300000 0.0091 2.2461 0.0000 0.0000 -10695.2832 1376.1073 0.0000 0.0000 1787.6312 -7529.2894 301.0632 -9316.9206 -7599.1411 299.8212 -267.8421 -262.1578 30650.0121 74.1698 117.7673
ENERGY: 600000 0.0002 2.9555 0.0000 0.0000 -11021.5784 1607.0580 0.0000 0.0000 1782.6479 -7628.9169 300.2240 -9411.5648 -7586.6695 299.6923 1176.6782 1271.0057 30282.7114 303.1931 359.3716
ENERGY: 900000 0.0802 1.4583 0.0000 0.0000 -10799.1167 1420.4779 0.0000 0.0000 1744.2611 -7632.8392 293.7591 -9377.1003 -7592.3974 298.9971 -393.7278 -314.7692 30993.4234 191.1464 250.3552
ENERGY: 1200000 0.2895 2.3034 0.0000 0.0000 -10767.8906 1383.7327 0.0000 0.0000 1775.1798 -7606.3853 298.9662 -9381.5651 -7594.5333 299.1110 -678.6133 -613.3105 30874.9560 210.7390 268.9804
ENERGY: 1500000 0.2519 1.5324 0.0000 0.0000 -10783.3308 1444.2518 0.0000 0.0000 1763.9023 -7573.3924 297.0669 -9337.2946 -7594.8116 299.1286 282.1067 347.4826 30521.7408 181.8425 237.7748
TCL: Running FEP window  20: Lambda1 0.9500000000000003 Lambda2 1.0    [dLambda 0.04999999999999971]
TCL: Setting parameter firsttimestep to 0
TCL: Setting parameter alchLambda to 0.9500000000000003
Info: NONBONDED TABLE R-SQUARED SPACING: 0.0625
Info: NONBONDED TABLE SIZE: 705 POINTS
TCL: Setting parameter alchLambda2 to 1.0
Info: NONBONDED TABLE R-SQUARED SPACING: 0.0625
Info: NONBONDED TABLE SIZE: 705 POINTS
TCL: Running for 1500000 steps
ETITLE: TS BOND ANGLE DIHED IMPRP ELECT VDW BOUNDARY MISC KINETIC TOTAL TEMP POTENTIAL TOTALAVG TEMPAVG PRESSURE GPRESSURE VOLUME PRESSAVG GPRESSAVG
ENERGY: 0 0.2519 1.5324 0.0000 0.0000 -10783.4182 1444.2749 0.0000 0.0000 1762.9797 -7574.3792 296.9116 -9337.3589 -7574.3792 296.9116 265.8748 352.0428 30521.7408 265.8748 352.0428
ENERGY: 300000 0.4714 2.1405 0.0000 0.0000 -10968.2141 1572.4266 0.0000 0.0000 1720.1692 -7673.0065 289.7016 -9393.1756 -7624.6394 298.5906 811.4623 905.2714 30647.0571 148.7496 228.4104
ENERGY: 600000 0.2968 1.4569 0.0000 0.0000 -10759.1137 1410.3054 0.0000 0.0000 1791.6847 -7555.3700 301.7459 -9347.0547 -7615.0312 298.1046 -328.6963 -266.0232 31026.8371 -88.0497 -17.7592
ENERGY: 900000 1.3588 2.4670 0.0000 0.0000 -10804.9571 1428.1484 0.0000 0.0000 1793.7362 -7579.2467 302.0914 -9372.9829 -7623.2165 299.0286 -149.7968 -53.1791 30650.6138 57.8758 123.5716
ENERGY: 1200000 0.0141 0.8840 0.0000 0.0000 -10906.1510 1480.9853 0.0000 0.0000 1753.2656 -7671.0020 295.2756 -9424.2676 -7619.0672 298.3579 384.4453 406.6608 30367.5956 72.4311 137.4677
ENERGY: 1500000 0.0767 1.2244 0.0000 0.0000 -10844.9539 1457.5306 0.0000 0.0000 1799.0241 -7587.0982 302.9820 -9386.1223 -7612.0833 299.3927 -325.3404 -226.9791 31354.5399 23.5171 90.8302
TCL: Exiting due to exit command.
