Info: SIMULATION PARAMETERS:
Info: TIMESTEP               2
Info: NUMBER OF STEPS        0
Info: STEPS PER CYCLE        10
Info: PERIODIC CELL BASIS 1  36.005 0 0
Info: PERIODIC CELL BASIS 2  0 34.26 0
Info: PERIODIC CELL BASIS 3  0 0 36.199
Info: PERIODIC CELL CENTER   0 0 0
Info: WRAPPING WATERS AROUND PERIODIC BOUNDARIES ON OUTPUT.
Info: WRAPPING ALL CLUSTERS AROUND PERIODIC BOUNDARIES ON OUTPUT.
Info: FIRST LDB TIMESTEP     50
Info: LAST LDB TIMESTEP     -1
Info: HOM BACKGROUND SCALING 1
Info: PME BACKGROUND SCALING 1
Info: MIN ATOMS PER PATCH    40
Info: EMPTY PATCH LOAD       40 ATOMS
Info: INITIAL TEMPERATURE    300
Info: CENTER OF MASS MOVING INITIALLY? NO
Info: DIELECTRIC             1
Info: EXCLUDE                SCALED ONE-FOUR
Info: 1-4 ELECTROSTATICS SCALED BY 0.833333
Info: MODIFIED 1-4 VDW PARAMETERS WILL BE USED
Info: DCD FILENAME           mobley_296847_equil.dcd
Info: DCD FREQUENCY          100000
Info: DCD FIRST STEP         100000
Info: DCD FILE WILL CONTAIN UNIT CELL DATA
Info: XST FILENAME           mobley_296847_equil.xst
Info: XST FREQUENCY          100000
Info: NO VELOCITY DCD OUTPUT
Info: NO FORCE DCD OUTPUT
Info: OUTPUT FILENAME        mobley_296847_equil
Info: BINARY OUTPUT FILES WILL BE USED
Info: RESTART FILENAME       mobley_296847_equil.restart
Info: RESTART FREQUENCY      100000
Info: BINARY RESTART FILES WILL BE USED
Info: CUTOFF                 9
Info: PAIRLIST DISTANCE      11
Info: PAIRLIST SHRINK RATE   0.01
Info: PAIRLIST GROW RATE     0.01
Info: PAIRLIST TRIGGER       0.3
Info: PAIRLISTS PER CYCLE    2
Info: PAIRLISTS ENABLED
Info: MARGIN                 8
Info: HYDROGEN GROUP CUTOFF  2.5
Info: PATCH DIMENSION        21.5
Info: ENERGY OUTPUT STEPS    100000
Info: ENERGY EVALUATION STEPS    100000
Info: OUTPUT ENERGY PRECISION 4
Info: CROSSTERM ENERGY INCLUDED IN DIHEDRAL
Info: TIMING OUTPUT STEPS    1000000
Info: PRESSURE OUTPUT STEPS  100000
Info: LANGEVIN DYNAMICS ACTIVE
Info: LANGEVIN TEMPERATURE   30
Info: LANGEVIN USING BBK INTEGRATOR
Info: LANGEVIN DAMPING COEFFICIENT IS 1 INVERSE PS
Info: LANGEVIN DYNAMICS APPLIED TO HYDROGENS
Info: LANGEVIN PISTON PRESSURE CONTROL ACTIVE
Info:        TARGET PRESSURE IS 1.01325 BAR
Info:     OSCILLATION PERIOD IS 50 FS
Info:             DECAY TIME IS 25 FS
Info:     PISTON TEMPERATURE IS 300 K
Info:       PRESSURE CONTROL IS GROUP-BASED
Info:    INITIAL STRAIN RATE IS 0 0 0
Info:       CELL FLUCTUATION IS ISOTROPIC
Info: PARTICLE MESH EWALD (PME) ACTIVE
Info: PME TOLERANCE               1e-06
Info: PME EWALD COEFFICIENT       0.348832
Info: PME INTERPOLATION ORDER     4
Info: PME GRID DIMENSIONS         40 36 40
Info: PME MAXIMUM GRID SPACING    1
Info: FULL ELECTROSTATIC EVALUATION FREQUENCY      2
Info: USING VERLET I (r-RESPA) MTS SCHEME.
Info: C1 SPLITTING OF LONG RANGE ELECTROSTATICS
Info: PLACING ATOMS IN PATCHES BY HYDROGEN GROUPS
Info: RIGID BONDS TO HYDROGEN : ALL
Info:         ERROR TOLERANCE : 1e-08
Info:          MAX ITERATIONS : 100
Info: RIGID WATER USING SETTLE ALGORITHM
Info: RANDOM NUMBER SEED     1743161367
Info: USE HYDROGEN BONDS?    NO
Info: Using AMBER format force field!
Info: AMBER PARM FILE        mobley_296847.prmtop
Info: COORDINATE PDB         mobley_296847.pdb
Info: Exclusions will be read from PARM file!
Info: SCNB (VDW SCALING)     2
Info: USING ARITHMETIC MEAN TO COMBINE L-J SIGMA PARAMETERS
Info: BINARY COORDINATES     mobley_296847_min.coor
Info: SUMMARY OF PARAMETERS:
Info: 6 BONDS
Info: 6 ANGLES
Info:   6 HARMONIC
Info:   0 COSINE-BASED
Info: 3 DIHEDRAL
Info: 0 IMPROPER
Info: 0 CROSSTERM
Info: 0 VDW
Info: 21 VDW_PAIRS
Info: 0 NBTHOLE_PAIRS
Info: STRUCTURE SUMMARY:
Info: 2969 ATOMS
Info: 2969 BONDS
Info: 16 ANGLES
Info: 25 DIHEDRALS
Info: 0 IMPROPERS
Info: 0 CROSSTERMS
Info: 3002 EXCLUSIONS
Info: 2963 RIGID BONDS
Info: 5944 DEGREES OF FREEDOM
Info: 992 HYDROGEN GROUPS
Info: 3 ATOMS IN LARGEST HYDROGEN GROUP
Info: 992 MIGRATION GROUPS
Info: 3 ATOMS IN LARGEST MIGRATION GROUP
Info: TOTAL MASS = 17842.9 amu
Info: TOTAL CHARGE = -0.000199944 e
Info: MASS DENSITY = 0.663556 g/cm^3
Info: ATOM DENSITY = 0.0664911 atoms/A^3
Info: ADDED 0 IMPLICIT EXCLUSIONS
Info: NONBONDED TABLE R-SQUARED SPACING: 0.0625
Info: NONBONDED TABLE SIZE: 705 POINTS
Info: REMOVING COM VELOCITY 0.0872566 -0.0347209 -0.0653809
TCL: Running for 100000 steps
ETITLE: TS BOND ANGLE DIHED IMPRP ELECT VDW BOUNDARY MISC KINETIC TOTAL TEMP POTENTIAL TOTAL3 TEMPAVG PRESSURE GPRESSURE VOLUME PRESSAVG GPRESSAVG
ENERGY: 0 0.1660 0.2313 0.0483 0.0000 -13762.1996 2422.2237 0.0000 0.0000 1749.7678 -9589.7624 296.2730 -11339.5303 -9589.4385 296.2730 481.7890 522.9076 44652.5995 481.7890 522.9076
ENERGY: 100000 0.5168 0.6925 0.5140 0.0000 -14282.5372 2405.6648 0.0000 0.0000 181.9325 -11693.2165 30.8050 -11875.1490 -11692.6891 30.9994 -762.1898 -703.6164 28647.8677 3.7518 3.7587
TCL: Running 100000 steps at 60 kelvin.
TCL: Setting parameter langevinTemp to 60
TCL: Running for 100000 steps
ETITLE: TS BOND ANGLE DIHED IMPRP ELECT VDW BOUNDARY MISC KINETIC TOTAL TEMP POTENTIAL TOTAL3 TEMPAVG PRESSURE GPRESSURE VOLUME PRESSAVG GPRESSAVG
ENERGY: 100000 0.5168 0.6925 0.5140 0.0000 -14282.5372 2405.6648 0.0000 0.0000 181.8461 -11693.3030 30.7904 -11875.1490 -11692.9589 30.7904 -753.5543 -703.3723 28647.8677 -753.5543 -703.3723
ENERGY: 200000 0.7742 0.9529 0.6389 0.0000 -14214.7043 2417.8786 0.0000 0.0000 356.1473 -11438.3125 60.3033 -11794.4597 -11437.7110 60.0727 -266.2023 -188.4093 28442.5798 5.1269 5.0985
TCL: Running 100000 steps at 90 kelvin.
TCL: Setting parameter langevinTemp to 90
TCL: Running for 100000 steps
ETITLE: TS BOND ANGLE DIHED IMPRP ELECT VDW BOUNDARY MISC KINETIC TOTAL TEMP POTENTIAL TOTAL3 TEMPAVG PRESSURE GPRESSURE VOLUME PRESSAVG GPRESSAVG
ENERGY: 200000 0.7742 0.9529 0.6389 0.0000 -14214.7043 2417.8786 0.0000 0.0000 355.9722 -11438.4875 60.2737 -11794.4597 -11437.6828 60.2737 -234.0219 -188.6322 28442.5798 -234.0219 -188.6322
ENERGY: 300000 0.2458 0.3740 0.4437 0.0000 -14181.4079 2473.1611 0.0000 0.0000 542.6994 -11164.4839 91.8906 -11707.1833 -11163.3614 89.9110 628.0089 657.8761 28368.0165 3.2673 3.2701
TCL: Running 100000 steps at 120 kelvin.
TCL: Setting parameter langevinTemp to 120
TCL: Running for 100000 steps
ETITLE: TS BOND ANGLE DIHED IMPRP ELECT VDW BOUNDARY MISC KINETIC TOTAL TEMP POTENTIAL TOTAL3 TEMPAVG PRESSURE GPRESSURE VOLUME PRESSAVG GPRESSAVG
ENERGY: 300000 0.2458 0.3740 0.4437 0.0000 -14181.4079 2473.1611 0.0000 0.0000 542.4418 -11164.7415 91.8470 -11707.1833 -11163.6892 91.8470 613.8900 657.4515 28368.0165 613.8900 657.4515
ENERGY: 400000 0.2414 1.0939 1.3433 0.0000 -13910.0226 2369.1332 0.0000 0.0000 737.2380 -10800.9729 124.8301 -11538.2109 -10799.8780 119.8471 538.8305 555.7952 28488.5562 4.4218 4.4926
TCL: Running 100000 steps at 150 kelvin.
TCL: Setting parameter langevinTemp to 150
TCL: Running for 100000 steps
ETITLE: TS BOND ANGLE DIHED IMPRP ELECT VDW BOUNDARY MISC KINETIC TOTAL TEMP POTENTIAL TOTAL3 TEMPAVG PRESSURE GPRESSURE VOLUME PRESSAVG GPRESSAVG
ENERGY: 400000 0.2414 1.0939 1.3433 0.0000 -13910.0226 2369.1332 0.0000 0.0000 736.8834 -10801.3275 124.7701 -11538.2109 -10799.7750 124.7701 501.2824 554.3070 28488.5562 501.2824 554.3070
ENERGY: 500000 0.9234 0.3546 1.9261 0.0000 -13651.7179 2291.6222 0.0000 0.0000 853.4501 -10503.4415 144.5073 -11356.8916 -10501.4411 150.1173 326.9445 418.9021 28792.9012 4.1271 4.0080
TCL: Running 100000 steps at 180 kelvin.
TCL: Setting parameter langevinTemp to 180
TCL: Running for 100000 steps
ETITLE: TS BOND ANGLE DIHED IMPRP ELECT VDW BOUNDARY MISC KINETIC TOTAL TEMP POTENTIAL TOTAL3 TEMPAVG PRESSURE GPRESSURE VOLUME PRESSAVG GPRESSAVG
ENERGY: 500000 0.9234 0.3546 1.9261 0.0000 -13651.7179 2291.6222 0.0000 0.0000 853.0140 -10503.8776 144.4334 -11356.8916 -10502.0812 144.4334 360.6605 418.7331 28792.9012 360.6605 418.7331
ENERGY: 600000 0.7097 0.7117 1.3301 0.0000 -13288.9127 2196.1394 0.0000 0.0000 1061.1765 -10028.8454 179.6798 -11090.0220 -10026.7922 179.6456 520.4131 560.0234 28942.2547 3.3753 3.4592
TCL: Running 100000 steps at 210 kelvin.
TCL: Setting parameter langevinTemp to 210
TCL: Running for 100000 steps
ETITLE: TS BOND ANGLE DIHED IMPRP ELECT VDW BOUNDARY MISC KINETIC TOTAL TEMP POTENTIAL TOTAL3 TEMPAVG PRESSURE GPRESSURE VOLUME PRESSAVG GPRESSAVG
ENERGY: 600000 0.7097 0.7117 1.3301 0.0000 -13288.9127 2196.1394 0.0000 0.0000 1060.6467 -10029.3753 179.5901 -11090.0220 -10027.4568 179.5901 506.1024 561.1960 28942.2547 506.1024 561.1960
ENERGY: 700000 1.5979 2.0692 2.9198 0.0000 -12483.5077 1884.2142 0.0000 0.0000 1237.8755 -9354.8312 209.5987 -10592.7066 -9350.4020 209.9551 -133.5675 -117.7591 28947.8541 3.4516 3.4809
TCL: Running 100000 steps at 240 kelvin.
TCL: Setting parameter langevinTemp to 240
TCL: Running for 100000 steps
ETITLE: TS BOND ANGLE DIHED IMPRP ELECT VDW BOUNDARY MISC KINETIC TOTAL TEMP POTENTIAL TOTAL3 TEMPAVG PRESSURE GPRESSURE VOLUME PRESSAVG GPRESSAVG
ENERGY: 700000 1.5979 2.0692 2.9198 0.0000 -12483.5077 1884.2142 0.0000 0.0000 1237.2639 -9355.4428 209.4951 -10592.7066 -9352.9275 209.4951 -205.5661 -117.1568 28947.8541 -205.5661 -117.1568
ENERGY: 800000 1.6732 1.8802 1.4681 0.0000 -11788.7974 1673.4568 0.0000 0.0000 1459.8658 -8650.4533 247.1864 -10110.3191 -8647.6119 239.7386 -374.6889 -258.3937 29448.5717 3.1570 3.2192
TCL: Running 100000 steps at 270 kelvin.
TCL: Setting parameter langevinTemp to 270
TCL: Running for 100000 steps
ETITLE: TS BOND ANGLE DIHED IMPRP ELECT VDW BOUNDARY MISC KINETIC TOTAL TEMP POTENTIAL TOTAL3 TEMPAVG PRESSURE GPRESSURE VOLUME PRESSAVG GPRESSAVG
ENERGY: 800000 1.6732 1.8802 1.4681 0.0000 -11788.7974 1673.4568 0.0000 0.0000 1459.1565 -8651.1626 247.0663 -10110.3191 -8648.2308 247.0663 -340.7307 -259.3447 29448.5717 -340.7307 -259.3447
ENERGY: 900000 1.6336 4.4753 0.6826 0.0000 -11412.4279 1650.5510 0.0000 0.0000 1574.1212 -8180.9642 266.5322 -9755.0854 -8176.8878 269.9586 338.7134 426.8968 29781.2870 3.3905 3.5187
TCL: Running 1000000 steps at 300 kelvin.
TCL: Setting parameter langevinTemp to 300
TCL: Running for 1000000 steps
ETITLE: TS BOND ANGLE DIHED IMPRP ELECT VDW BOUNDARY MISC KINETIC TOTAL TEMP POTENTIAL TOTAL3 TEMPAVG PRESSURE GPRESSURE VOLUME PRESSAVG GPRESSAVG
ENERGY: 900000 1.6336 4.4753 0.6826 0.0000 -11412.4279 1650.5510 0.0000 0.0000 1573.3256 -8181.7598 266.3975 -9755.0854 -8179.4930 266.3975 331.8798 426.0034 29781.2870 331.8798 426.0034
ENERGY: 1100000 2.2535 1.1643 3.6636 0.0000 -10925.7407 1521.3770 0.0000 0.0000 1747.9617 -7649.3207 295.9671 -9397.2824 -7645.5464 299.7295 87.7850 197.6126 30584.0446 4.1649 4.1113
ENERGY: 1300000 0.3610 3.4187 2.0401 0.0000 -10778.8675 1417.2757 0.0000 0.0000 1722.0607 -7633.7113 291.5815 -9355.7720 -7629.5280 300.4914 -535.1503 -368.4777 30599.9495 3.1787 3.0618
ENERGY: 1500000 1.5090 2.2066 3.2654 0.0000 -10778.8557 1475.3924 0.0000 0.0000 1740.1010 -7556.3814 294.6361 -9296.4823 -7557.0434 300.6790 147.3902 280.8930 30593.8468 2.3173 2.2014
ENERGY: 1700000 1.8532 2.9148 2.5205 0.0000 -10792.7835 1479.7776 0.0000 0.0000 1789.7134 -7516.0039 303.0366 -9305.7174 -7511.7152 300.4294 84.0378 165.7803 30789.7199 2.7941 2.9640
ENERGY: 1900000 1.8029 2.6550 0.9269 0.0000 -10841.2699 1479.0298 0.0000 0.0000 1793.2427 -7563.6127 303.6342 -9356.8554 -7563.0119 300.4059 517.8764 578.1232 30101.8097 3.5958 3.5960
TCL: Exiting due to exit command.
