Info: SIMULATION PARAMETERS:
Info: TIMESTEP               2
Info: NUMBER OF STEPS        0
Info: STEPS PER CYCLE        10
Info: PERIODIC CELL BASIS 1  36.005 0 0
Info: PERIODIC CELL BASIS 2  0 34.696 0
Info: PERIODIC CELL BASIS 3  0 0 35.516
Info: PERIODIC CELL CENTER   0 0 0
Info: WRAPPING WATERS AROUND PERIODIC BOUNDARIES ON OUTPUT.
Info: WRAPPING ALL CLUSTERS AROUND PERIODIC BOUNDARIES ON OUTPUT.
Info: FIRST LDB TIMESTEP     50
Info: LAST LDB TIMESTEP     -1
Info: HOM BACKGROUND SCALING 1
Info: PME BACKGROUND SCALING 1
Info: MIN ATOMS PER PATCH    40
Info: EMPTY PATCH LOAD       40 ATOMS
Info: INITIAL TEMPERATURE    300
Info: CENTER OF MASS MOVING INITIALLY? NO
Info: DIELECTRIC             1
Info: EXCLUDE                SCALED ONE-FOUR
Info: 1-4 ELECTROSTATICS SCALED BY 0.833333
Info: MODIFIED 1-4 VDW PARAMETERS WILL BE USED
Info: DCD FILENAME           mobley_5026370_equil.dcd
Info: DCD FREQUENCY          100000
Info: DCD FIRST STEP         100000
Info: DCD FILE WILL CONTAIN UNIT CELL DATA
Info: XST FILENAME           mobley_5026370_equil.xst
Info: XST FREQUENCY          100000
Info: NO VELOCITY DCD OUTPUT
Info: NO FORCE DCD OUTPUT
Info: OUTPUT FILENAME        mobley_5026370_equil
Info: BINARY OUTPUT FILES WILL BE USED
Info: RESTART FILENAME       mobley_5026370_equil.restart
Info: RESTART FREQUENCY      100000
Info: BINARY RESTART FILES WILL BE USED
Info: CUTOFF                 9
Info: PAIRLIST DISTANCE      11
Info: PAIRLIST SHRINK RATE   0.01
Info: PAIRLIST GROW RATE     0.01
Info: PAIRLIST TRIGGER       0.3
Info: PAIRLISTS PER CYCLE    2
Info: PAIRLISTS ENABLED
Info: MARGIN                 8
Info: HYDROGEN GROUP CUTOFF  2.5
Info: PATCH DIMENSION        21.5
Info: ENERGY OUTPUT STEPS    100000
Info: ENERGY EVALUATION STEPS    100000
Info: OUTPUT ENERGY PRECISION 4
Info: CROSSTERM ENERGY INCLUDED IN DIHEDRAL
Info: TIMING OUTPUT STEPS    1000000
Info: PRESSURE OUTPUT STEPS  100000
Info: LANGEVIN DYNAMICS ACTIVE
Info: LANGEVIN TEMPERATURE   30
Info: LANGEVIN USING BBK INTEGRATOR
Info: LANGEVIN DAMPING COEFFICIENT IS 1 INVERSE PS
Info: LANGEVIN DYNAMICS APPLIED TO HYDROGENS
Info: LANGEVIN PISTON PRESSURE CONTROL ACTIVE
Info:        TARGET PRESSURE IS 1.01325 BAR
Info:     OSCILLATION PERIOD IS 50 FS
Info:             DECAY TIME IS 25 FS
Info:     PISTON TEMPERATURE IS 300 K
Info:       PRESSURE CONTROL IS GROUP-BASED
Info:    INITIAL STRAIN RATE IS 0 0 0
Info:       CELL FLUCTUATION IS ISOTROPIC
Info: PARTICLE MESH EWALD (PME) ACTIVE
Info: PME TOLERANCE               1e-06
Info: PME EWALD COEFFICIENT       0.348832
Info: PME INTERPOLATION ORDER     4
Info: PME GRID DIMENSIONS         40 36 36
Info: PME MAXIMUM GRID SPACING    1
Info: FULL ELECTROSTATIC EVALUATION FREQUENCY      2
Info: USING VERLET I (r-RESPA) MTS SCHEME.
Info: C1 SPLITTING OF LONG RANGE ELECTROSTATICS
Info: PLACING ATOMS IN PATCHES BY HYDROGEN GROUPS
Info: RIGID BONDS TO HYDROGEN : ALL
Info:         ERROR TOLERANCE : 1e-08
Info:          MAX ITERATIONS : 100
Info: RIGID WATER USING SETTLE ALGORITHM
Info: RANDOM NUMBER SEED     1743163275
Info: USE HYDROGEN BONDS?    NO
Info: Using AMBER format force field!
Info: AMBER PARM FILE        mobley_5026370.prmtop
Info: COORDINATE PDB         mobley_5026370.pdb
Info: Exclusions will be read from PARM file!
Info: SCNB (VDW SCALING)     2
Info: USING ARITHMETIC MEAN TO COMBINE L-J SIGMA PARAMETERS
Info: BINARY COORDINATES     mobley_5026370_min.coor
Info: SUMMARY OF PARAMETERS:
Info: 8 BONDS
Info: 8 ANGLES
Info:   8 HARMONIC
Info:   0 COSINE-BASED
Info: 4 DIHEDRAL
Info: 0 IMPROPER
Info: 0 CROSSTERM
Info: 0 VDW
Info: 28 VDW_PAIRS
Info: 0 NBTHOLE_PAIRS
Info: STRUCTURE SUMMARY:
Info: 2931 ATOMS
Info: 2931 BONDS
Info: 17 ANGLES
Info: 27 DIHEDRALS
Info: 0 IMPROPERS
Info: 0 CROSSTERMS
Info: 2967 EXCLUSIONS
Info: 2923 RIGID BONDS
Info: 5870 DEGREES OF FREEDOM
Info: 981 HYDROGEN GROUPS
Info: 3 ATOMS IN LARGEST HYDROGEN GROUP
Info: 981 MIGRATION GROUPS
Info: 3 ATOMS IN LARGEST MIGRATION GROUP
Info: TOTAL MASS = 17633.7 amu
Info: TOTAL CHARGE = 9.99682e-05 e
Info: MASS DENSITY = 0.659988 g/cm^3
Info: ATOM DENSITY = 0.0660617 atoms/A^3
Info: ADDED 0 IMPLICIT EXCLUSIONS
Info: NONBONDED TABLE R-SQUARED SPACING: 0.0625
Info: NONBONDED TABLE SIZE: 705 POINTS
Info: REMOVING COM VELOCITY -0.0894879 -0.0200791 0.0154451
TCL: Running for 100000 steps
ETITLE: TS BOND ANGLE DIHED IMPRP ELECT VDW BOUNDARY MISC KINETIC TOTAL TEMP POTENTIAL TOTAL3 TEMPAVG PRESSURE GPRESSURE VOLUME PRESSAVG GPRESSAVG
ENERGY: 0 0.1733 0.2233 0.0278 0.0000 -13493.2985 2360.3107 0.0000 0.0000 1762.2752 -9370.2881 302.1524 -11132.5633 -9369.9627 302.1524 456.4047 494.6745 44367.6342 456.4047 494.6745
ENERGY: 100000 0.5270 0.9714 0.0943 0.0000 -14128.0316 2462.2658 0.0000 0.0000 172.5468 -11491.6264 29.5842 -11664.1732 -11491.1303 31.0311 -85.5360 -12.4597 29150.0586 2.7191 2.6778
TCL: Running 100000 steps at 60 kelvin.
TCL: Setting parameter langevinTemp to 60
TCL: Running for 100000 steps
ETITLE: TS BOND ANGLE DIHED IMPRP ELECT VDW BOUNDARY MISC KINETIC TOTAL TEMP POTENTIAL TOTAL3 TEMPAVG PRESSURE GPRESSURE VOLUME PRESSAVG GPRESSAVG
ENERGY: 100000 0.5270 0.9714 0.0943 0.0000 -14128.0316 2462.2658 0.0000 0.0000 172.4573 -11491.7159 29.5688 -11664.1732 -11491.3380 29.5688 -66.5540 -12.4884 29150.0586 -66.5540 -12.4884
ENERGY: 200000 0.9750 0.8364 1.0022 0.0000 -14023.5522 2430.6267 0.0000 0.0000 343.8258 -11246.2861 58.9509 -11590.1119 -11245.1414 59.9609 150.9427 191.6239 28849.1029 4.7456 4.7042
TCL: Running 100000 steps at 90 kelvin.
TCL: Setting parameter langevinTemp to 90
TCL: Running for 100000 steps
ETITLE: TS BOND ANGLE DIHED IMPRP ELECT VDW BOUNDARY MISC KINETIC TOTAL TEMP POTENTIAL TOTAL3 TEMPAVG PRESSURE GPRESSURE VOLUME PRESSAVG GPRESSAVG
ENERGY: 200000 0.9750 0.8364 1.0022 0.0000 -14023.5522 2430.6267 0.0000 0.0000 343.6572 -11246.4547 58.9220 -11590.1119 -11245.6611 58.9220 127.1443 191.9037 28849.1029 127.1443 191.9037
ENERGY: 300000 2.8778 0.8025 1.4222 0.0000 -13974.6047 2463.3356 0.0000 0.0000 548.8437 -10957.3229 94.1025 -11506.1666 -10956.4641 89.9976 789.8266 858.1390 28488.3107 4.7370 4.6644
TCL: Running 100000 steps at 120 kelvin.
TCL: Setting parameter langevinTemp to 120
TCL: Running for 100000 steps
ETITLE: TS BOND ANGLE DIHED IMPRP ELECT VDW BOUNDARY MISC KINETIC TOTAL TEMP POTENTIAL TOTAL3 TEMPAVG PRESSURE GPRESSURE VOLUME PRESSAVG GPRESSAVG
ENERGY: 300000 2.8778 0.8025 1.4222 0.0000 -13974.6047 2463.3356 0.0000 0.0000 548.5867 -10957.5799 94.0584 -11506.1666 -10956.7095 94.0584 798.4485 857.8994 28488.3107 798.4485 857.8994
ENERGY: 400000 2.3067 0.9472 0.6169 0.0000 -13689.1517 2319.6881 0.0000 0.0000 704.9264 -10660.6663 120.8637 -11365.5927 -10658.1859 119.8604 241.2744 255.8483 28607.4550 3.6454 3.6700
TCL: Running 100000 steps at 150 kelvin.
TCL: Setting parameter langevinTemp to 150
TCL: Running for 100000 steps
ETITLE: TS BOND ANGLE DIHED IMPRP ELECT VDW BOUNDARY MISC KINETIC TOTAL TEMP POTENTIAL TOTAL3 TEMPAVG PRESSURE GPRESSURE VOLUME PRESSAVG GPRESSAVG
ENERGY: 400000 2.3067 0.9472 0.6169 0.0000 -13689.1517 2319.6881 0.0000 0.0000 704.5875 -10661.0052 120.8056 -11365.5927 -10659.7223 120.8056 210.4972 256.2957 28607.4550 210.4972 256.2957
ENERGY: 500000 0.8093 2.8466 0.8143 0.0000 -13498.3058 2304.2232 0.0000 0.0000 898.7974 -10290.8151 154.1041 -11189.6126 -10288.8621 149.6679 437.3178 529.1001 28908.6742 3.4218 3.4632
TCL: Running 100000 steps at 180 kelvin.
TCL: Setting parameter langevinTemp to 180
TCL: Running for 100000 steps
ETITLE: TS BOND ANGLE DIHED IMPRP ELECT VDW BOUNDARY MISC KINETIC TOTAL TEMP POTENTIAL TOTAL3 TEMPAVG PRESSURE GPRESSURE VOLUME PRESSAVG GPRESSAVG
ENERGY: 500000 0.8093 2.8466 0.8143 0.0000 -13498.3058 2304.2232 0.0000 0.0000 898.3614 -10291.2511 154.0293 -11189.6126 -10289.6948 154.0293 483.8472 529.6394 28908.6742 483.8472 529.6394
ENERGY: 600000 2.4270 1.4584 2.0675 0.0000 -12876.8078 1993.4045 0.0000 0.0000 1064.8231 -9812.6273 182.5701 -10877.4505 -9809.1315 180.1980 -934.0840 -864.9398 28939.0338 4.3643 4.3912
TCL: Running 100000 steps at 210 kelvin.
TCL: Setting parameter langevinTemp to 210
TCL: Running for 100000 steps
ETITLE: TS BOND ANGLE DIHED IMPRP ELECT VDW BOUNDARY MISC KINETIC TOTAL TEMP POTENTIAL TOTAL3 TEMPAVG PRESSURE GPRESSURE VOLUME PRESSAVG GPRESSAVG
ENERGY: 600000 2.4270 1.4584 2.0675 0.0000 -12876.8078 1993.4045 0.0000 0.0000 1064.2768 -9813.1737 182.4765 -10877.4505 -9810.8972 182.4765 -934.2465 -863.9896 28939.0338 -934.2465 -863.9896
ENERGY: 700000 3.3758 1.7014 2.2569 0.0000 -12418.4408 1901.3455 0.0000 0.0000 1226.4646 -9283.2965 210.2845 -10509.7611 -9279.8931 209.6816 26.4711 99.4658 28553.0305 2.6077 2.5717
TCL: Running 100000 steps at 240 kelvin.
TCL: Setting parameter langevinTemp to 240
TCL: Running for 100000 steps
ETITLE: TS BOND ANGLE DIHED IMPRP ELECT VDW BOUNDARY MISC KINETIC TOTAL TEMP POTENTIAL TOTAL3 TEMPAVG PRESSURE GPRESSURE VOLUME PRESSAVG GPRESSAVG
ENERGY: 700000 3.3758 1.7014 2.2569 0.0000 -12418.4408 1901.3455 0.0000 0.0000 1225.8648 -9283.8964 210.1817 -10509.7611 -9281.7621 210.1817 19.5092 99.8780 28553.0305 19.5092 99.8780
ENERGY: 800000 4.3324 1.3752 1.6841 0.0000 -11708.8609 1685.1852 0.0000 0.0000 1395.3131 -8620.9710 239.2346 -10016.2841 -8618.8616 240.3757 226.3050 309.3691 28474.6286 3.6417 3.5205
TCL: Running 100000 steps at 270 kelvin.
TCL: Setting parameter langevinTemp to 270
TCL: Running for 100000 steps
ETITLE: TS BOND ANGLE DIHED IMPRP ELECT VDW BOUNDARY MISC KINETIC TOTAL TEMP POTENTIAL TOTAL3 TEMPAVG PRESSURE GPRESSURE VOLUME PRESSAVG GPRESSAVG
ENERGY: 800000 4.3324 1.3752 1.6841 0.0000 -11708.8609 1685.1852 0.0000 0.0000 1394.6174 -8621.6667 239.1153 -10016.2841 -8619.1228 239.1153 216.7463 308.7870 28474.6286 216.7463 308.7870
ENERGY: 900000 3.8909 4.5468 3.2084 0.0000 -11274.0230 1643.1390 0.0000 0.0000 1576.0074 -8043.2305 270.2157 -9619.2380 -8039.8844 269.9579 268.9385 355.4210 29626.2770 2.8330 2.8342
TCL: Running 1000000 steps at 300 kelvin.
TCL: Setting parameter langevinTemp to 300
TCL: Running for 1000000 steps
ETITLE: TS BOND ANGLE DIHED IMPRP ELECT VDW BOUNDARY MISC KINETIC TOTAL TEMP POTENTIAL TOTAL3 TEMPAVG PRESSURE GPRESSURE VOLUME PRESSAVG GPRESSAVG
ENERGY: 900000 3.8909 4.5468 3.2084 0.0000 -11274.0230 1643.1390 0.0000 0.0000 1575.1837 -8044.0542 270.0744 -9619.2380 -8041.9336 270.0744 269.1385 355.9139 29626.2770 269.1385 355.9139
ENERGY: 1100000 3.7781 4.8310 4.2352 0.0000 -10623.3787 1375.0078 0.0000 0.0000 1745.8710 -7489.6555 299.3398 -9235.5265 -7485.5672 299.9981 -849.5145 -729.9769 30658.5591 2.2124 2.3468
ENERGY: 1300000 4.0537 2.1557 3.1725 0.0000 -10618.0943 1450.2317 0.0000 0.0000 1752.6828 -7405.7978 300.5077 -9158.4806 -7404.5212 300.1786 336.7540 322.0571 30448.7798 1.8275 1.7399
ENERGY: 1500000 2.6291 4.6415 0.7771 0.0000 -10648.4450 1420.7382 0.0000 0.0000 1693.8232 -7525.8358 290.4159 -9219.6590 -7523.3592 300.2568 -221.7209 -65.3477 30150.4565 3.7022 3.6822
ENERGY: 1700000 2.5005 3.2604 1.9922 0.0000 -10658.2571 1350.6010 0.0000 0.0000 1753.4387 -7546.4642 300.6373 -9299.9030 -7542.1381 301.1532 -485.1111 -413.0465 29697.4737 4.0440 3.9742
ENERGY: 1900000 1.0516 1.8349 0.8863 0.0000 -10714.1675 1494.7097 0.0000 0.0000 1741.5910 -7474.0940 298.6059 -9215.6851 -7472.1274 300.2909 384.3641 517.3998 30508.0671 3.2885 3.2684
TCL: Exiting due to exit command.
