Info: SIMULATION PARAMETERS:
Info: TIMESTEP               2
Info: NUMBER OF STEPS        0
Info: STEPS PER CYCLE        10
Info: PERIODIC CELL BASIS 1  36.281 0 0
Info: PERIODIC CELL BASIS 2  0 34.1 0
Info: PERIODIC CELL BASIS 3  0 0 36.199
Info: PERIODIC CELL CENTER   0 0 0
Info: WRAPPING WATERS AROUND PERIODIC BOUNDARIES ON OUTPUT.
Info: WRAPPING ALL CLUSTERS AROUND PERIODIC BOUNDARIES ON OUTPUT.
Info: FIRST LDB TIMESTEP     50
Info: LAST LDB TIMESTEP     -1
Info: HOM BACKGROUND SCALING 1
Info: PME BACKGROUND SCALING 1
Info: MIN ATOMS PER PATCH    40
Info: EMPTY PATCH LOAD       40 ATOMS
Info: INITIAL TEMPERATURE    300
Info: CENTER OF MASS MOVING INITIALLY? NO
Info: DIELECTRIC             1
Info: EXCLUDE                SCALED ONE-FOUR
Info: 1-4 ELECTROSTATICS SCALED BY 0.833333
Info: MODIFIED 1-4 VDW PARAMETERS WILL BE USED
Info: DCD FILENAME           mobley_4219614_equil.dcd
Info: DCD FREQUENCY          100000
Info: DCD FIRST STEP         100000
Info: DCD FILE WILL CONTAIN UNIT CELL DATA
Info: XST FILENAME           mobley_4219614_equil.xst
Info: XST FREQUENCY          100000
Info: NO VELOCITY DCD OUTPUT
Info: NO FORCE DCD OUTPUT
Info: OUTPUT FILENAME        mobley_4219614_equil
Info: BINARY OUTPUT FILES WILL BE USED
Info: RESTART FILENAME       mobley_4219614_equil.restart
Info: RESTART FREQUENCY      100000
Info: BINARY RESTART FILES WILL BE USED
Info: CUTOFF                 9
Info: PAIRLIST DISTANCE      11
Info: PAIRLIST SHRINK RATE   0.01
Info: PAIRLIST GROW RATE     0.01
Info: PAIRLIST TRIGGER       0.3
Info: PAIRLISTS PER CYCLE    2
Info: PAIRLISTS ENABLED
Info: MARGIN                 8
Info: HYDROGEN GROUP CUTOFF  2.5
Info: PATCH DIMENSION        21.5
Info: ENERGY OUTPUT STEPS    100000
Info: ENERGY EVALUATION STEPS    100000
Info: OUTPUT ENERGY PRECISION 4
Info: CROSSTERM ENERGY INCLUDED IN DIHEDRAL
Info: TIMING OUTPUT STEPS    1000000
Info: PRESSURE OUTPUT STEPS  100000
Info: LANGEVIN DYNAMICS ACTIVE
Info: LANGEVIN TEMPERATURE   30
Info: LANGEVIN USING BBK INTEGRATOR
Info: LANGEVIN DAMPING COEFFICIENT IS 1 INVERSE PS
Info: LANGEVIN DYNAMICS APPLIED TO HYDROGENS
Info: LANGEVIN PISTON PRESSURE CONTROL ACTIVE
Info:        TARGET PRESSURE IS 1.01325 BAR
Info:     OSCILLATION PERIOD IS 50 FS
Info:             DECAY TIME IS 25 FS
Info:     PISTON TEMPERATURE IS 300 K
Info:       PRESSURE CONTROL IS GROUP-BASED
Info:    INITIAL STRAIN RATE IS 0 0 0
Info:       CELL FLUCTUATION IS ISOTROPIC
Info: PARTICLE MESH EWALD (PME) ACTIVE
Info: PME TOLERANCE               1e-06
Info: PME EWALD COEFFICIENT       0.348832
Info: PME INTERPOLATION ORDER     4
Info: PME GRID DIMENSIONS         40 36 40
Info: PME MAXIMUM GRID SPACING    1
Info: FULL ELECTROSTATIC EVALUATION FREQUENCY      2
Info: USING VERLET I (r-RESPA) MTS SCHEME.
Info: C1 SPLITTING OF LONG RANGE ELECTROSTATICS
Info: PLACING ATOMS IN PATCHES BY HYDROGEN GROUPS
Info: RIGID BONDS TO HYDROGEN : ALL
Info:         ERROR TOLERANCE : 1e-08
Info:          MAX ITERATIONS : 100
Info: RIGID WATER USING SETTLE ALGORITHM
Info: RANDOM NUMBER SEED     1743162831
Info: USE HYDROGEN BONDS?    NO
Info: Using AMBER format force field!
Info: AMBER PARM FILE        mobley_4219614.prmtop
Info: COORDINATE PDB         mobley_4219614.pdb
Info: Exclusions will be read from PARM file!
Info: SCNB (VDW SCALING)     2
Info: USING ARITHMETIC MEAN TO COMBINE L-J SIGMA PARAMETERS
Info: BINARY COORDINATES     mobley_4219614_min.coor
Info: SUMMARY OF PARAMETERS:
Info: 5 BONDS
Info: 3 ANGLES
Info:   3 HARMONIC
Info:   0 COSINE-BASED
Info: 2 DIHEDRAL
Info: 0 IMPROPER
Info: 0 CROSSTERM
Info: 0 VDW
Info: 15 VDW_PAIRS
Info: 0 NBTHOLE_PAIRS
Info: STRUCTURE SUMMARY:
Info: 2982 ATOMS
Info: 2982 BONDS
Info: 18 ANGLES
Info: 30 DIHEDRALS
Info: 0 IMPROPERS
Info: 0 CROSSTERMS
Info: 3021 EXCLUSIONS
Info: 2972 RIGID BONDS
Info: 5974 DEGREES OF FREEDOM
Info: 1000 HYDROGEN GROUPS
Info: 3 ATOMS IN LARGEST HYDROGEN GROUP
Info: 1000 MIGRATION GROUPS
Info: 3 ATOMS IN LARGEST MIGRATION GROUP
Info: TOTAL MASS = 18051.7 amu
Info: TOTAL CHARGE = -9.99942e-05 e
Info: MASS DENSITY = 0.669341 g/cm^3
Info: ATOM DENSITY = 0.0665852 atoms/A^3
Info: ADDED 0 IMPLICIT EXCLUSIONS
Info: NONBONDED TABLE R-SQUARED SPACING: 0.0625
Info: NONBONDED TABLE SIZE: 705 POINTS
Info: REMOVING COM VELOCITY -0.134895 0.121308 0.0981494
TCL: Running for 100000 steps
ETITLE: TS BOND ANGLE DIHED IMPRP ELECT VDW BOUNDARY MISC KINETIC TOTAL TEMP POTENTIAL TOTAL3 TEMPAVG PRESSURE GPRESSURE VOLUME PRESSAVG GPRESSAVG
ENERGY: 0 0.2776 0.1654 0.0106 0.0000 -13785.2185 2414.3907 0.0000 0.0000 1719.7830 -9650.5912 289.7336 -11370.3742 -9650.2715 289.7336 340.0291 375.5851 44784.7548 340.0291 375.5851
ENERGY: 100000 0.4170 0.7793 0.4037 0.0000 -14276.7792 2412.2441 0.0000 0.0000 178.6616 -11684.2735 30.0993 -11862.9351 -11683.8582 30.8578 -358.7511 -285.6312 28341.1064 3.6987 3.6878
TCL: Running 100000 steps at 60 kelvin.
TCL: Setting parameter langevinTemp to 60
TCL: Running for 100000 steps
ETITLE: TS BOND ANGLE DIHED IMPRP ELECT VDW BOUNDARY MISC KINETIC TOTAL TEMP POTENTIAL TOTAL3 TEMPAVG PRESSURE GPRESSURE VOLUME PRESSAVG GPRESSAVG
ENERGY: 100000 0.4170 0.7793 0.4037 0.0000 -14276.7792 2412.2441 0.0000 0.0000 178.5737 -11684.3614 30.0845 -11862.9351 -11683.9977 30.0845 -366.0680 -285.6230 28341.1064 -366.0680 -285.6230
ENERGY: 200000 1.0119 0.9819 0.6541 0.0000 -14184.3676 2391.0560 0.0000 0.0000 351.6579 -11439.0058 59.2442 -11790.6638 -11438.4638 59.9239 -445.7987 -391.9796 28837.0666 5.0032 5.0294
TCL: Running 100000 steps at 90 kelvin.
TCL: Setting parameter langevinTemp to 90
TCL: Running for 100000 steps
ETITLE: TS BOND ANGLE DIHED IMPRP ELECT VDW BOUNDARY MISC KINETIC TOTAL TEMP POTENTIAL TOTAL3 TEMPAVG PRESSURE GPRESSURE VOLUME PRESSAVG GPRESSAVG
ENERGY: 200000 1.0119 0.9819 0.6541 0.0000 -14184.3676 2391.0560 0.0000 0.0000 351.4726 -11439.1912 59.2129 -11790.6638 -11438.5121 59.2129 -446.2911 -392.2038 28837.0666 -446.2911 -392.2038
ENERGY: 300000 1.7782 1.4698 0.9801 0.0000 -14022.5027 2320.3110 0.0000 0.0000 543.0593 -11154.9041 91.4898 -11697.9634 -11153.1428 89.8714 -781.9584 -748.1635 29162.1877 4.4220 4.4014
TCL: Running 100000 steps at 120 kelvin.
TCL: Setting parameter langevinTemp to 120
TCL: Running for 100000 steps
ETITLE: TS BOND ANGLE DIHED IMPRP ELECT VDW BOUNDARY MISC KINETIC TOTAL TEMP POTENTIAL TOTAL3 TEMPAVG PRESSURE GPRESSURE VOLUME PRESSAVG GPRESSAVG
ENERGY: 300000 1.7782 1.4698 0.9801 0.0000 -14022.5027 2320.3110 0.0000 0.0000 542.7988 -11155.1646 91.4459 -11697.9634 -11154.0767 91.4459 -795.4524 -748.1526 29162.1877 -795.4524 -748.1526
ENERGY: 400000 1.7693 1.4004 1.8548 0.0000 -14052.7803 2481.9109 0.0000 0.0000 702.7603 -10863.0847 118.3947 -11565.8450 -10861.3461 119.9290 1230.4818 1218.5465 28787.7487 4.7067 4.6238
TCL: Running 100000 steps at 150 kelvin.
TCL: Setting parameter langevinTemp to 150
TCL: Running for 100000 steps
ETITLE: TS BOND ANGLE DIHED IMPRP ELECT VDW BOUNDARY MISC KINETIC TOTAL TEMP POTENTIAL TOTAL3 TEMPAVG PRESSURE GPRESSURE VOLUME PRESSAVG GPRESSAVG
ENERGY: 400000 1.7693 1.4004 1.8548 0.0000 -14052.7803 2481.9109 0.0000 0.0000 702.3970 -10863.4479 118.3335 -11565.8450 -10862.2033 118.3335 1165.0075 1219.4416 28787.7487 1165.0075 1219.4416
ENERGY: 500000 1.4989 2.6420 1.9128 0.0000 -13697.7358 2266.3284 0.0000 0.0000 886.9899 -10538.3638 149.4321 -11425.3537 -10535.3307 149.7149 -1.2799 82.2057 29124.2594 4.2481 4.2572
TCL: Running 100000 steps at 180 kelvin.
TCL: Setting parameter langevinTemp to 180
TCL: Running for 100000 steps
ETITLE: TS BOND ANGLE DIHED IMPRP ELECT VDW BOUNDARY MISC KINETIC TOTAL TEMP POTENTIAL TOTAL3 TEMPAVG PRESSURE GPRESSURE VOLUME PRESSAVG GPRESSAVG
ENERGY: 500000 1.4989 2.6420 1.9128 0.0000 -13697.7358 2266.3284 0.0000 0.0000 886.5525 -10538.8012 149.3584 -11425.3537 -10536.9122 149.3584 31.0984 83.4710 29124.2594 31.0984 83.4710
ENERGY: 600000 0.5770 2.5286 1.7670 0.0000 -13303.4276 2173.9400 0.0000 0.0000 1092.7644 -10031.8505 184.0991 -11124.6150 -10028.0420 180.0270 375.6015 412.5502 29055.4394 3.7250 3.6541
TCL: Running 100000 steps at 210 kelvin.
TCL: Setting parameter langevinTemp to 210
TCL: Running for 100000 steps
ETITLE: TS BOND ANGLE DIHED IMPRP ELECT VDW BOUNDARY MISC KINETIC TOTAL TEMP POTENTIAL TOTAL3 TEMPAVG PRESSURE GPRESSURE VOLUME PRESSAVG GPRESSAVG
ENERGY: 600000 0.5770 2.5286 1.7670 0.0000 -13303.4276 2173.9400 0.0000 0.0000 1092.2207 -10032.3943 184.0075 -11124.6150 -10030.5458 184.0075 351.0215 414.4166 29055.4394 351.0215 414.4166
ENERGY: 700000 2.5420 2.3457 1.5765 0.0000 -12432.2360 1852.1263 0.0000 0.0000 1242.1586 -9331.4870 209.2677 -10573.6455 -9328.6275 210.3063 -533.0229 -473.2540 29585.1548 3.9256 3.9919
TCL: Running 100000 steps at 240 kelvin.
TCL: Setting parameter langevinTemp to 240
TCL: Running for 100000 steps
ETITLE: TS BOND ANGLE DIHED IMPRP ELECT VDW BOUNDARY MISC KINETIC TOTAL TEMP POTENTIAL TOTAL3 TEMPAVG PRESSURE GPRESSURE VOLUME PRESSAVG GPRESSAVG
ENERGY: 700000 2.5420 2.3457 1.5765 0.0000 -12432.2360 1852.1263 0.0000 0.0000 1241.5527 -9332.0929 209.1656 -10573.6455 -9330.2250 209.1656 -559.9898 -473.0204 29585.1548 -559.9898 -473.0204
ENERGY: 800000 1.8214 2.2446 1.6588 0.0000 -11891.8862 1708.0296 0.0000 0.0000 1438.1516 -8739.9803 242.2868 -10178.1319 -8736.1790 239.9871 -346.7984 -248.3921 29688.2686 3.2572 3.3737
TCL: Running 100000 steps at 270 kelvin.
TCL: Setting parameter langevinTemp to 270
TCL: Running for 100000 steps
ETITLE: TS BOND ANGLE DIHED IMPRP ELECT VDW BOUNDARY MISC KINETIC TOTAL TEMP POTENTIAL TOTAL3 TEMPAVG PRESSURE GPRESSURE VOLUME PRESSAVG GPRESSAVG
ENERGY: 800000 1.8214 2.2446 1.6588 0.0000 -11891.8862 1708.0296 0.0000 0.0000 1437.4374 -8740.6944 242.1665 -10178.1319 -8738.5963 242.1665 -326.1165 -246.8847 29688.2686 -326.1165 -246.8847
ENERGY: 900000 3.2023 2.6296 1.4569 0.0000 -11144.7247 1440.1144 0.0000 0.0000 1612.1499 -8085.1717 271.6005 -9697.3216 -8081.1107 270.1963 -977.1415 -839.0722 30352.9800 3.2724 3.2372
TCL: Running 1000000 steps at 300 kelvin.
TCL: Setting parameter langevinTemp to 300
TCL: Running for 1000000 steps
ETITLE: TS BOND ANGLE DIHED IMPRP ELECT VDW BOUNDARY MISC KINETIC TOTAL TEMP POTENTIAL TOTAL3 TEMPAVG PRESSURE GPRESSURE VOLUME PRESSAVG GPRESSAVG
ENERGY: 900000 3.2023 2.6296 1.4569 0.0000 -11144.7247 1440.1144 0.0000 0.0000 1611.3665 -8085.9551 271.4685 -9697.3216 -8083.7859 271.4685 -925.5062 -838.4766 30352.9800 -925.5062 -838.4766
ENERGY: 1100000 5.6243 3.4396 0.4129 0.0000 -10832.4411 1450.2980 0.0000 0.0000 1761.1952 -7611.4712 296.7103 -9372.6664 -7612.5522 299.6553 -111.0586 -77.0853 30910.9783 3.3379 3.4678
ENERGY: 1300000 1.9125 3.4501 2.1605 0.0000 -10838.6750 1445.1135 0.0000 0.0000 1804.1710 -7581.8674 303.9505 -9386.0383 -7579.4775 300.0254 -45.6340 -34.5990 30662.7932 3.3671 3.4346
ENERGY: 1500000 3.1564 3.0487 2.4928 0.0000 -10890.9189 1463.2082 0.0000 0.0000 1762.1651 -7656.8477 296.8737 -9419.0128 -7653.7536 300.4963 -44.9551 99.3542 30438.0949 3.6565 3.8090
ENERGY: 1700000 4.8344 5.1338 2.8204 0.0000 -10932.0080 1529.5494 0.0000 0.0000 1758.2151 -7631.4549 296.2083 -9389.6700 -7626.9842 301.1532 885.1429 1019.7096 30255.8009 3.1141 2.9453
ENERGY: 1900000 4.1303 2.2015 1.7264 0.0000 -10904.1820 1469.8828 0.0000 0.0000 1784.9050 -7641.3359 300.7047 -9426.2410 -7639.0105 299.9710 68.1561 147.0708 30502.6625 3.6872 3.7056
TCL: Exiting due to exit command.
