Info: SIMULATION PARAMETERS:
Info: TIMESTEP               2
Info: NUMBER OF STEPS        0
Info: STEPS PER CYCLE        10
Info: PERIODIC CELL BASIS 1  36.281 0 0
Info: PERIODIC CELL BASIS 2  0 35.411 0
Info: PERIODIC CELL BASIS 3  0 0 34.68
Info: PERIODIC CELL CENTER   0 0 0
Info: WRAPPING WATERS AROUND PERIODIC BOUNDARIES ON OUTPUT.
Info: WRAPPING ALL CLUSTERS AROUND PERIODIC BOUNDARIES ON OUTPUT.
Info: FIRST LDB TIMESTEP     50
Info: LAST LDB TIMESTEP     -1
Info: HOM BACKGROUND SCALING 1
Info: PME BACKGROUND SCALING 1
Info: MIN ATOMS PER PATCH    40
Info: EMPTY PATCH LOAD       40 ATOMS
Info: INITIAL TEMPERATURE    300
Info: CENTER OF MASS MOVING INITIALLY? NO
Info: DIELECTRIC             1
Info: EXCLUDE                SCALED ONE-FOUR
Info: 1-4 ELECTROSTATICS SCALED BY 0.833333
Info: MODIFIED 1-4 VDW PARAMETERS WILL BE USED
Info: DCD FILENAME           mobley_3968043_equil.dcd
Info: DCD FREQUENCY          100000
Info: DCD FIRST STEP         100000
Info: DCD FILE WILL CONTAIN UNIT CELL DATA
Info: XST FILENAME           mobley_3968043_equil.xst
Info: XST FREQUENCY          100000
Info: NO VELOCITY DCD OUTPUT
Info: NO FORCE DCD OUTPUT
Info: OUTPUT FILENAME        mobley_3968043_equil
Info: BINARY OUTPUT FILES WILL BE USED
Info: RESTART FILENAME       mobley_3968043_equil.restart
Info: RESTART FREQUENCY      100000
Info: BINARY RESTART FILES WILL BE USED
Info: CUTOFF                 9
Info: PAIRLIST DISTANCE      11
Info: PAIRLIST SHRINK RATE   0.01
Info: PAIRLIST GROW RATE     0.01
Info: PAIRLIST TRIGGER       0.3
Info: PAIRLISTS PER CYCLE    2
Info: PAIRLISTS ENABLED
Info: MARGIN                 8
Info: HYDROGEN GROUP CUTOFF  2.5
Info: PATCH DIMENSION        21.5
Info: ENERGY OUTPUT STEPS    100000
Info: ENERGY EVALUATION STEPS    100000
Info: OUTPUT ENERGY PRECISION 4
Info: CROSSTERM ENERGY INCLUDED IN DIHEDRAL
Info: TIMING OUTPUT STEPS    1000000
Info: PRESSURE OUTPUT STEPS  100000
Info: LANGEVIN DYNAMICS ACTIVE
Info: LANGEVIN TEMPERATURE   30
Info: LANGEVIN USING BBK INTEGRATOR
Info: LANGEVIN DAMPING COEFFICIENT IS 1 INVERSE PS
Info: LANGEVIN DYNAMICS APPLIED TO HYDROGENS
Info: LANGEVIN PISTON PRESSURE CONTROL ACTIVE
Info:        TARGET PRESSURE IS 1.01325 BAR
Info:     OSCILLATION PERIOD IS 50 FS
Info:             DECAY TIME IS 25 FS
Info:     PISTON TEMPERATURE IS 300 K
Info:       PRESSURE CONTROL IS GROUP-BASED
Info:    INITIAL STRAIN RATE IS 0 0 0
Info:       CELL FLUCTUATION IS ISOTROPIC
Info: PARTICLE MESH EWALD (PME) ACTIVE
Info: PME TOLERANCE               1e-06
Info: PME EWALD COEFFICIENT       0.348832
Info: PME INTERPOLATION ORDER     4
Info: PME GRID DIMENSIONS         40 36 36
Info: PME MAXIMUM GRID SPACING    1
Info: FULL ELECTROSTATIC EVALUATION FREQUENCY      2
Info: USING VERLET I (r-RESPA) MTS SCHEME.
Info: C1 SPLITTING OF LONG RANGE ELECTROSTATICS
Info: PLACING ATOMS IN PATCHES BY HYDROGEN GROUPS
Info: RIGID BONDS TO HYDROGEN : ALL
Info:         ERROR TOLERANCE : 1e-08
Info:          MAX ITERATIONS : 100
Info: RIGID WATER USING SETTLE ALGORITHM
Info: RANDOM NUMBER SEED     1743210566
Info: USE HYDROGEN BONDS?    NO
Info: Using AMBER format force field!
Info: AMBER PARM FILE        mobley_3968043.prmtop
Info: COORDINATE PDB         mobley_3968043.pdb
Info: Exclusions will be read from PARM file!
Info: SCNB (VDW SCALING)     2
Info: USING ARITHMETIC MEAN TO COMBINE L-J SIGMA PARAMETERS
Info: BINARY COORDINATES     mobley_3968043_min.coor
Info: SUMMARY OF PARAMETERS:
Info: 6 BONDS
Info: 7 ANGLES
Info:   7 HARMONIC
Info:   0 COSINE-BASED
Info: 11 DIHEDRAL
Info: 0 IMPROPER
Info: 0 CROSSTERM
Info: 0 VDW
Info: 21 VDW_PAIRS
Info: 0 NBTHOLE_PAIRS
Info: STRUCTURE SUMMARY:
Info: 2945 ATOMS
Info: 2945 BONDS
Info: 27 ANGLES
Info: 50 DIHEDRALS
Info: 0 IMPROPERS
Info: 0 CROSSTERMS
Info: 3006 EXCLUSIONS
Info: 2939 RIGID BONDS
Info: 5896 DEGREES OF FREEDOM
Info: 983 HYDROGEN GROUPS
Info: 3 ATOMS IN LARGEST HYDROGEN GROUP
Info: 983 MIGRATION GROUPS
Info: 3 ATOMS IN LARGEST MIGRATION GROUP
Info: TOTAL MASS = 17685.7 amu
Info: TOTAL CHARGE = 0.00030002 e
Info: MASS DENSITY = 0.659153 g/cm^3
Info: ATOM DENSITY = 0.0660981 atoms/A^3
Info: ADDED 0 IMPLICIT EXCLUSIONS
Info: NONBONDED TABLE R-SQUARED SPACING: 0.0625
Info: NONBONDED TABLE SIZE: 705 POINTS
Info: REMOVING COM VELOCITY 0.0762081 0.0690291 -0.281913
TCL: Running for 100000 steps
ETITLE: TS BOND ANGLE DIHED IMPRP ELECT VDW BOUNDARY MISC KINETIC TOTAL TEMP POTENTIAL TOTAL3 TEMPAVG PRESSURE GPRESSURE VOLUME PRESSAVG GPRESSAVG
ENERGY: 0 0.0477 4.6225 9.5808 0.0000 -13671.4404 2417.3232 0.0000 0.0000 1724.1975 -9515.6686 294.3201 -11239.8662 -9515.3188 294.3201 585.0598 625.3848 44555.0083 585.0598 625.3848
ENERGY: 100000 0.1957 4.6208 9.8910 0.0000 -14206.3095 2462.3873 0.0000 0.0000 173.1371 -11556.0777 29.5545 -11729.2148 -11555.4913 30.9312 -73.2132 -37.9357 28857.5102 4.4109 4.3273
TCL: Running 100000 steps at 60 kelvin.
TCL: Setting parameter langevinTemp to 60
TCL: Running for 100000 steps
ETITLE: TS BOND ANGLE DIHED IMPRP ELECT VDW BOUNDARY MISC KINETIC TOTAL TEMP POTENTIAL TOTAL3 TEMPAVG PRESSURE GPRESSURE VOLUME PRESSAVG GPRESSAVG
ENERGY: 100000 0.1957 4.6208 9.8910 0.0000 -14206.3095 2462.3873 0.0000 0.0000 173.0452 -11556.1696 29.5388 -11729.2148 -11555.8180 29.5388 -87.7350 -37.7638 28857.5102 -87.7350 -37.7638
ENERGY: 200000 0.3516 5.5355 9.4325 0.0000 -14037.0683 2361.0874 0.0000 0.0000 354.8707 -11305.7905 60.5763 -11660.6612 -11304.8035 59.9557 -510.9884 -445.2967 28548.8000 2.8777 2.9002
TCL: Running 100000 steps at 90 kelvin.
TCL: Setting parameter langevinTemp to 90
TCL: Running for 100000 steps
ETITLE: TS BOND ANGLE DIHED IMPRP ELECT VDW BOUNDARY MISC KINETIC TOTAL TEMP POTENTIAL TOTAL3 TEMPAVG PRESSURE GPRESSURE VOLUME PRESSAVG GPRESSAVG
ENERGY: 200000 0.3516 5.5355 9.4325 0.0000 -14037.0683 2361.0874 0.0000 0.0000 354.6911 -11305.9701 60.5457 -11660.6612 -11305.0720 60.5457 -493.1338 -445.4296 28548.8000 -493.1338 -445.4296
ENERGY: 300000 0.3252 6.7961 8.8754 0.0000 -13844.8346 2287.2462 0.0000 0.0000 526.8120 -11014.7796 89.9267 -11541.5917 -11013.6358 89.9899 -790.7195 -744.0605 28791.2201 4.5803 4.6584
TCL: Running 100000 steps at 120 kelvin.
TCL: Setting parameter langevinTemp to 120
TCL: Running for 100000 steps
ETITLE: TS BOND ANGLE DIHED IMPRP ELECT VDW BOUNDARY MISC KINETIC TOTAL TEMP POTENTIAL TOTAL3 TEMPAVG PRESSURE GPRESSURE VOLUME PRESSAVG GPRESSAVG
ENERGY: 300000 0.3252 6.7961 8.8754 0.0000 -13844.8346 2287.2462 0.0000 0.0000 526.5514 -11015.0403 89.8822 -11541.5917 -11013.8135 89.8822 -779.2139 -744.3494 28791.2201 -779.2139 -744.3494
ENERGY: 400000 1.3458 8.2735 8.8027 0.0000 -13796.1829 2342.1735 0.0000 0.0000 719.8620 -10715.7254 122.8803 -11435.5875 -10714.6007 119.8601 240.0484 239.3040 28529.9025 4.1068 4.1861
TCL: Running 100000 steps at 150 kelvin.
TCL: Setting parameter langevinTemp to 150
TCL: Running for 100000 steps
ETITLE: TS BOND ANGLE DIHED IMPRP ELECT VDW BOUNDARY MISC KINETIC TOTAL TEMP POTENTIAL TOTAL3 TEMPAVG PRESSURE GPRESSURE VOLUME PRESSAVG GPRESSAVG
ENERGY: 400000 1.3458 8.2735 8.8027 0.0000 -13796.1829 2342.1735 0.0000 0.0000 719.5212 -10716.0662 122.8221 -11435.5875 -10714.5758 122.8221 192.7667 238.8635 28529.9025 192.7667 238.8635
ENERGY: 500000 0.2838 8.6764 8.5831 0.0000 -13560.9918 2266.9728 0.0000 0.0000 868.3548 -10408.1209 148.2279 -11276.4756 -10407.4785 149.9562 -37.7035 98.7188 28779.3540 4.1391 4.1837
TCL: Running 100000 steps at 180 kelvin.
TCL: Setting parameter langevinTemp to 180
TCL: Running for 100000 steps
ETITLE: TS BOND ANGLE DIHED IMPRP ELECT VDW BOUNDARY MISC KINETIC TOTAL TEMP POTENTIAL TOTAL3 TEMPAVG PRESSURE GPRESSURE VOLUME PRESSAVG GPRESSAVG
ENERGY: 500000 0.2838 8.6764 8.5831 0.0000 -13560.9918 2266.9728 0.0000 0.0000 867.9363 -10408.5394 148.1565 -11276.4756 -10406.8191 148.1565 41.0379 98.1350 28779.3540 41.0379 98.1350
ENERGY: 600000 2.2192 9.5704 10.0200 0.0000 -13076.9513 2078.2416 0.0000 0.0000 1064.0028 -9912.8973 181.6250 -10976.9001 -9909.5259 180.0079 -322.0153 -236.3296 28705.3779 3.4927 3.4747
TCL: Running 100000 steps at 210 kelvin.
TCL: Setting parameter langevinTemp to 210
TCL: Running for 100000 steps
ETITLE: TS BOND ANGLE DIHED IMPRP ELECT VDW BOUNDARY MISC KINETIC TOTAL TEMP POTENTIAL TOTAL3 TEMPAVG PRESSURE GPRESSURE VOLUME PRESSAVG GPRESSAVG
ENERGY: 600000 2.2192 9.5704 10.0200 0.0000 -13076.9513 2078.2416 0.0000 0.0000 1063.4883 -9913.4118 181.5372 -10976.9001 -9911.5496 181.5372 -320.7830 -236.2403 28705.3779 -320.7830 -236.2403
ENERGY: 700000 0.8201 10.2610 8.9543 0.0000 -12283.1285 1787.4277 0.0000 0.0000 1200.9488 -9274.7166 205.0017 -10475.6654 -9270.5293 209.9840 -954.2975 -855.0918 28965.2089 2.1883 2.2913
TCL: Running 100000 steps at 240 kelvin.
TCL: Setting parameter langevinTemp to 240
TCL: Running for 100000 steps
ETITLE: TS BOND ANGLE DIHED IMPRP ELECT VDW BOUNDARY MISC KINETIC TOTAL TEMP POTENTIAL TOTAL3 TEMPAVG PRESSURE GPRESSURE VOLUME PRESSAVG GPRESSAVG
ENERGY: 700000 0.8201 10.2610 8.9543 0.0000 -12283.1285 1787.4277 0.0000 0.0000 1200.3673 -9275.2982 204.9024 -10475.6654 -9272.5889 204.9024 -933.5342 -855.2927 28965.2089 -933.5342 -855.2927
ENERGY: 800000 2.0376 6.8287 9.8668 0.0000 -11847.9654 1776.9369 0.0000 0.0000 1433.2157 -8619.0798 244.6496 -10052.2954 -8615.6831 239.8905 519.6219 552.9763 28887.1781 3.5624 3.5845
TCL: Running 100000 steps at 270 kelvin.
TCL: Setting parameter langevinTemp to 270
TCL: Running for 100000 steps
ETITLE: TS BOND ANGLE DIHED IMPRP ELECT VDW BOUNDARY MISC KINETIC TOTAL TEMP POTENTIAL TOTAL3 TEMPAVG PRESSURE GPRESSURE VOLUME PRESSAVG GPRESSAVG
ENERGY: 800000 2.0376 6.8287 9.8668 0.0000 -11847.9654 1776.9369 0.0000 0.0000 1432.4993 -8619.7961 244.5273 -10052.2954 -8618.0632 244.5273 479.8901 554.3630 28887.1781 479.8901 554.3630
ENERGY: 900000 1.8666 7.0420 11.8141 0.0000 -11176.5437 1540.8958 0.0000 0.0000 1609.7799 -8005.1453 274.7890 -9614.9253 -8001.3455 269.8559 -186.4614 -145.4119 29805.3551 4.6107 4.3587
TCL: Running 1000000 steps at 300 kelvin.
TCL: Setting parameter langevinTemp to 300
TCL: Running for 1000000 steps
ETITLE: TS BOND ANGLE DIHED IMPRP ELECT VDW BOUNDARY MISC KINETIC TOTAL TEMP POTENTIAL TOTAL3 TEMPAVG PRESSURE GPRESSURE VOLUME PRESSAVG GPRESSAVG
ENERGY: 900000 1.8666 7.0420 11.8141 0.0000 -11176.5437 1540.8958 0.0000 0.0000 1609.0153 -8005.9099 274.6585 -9614.9253 -8003.3981 274.6585 -223.4723 -144.6128 29805.3551 -223.4723 -144.6128
ENERGY: 1100000 2.4372 12.9271 9.5800 0.0000 -10693.7170 1470.5158 0.0000 0.0000 1756.2674 -7441.9895 299.7944 -9198.2568 -7437.9119 301.0649 402.3010 438.5675 30371.9086 4.2754 4.3939
ENERGY: 1300000 1.5253 13.4634 7.5141 0.0000 -10712.0282 1437.7782 0.0000 0.0000 1735.4153 -7516.3320 296.2350 -9251.7473 -7513.7414 300.2557 -119.0886 -56.2451 30395.3187 3.0832 3.1657
ENERGY: 1500000 3.5319 11.6618 12.7337 0.0000 -10694.8402 1430.2233 0.0000 0.0000 1694.9092 -7541.7802 289.3206 -9236.6895 -7539.4273 300.0139 53.0958 161.3422 30127.7114 2.6961 2.6054
ENERGY: 1700000 0.9807 10.7422 10.2416 0.0000 -10685.3487 1429.9174 0.0000 0.0000 1741.8627 -7491.6040 297.3355 -9233.4667 -7487.0684 299.7793 142.2230 251.2246 30046.5397 3.0689 3.1046
ENERGY: 1900000 1.0001 11.7240 7.5041 0.0000 -10573.7695 1367.3960 0.0000 0.0000 1745.0310 -7441.1142 297.8764 -9186.1452 -7437.8711 300.2777 -465.3717 -353.1056 30494.7124 4.0108 3.9903
TCL: Exiting due to exit command.
