Info: SIMULATION PARAMETERS:
Info: TIMESTEP               2
Info: NUMBER OF STEPS        0
Info: STEPS PER CYCLE        10
Info: PERIODIC CELL BASIS 1  34.207 0 0
Info: PERIODIC CELL BASIS 2  0 34.696 0
Info: PERIODIC CELL BASIS 3  0 0 36.583
Info: PERIODIC CELL CENTER   0 0 0
Info: WRAPPING WATERS AROUND PERIODIC BOUNDARIES ON OUTPUT.
Info: WRAPPING ALL CLUSTERS AROUND PERIODIC BOUNDARIES ON OUTPUT.
Info: FIRST LDB TIMESTEP     50
Info: LAST LDB TIMESTEP     -1
Info: HOM BACKGROUND SCALING 1
Info: PME BACKGROUND SCALING 1
Info: MIN ATOMS PER PATCH    40
Info: EMPTY PATCH LOAD       40 ATOMS
Info: INITIAL TEMPERATURE    300
Info: CENTER OF MASS MOVING INITIALLY? NO
Info: DIELECTRIC             1
Info: EXCLUDE                SCALED ONE-FOUR
Info: 1-4 ELECTROSTATICS SCALED BY 0.833333
Info: MODIFIED 1-4 VDW PARAMETERS WILL BE USED
Info: DCD FILENAME           mobley_6338073_equil.dcd
Info: DCD FREQUENCY          100000
Info: DCD FIRST STEP         100000
Info: DCD FILE WILL CONTAIN UNIT CELL DATA
Info: XST FILENAME           mobley_6338073_equil.xst
Info: XST FREQUENCY          100000
Info: NO VELOCITY DCD OUTPUT
Info: NO FORCE DCD OUTPUT
Info: OUTPUT FILENAME        mobley_6338073_equil
Info: BINARY OUTPUT FILES WILL BE USED
Info: RESTART FILENAME       mobley_6338073_equil.restart
Info: RESTART FREQUENCY      100000
Info: BINARY RESTART FILES WILL BE USED
Info: CUTOFF                 9
Info: PAIRLIST DISTANCE      11
Info: PAIRLIST SHRINK RATE   0.01
Info: PAIRLIST GROW RATE     0.01
Info: PAIRLIST TRIGGER       0.3
Info: PAIRLISTS PER CYCLE    2
Info: PAIRLISTS ENABLED
Info: MARGIN                 8
Info: HYDROGEN GROUP CUTOFF  2.5
Info: PATCH DIMENSION        21.5
Info: ENERGY OUTPUT STEPS    100000
Info: ENERGY EVALUATION STEPS    100000
Info: OUTPUT ENERGY PRECISION 4
Info: CROSSTERM ENERGY INCLUDED IN DIHEDRAL
Info: TIMING OUTPUT STEPS    1000000
Info: PRESSURE OUTPUT STEPS  100000
Info: LANGEVIN DYNAMICS ACTIVE
Info: LANGEVIN TEMPERATURE   30
Info: LANGEVIN USING BBK INTEGRATOR
Info: LANGEVIN DAMPING COEFFICIENT IS 1 INVERSE PS
Info: LANGEVIN DYNAMICS APPLIED TO HYDROGENS
Info: LANGEVIN PISTON PRESSURE CONTROL ACTIVE
Info:        TARGET PRESSURE IS 1.01325 BAR
Info:     OSCILLATION PERIOD IS 50 FS
Info:             DECAY TIME IS 25 FS
Info:     PISTON TEMPERATURE IS 300 K
Info:       PRESSURE CONTROL IS GROUP-BASED
Info:    INITIAL STRAIN RATE IS 0 0 0
Info:       CELL FLUCTUATION IS ISOTROPIC
Info: PARTICLE MESH EWALD (PME) ACTIVE
Info: PME TOLERANCE               1e-06
Info: PME EWALD COEFFICIENT       0.348832
Info: PME INTERPOLATION ORDER     4
Info: PME GRID DIMENSIONS         36 36 40
Info: PME MAXIMUM GRID SPACING    1
Info: FULL ELECTROSTATIC EVALUATION FREQUENCY      2
Info: USING VERLET I (r-RESPA) MTS SCHEME.
Info: C1 SPLITTING OF LONG RANGE ELECTROSTATICS
Info: PLACING ATOMS IN PATCHES BY HYDROGEN GROUPS
Info: RIGID BONDS TO HYDROGEN : ALL
Info:         ERROR TOLERANCE : 1e-08
Info:          MAX ITERATIONS : 100
Info: RIGID WATER USING SETTLE ALGORITHM
Info: RANDOM NUMBER SEED     1743257731
Info: USE HYDROGEN BONDS?    NO
Info: Using AMBER format force field!
Info: AMBER PARM FILE        mobley_6338073.prmtop
Info: COORDINATE PDB         mobley_6338073.pdb
Info: Exclusions will be read from PARM file!
Info: SCNB (VDW SCALING)     2
Info: USING ARITHMETIC MEAN TO COMBINE L-J SIGMA PARAMETERS
Info: BINARY COORDINATES     mobley_6338073_min.coor
Info: SUMMARY OF PARAMETERS:
Info: 11 BONDS
Info: 16 ANGLES
Info:   16 HARMONIC
Info:   0 COSINE-BASED
Info: 8 DIHEDRAL
Info: 0 IMPROPER
Info: 0 CROSSTERM
Info: 0 VDW
Info: 45 VDW_PAIRS
Info: 0 NBTHOLE_PAIRS
Info: STRUCTURE SUMMARY:
Info: 2948 ATOMS
Info: 2948 BONDS
Info: 61 ANGLES
Info: 78 DIHEDRALS
Info: 0 IMPROPERS
Info: 0 CROSSTERMS
Info: 3079 EXCLUSIONS
Info: 2932 RIGID BONDS
Info: 5912 DEGREES OF FREEDOM
Info: 987 HYDROGEN GROUPS
Info: 4 ATOMS IN LARGEST HYDROGEN GROUP
Info: 987 MIGRATION GROUPS
Info: 4 ATOMS IN LARGEST MIGRATION GROUP
Info: TOTAL MASS = 17734.9 amu
Info: TOTAL CHARGE = 4.09782e-08 e
Info: MASS DENSITY = 0.678288 g/cm^3
Info: ATOM DENSITY = 0.0678975 atoms/A^3
Info: ADDED 0 IMPLICIT EXCLUSIONS
Info: NONBONDED TABLE R-SQUARED SPACING: 0.0625
Info: NONBONDED TABLE SIZE: 705 POINTS
Info: REMOVING COM VELOCITY 0.0676402 -0.0416485 -0.215364
TCL: Running for 100000 steps
ETITLE: TS BOND ANGLE DIHED IMPRP ELECT VDW BOUNDARY MISC KINETIC TOTAL TEMP POTENTIAL TOTAL3 TEMPAVG PRESSURE GPRESSURE VOLUME PRESSAVG GPRESSAVG
ENERGY: 0 2.1802 5.5915 3.2241 0.0000 -14028.1385 2355.2739 0.0000 0.0000 1782.1339 -9879.7349 303.3865 -11661.8689 -9879.3723 303.3865 224.1288 266.0356 43418.3899 224.1288 266.0356
ENERGY: 100000 3.5173 7.0530 6.9710 0.0000 -14601.3128 2514.1333 0.0000 0.0000 169.6637 -11899.9744 28.8832 -12069.6381 -11899.8646 30.9084 758.0914 830.8480 28679.3331 4.3713 4.4079
TCL: Running 100000 steps at 60 kelvin.
TCL: Setting parameter langevinTemp to 60
TCL: Running for 100000 steps
ETITLE: TS BOND ANGLE DIHED IMPRP ELECT VDW BOUNDARY MISC KINETIC TOTAL TEMP POTENTIAL TOTAL3 TEMPAVG PRESSURE GPRESSURE VOLUME PRESSAVG GPRESSAVG
ENERGY: 100000 3.5173 7.0530 6.9710 0.0000 -14601.3128 2514.1333 0.0000 0.0000 169.5737 -11900.0643 28.8679 -12069.6381 -11899.6430 28.8679 776.0578 830.4208 28679.3331 776.0578 830.4208
ENERGY: 200000 4.1539 9.9844 5.6490 0.0000 -14434.2775 2402.3435 0.0000 0.0000 360.0419 -11652.1048 61.2927 -12012.1467 -11651.2693 59.8880 159.3955 208.6335 28631.9881 3.9342 3.9218
TCL: Running 100000 steps at 90 kelvin.
TCL: Setting parameter langevinTemp to 90
TCL: Running for 100000 steps
ETITLE: TS BOND ANGLE DIHED IMPRP ELECT VDW BOUNDARY MISC KINETIC TOTAL TEMP POTENTIAL TOTAL3 TEMPAVG PRESSURE GPRESSURE VOLUME PRESSAVG GPRESSAVG
ENERGY: 200000 4.1539 9.9844 5.6490 0.0000 -14434.2775 2402.3435 0.0000 0.0000 359.8681 -11652.2786 61.2631 -12012.1467 -11651.2448 61.2631 167.1295 208.1073 28631.9881 167.1295 208.1073
ENERGY: 300000 4.9530 10.2571 6.5769 0.0000 -14459.2888 2499.8793 0.0000 0.0000 526.5651 -11411.0574 89.6413 -11937.6226 -11410.2664 89.8648 1364.8444 1381.5003 28176.1486 4.2811 4.3435
TCL: Running 100000 steps at 120 kelvin.
TCL: Setting parameter langevinTemp to 120
TCL: Running for 100000 steps
ETITLE: TS BOND ANGLE DIHED IMPRP ELECT VDW BOUNDARY MISC KINETIC TOTAL TEMP POTENTIAL TOTAL3 TEMPAVG PRESSURE GPRESSURE VOLUME PRESSAVG GPRESSAVG
ENERGY: 300000 4.9530 10.2571 6.5769 0.0000 -14459.2888 2499.8793 0.0000 0.0000 526.2984 -11411.3242 89.5959 -11937.6226 -11410.3548 89.5959 1341.4814 1381.1472 28176.1486 1341.4814 1381.1472
ENERGY: 400000 6.5412 9.0366 9.7273 0.0000 -13984.6732 2152.2352 0.0000 0.0000 685.1191 -11122.0139 116.6331 -11807.1330 -11120.2081 119.7499 -1285.0897 -1241.8631 28534.2333 5.2941 5.2172
TCL: Running 100000 steps at 150 kelvin.
TCL: Setting parameter langevinTemp to 150
TCL: Running for 100000 steps
ETITLE: TS BOND ANGLE DIHED IMPRP ELECT VDW BOUNDARY MISC KINETIC TOTAL TEMP POTENTIAL TOTAL3 TEMPAVG PRESSURE GPRESSURE VOLUME PRESSAVG GPRESSAVG
ENERGY: 400000 6.5412 9.0366 9.7273 0.0000 -13984.6732 2152.2352 0.0000 0.0000 684.7649 -11122.3680 116.5729 -11807.1330 -11120.9827 116.5729 -1278.5567 -1241.7808 28534.2333 -1278.5567 -1241.7808
ENERGY: 500000 3.3003 12.6003 5.1895 0.0000 -13700.4439 2067.2035 0.0000 0.0000 898.0384 -10714.1119 152.8801 -11612.1503 -10712.7204 149.9356 -1380.2751 -1297.5431 28912.4759 4.8613 5.0198
TCL: Running 100000 steps at 180 kelvin.
TCL: Setting parameter langevinTemp to 180
TCL: Running for 100000 steps
ETITLE: TS BOND ANGLE DIHED IMPRP ELECT VDW BOUNDARY MISC KINETIC TOTAL TEMP POTENTIAL TOTAL3 TEMPAVG PRESSURE GPRESSURE VOLUME PRESSAVG GPRESSAVG
ENERGY: 500000 3.3003 12.6003 5.1895 0.0000 -13700.4439 2067.2035 0.0000 0.0000 897.5956 -10714.5547 152.8047 -11612.1503 -10712.8499 152.8047 -1357.0875 -1297.6746 28912.4759 -1357.0875 -1297.6746
ENERGY: 600000 4.1915 15.9375 5.2442 0.0000 -13667.0457 2259.9460 0.0000 0.0000 1033.9933 -10347.7332 176.0247 -11381.7265 -10346.5335 180.3018 1452.5035 1465.9124 28337.7928 4.1659 4.0872
TCL: Running 100000 steps at 210 kelvin.
TCL: Setting parameter langevinTemp to 210
TCL: Running for 100000 steps
ETITLE: TS BOND ANGLE DIHED IMPRP ELECT VDW BOUNDARY MISC KINETIC TOTAL TEMP POTENTIAL TOTAL3 TEMPAVG PRESSURE GPRESSURE VOLUME PRESSAVG GPRESSAVG
ENERGY: 600000 4.1915 15.9375 5.2442 0.0000 -13667.0457 2259.9460 0.0000 0.0000 1033.4615 -10348.2650 175.9342 -11381.7265 -10346.5075 175.9342 1424.9271 1465.3328 28337.7928 1424.9271 1465.3328
ENERGY: 700000 5.7402 15.2999 4.2022 0.0000 -12631.4682 1747.8364 0.0000 0.0000 1200.3756 -9658.0139 204.3493 -10858.3895 -9653.1546 210.1105 -1079.2212 -979.0286 28561.8209 3.3163 3.3412
TCL: Running 100000 steps at 240 kelvin.
TCL: Setting parameter langevinTemp to 240
TCL: Running for 100000 steps
ETITLE: TS BOND ANGLE DIHED IMPRP ELECT VDW BOUNDARY MISC KINETIC TOTAL TEMP POTENTIAL TOTAL3 TEMPAVG PRESSURE GPRESSURE VOLUME PRESSAVG GPRESSAVG
ENERGY: 700000 5.7402 15.2999 4.2022 0.0000 -12631.4682 1747.8364 0.0000 0.0000 1199.7628 -9658.6267 204.2450 -10858.3895 -9656.2973 204.2450 -1063.9484 -977.5416 28561.8209 -1063.9484 -977.5416
ENERGY: 800000 6.8243 18.9173 11.1779 0.0000 -12071.3231 1638.5012 0.0000 0.0000 1416.9044 -8978.9980 241.2107 -10395.9025 -8977.1588 239.5009 -539.0919 -441.3094 29029.0992 3.5659 3.4438
TCL: Running 100000 steps at 270 kelvin.
TCL: Setting parameter langevinTemp to 270
TCL: Running for 100000 steps
ETITLE: TS BOND ANGLE DIHED IMPRP ELECT VDW BOUNDARY MISC KINETIC TOTAL TEMP POTENTIAL TOTAL3 TEMPAVG PRESSURE GPRESSURE VOLUME PRESSAVG GPRESSAVG
ENERGY: 800000 6.8243 18.9173 11.1779 0.0000 -12071.3231 1638.5012 0.0000 0.0000 1416.1966 -8979.7059 241.0902 -10395.9025 -8976.8488 241.0902 -522.7006 -442.5240 29029.0992 -522.7006 -442.5240
ENERGY: 900000 4.8347 20.8992 8.2034 0.0000 -11658.7528 1589.1409 0.0000 0.0000 1650.2379 -8385.4367 280.9328 -10035.6746 -8380.9235 270.5542 170.9246 303.2797 29481.8438 4.5569 4.5304
TCL: Running 1000000 steps at 300 kelvin.
TCL: Setting parameter langevinTemp to 300
TCL: Running for 1000000 steps
ETITLE: TS BOND ANGLE DIHED IMPRP ELECT VDW BOUNDARY MISC KINETIC TOTAL TEMP POTENTIAL TOTAL3 TEMPAVG PRESSURE GPRESSURE VOLUME PRESSAVG GPRESSAVG
ENERGY: 900000 4.8347 20.8992 8.2034 0.0000 -11658.7528 1589.1409 0.0000 0.0000 1649.4885 -8386.1861 280.8053 -10035.6746 -8383.2360 280.8053 214.4486 304.2220 29481.8438 214.4486 304.2220
ENERGY: 1100000 8.5082 24.3711 5.2863 0.0000 -11144.3498 1461.4079 0.0000 0.0000 1774.3618 -7870.4145 302.0634 -9644.7763 -7864.2492 300.5513 267.4684 334.6536 30088.1962 2.2063 2.2522
ENERGY: 1300000 8.1558 14.6717 11.0855 0.0000 -11193.6394 1419.9418 0.0000 0.0000 1765.8700 -7973.9146 300.6178 -9739.7847 -7968.3685 300.9647 -423.7736 -352.7776 30225.1672 4.1477 3.9930
ENERGY: 1500000 6.4777 23.3925 7.8822 0.0000 -11071.0591 1343.9199 0.0000 0.0000 1723.0680 -7966.3189 293.3313 -9689.3869 -7964.4955 300.4975 -964.5102 -890.7966 30369.7644 2.5973 2.4799
ENERGY: 1700000 7.6772 22.5204 4.6344 0.0000 -11089.6348 1432.5296 0.0000 0.0000 1804.9908 -7817.2825 307.2776 -9622.2732 -7813.6364 300.2611 -152.6537 -12.6416 31069.2416 3.5806 3.7005
ENERGY: 1900000 4.3689 15.5283 9.0324 0.0000 -11003.2880 1356.9816 0.0000 0.0000 1711.1220 -7906.2548 291.2976 -9617.3768 -7904.3423 300.9504 -654.1824 -550.7401 30541.4146 2.6189 2.3906
TCL: Exiting due to exit command.
