Info: SIMULATION PARAMETERS:
Info: TIMESTEP               2
Info: NUMBER OF STEPS        0
Info: STEPS PER CYCLE        10
Info: PERIODIC CELL BASIS 1  37.435 0 0
Info: PERIODIC CELL BASIS 2  0 35.847 0
Info: PERIODIC CELL BASIS 3  0 0 33.088
Info: PERIODIC CELL CENTER   0 0 0
Info: WRAPPING WATERS AROUND PERIODIC BOUNDARIES ON OUTPUT.
Info: WRAPPING ALL CLUSTERS AROUND PERIODIC BOUNDARIES ON OUTPUT.
Info: FIRST LDB TIMESTEP     50
Info: LAST LDB TIMESTEP     -1
Info: HOM BACKGROUND SCALING 1
Info: PME BACKGROUND SCALING 1
Info: MIN ATOMS PER PATCH    40
Info: EMPTY PATCH LOAD       40 ATOMS
Info: INITIAL TEMPERATURE    300
Info: CENTER OF MASS MOVING INITIALLY? NO
Info: DIELECTRIC             1
Info: EXCLUDE                SCALED ONE-FOUR
Info: 1-4 ELECTROSTATICS SCALED BY 0.833333
Info: MODIFIED 1-4 VDW PARAMETERS WILL BE USED
Info: DCD FILENAME           mobley_5857_equil.dcd
Info: DCD FREQUENCY          100000
Info: DCD FIRST STEP         100000
Info: DCD FILE WILL CONTAIN UNIT CELL DATA
Info: XST FILENAME           mobley_5857_equil.xst
Info: XST FREQUENCY          100000
Info: NO VELOCITY DCD OUTPUT
Info: NO FORCE DCD OUTPUT
Info: OUTPUT FILENAME        mobley_5857_equil
Info: BINARY OUTPUT FILES WILL BE USED
Info: RESTART FILENAME       mobley_5857_equil.restart
Info: RESTART FREQUENCY      100000
Info: BINARY RESTART FILES WILL BE USED
Info: CUTOFF                 9
Info: PAIRLIST DISTANCE      11
Info: PAIRLIST SHRINK RATE   0.01
Info: PAIRLIST GROW RATE     0.01
Info: PAIRLIST TRIGGER       0.3
Info: PAIRLISTS PER CYCLE    2
Info: PAIRLISTS ENABLED
Info: MARGIN                 8
Info: HYDROGEN GROUP CUTOFF  2.5
Info: PATCH DIMENSION        21.5
Info: ENERGY OUTPUT STEPS    100000
Info: ENERGY EVALUATION STEPS    100000
Info: OUTPUT ENERGY PRECISION 4
Info: CROSSTERM ENERGY INCLUDED IN DIHEDRAL
Info: TIMING OUTPUT STEPS    1000000
Info: PRESSURE OUTPUT STEPS  100000
Info: LANGEVIN DYNAMICS ACTIVE
Info: LANGEVIN TEMPERATURE   30
Info: LANGEVIN USING BBK INTEGRATOR
Info: LANGEVIN DAMPING COEFFICIENT IS 1 INVERSE PS
Info: LANGEVIN DYNAMICS APPLIED TO HYDROGENS
Info: LANGEVIN PISTON PRESSURE CONTROL ACTIVE
Info:        TARGET PRESSURE IS 1.01325 BAR
Info:     OSCILLATION PERIOD IS 50 FS
Info:             DECAY TIME IS 25 FS
Info:     PISTON TEMPERATURE IS 300 K
Info:       PRESSURE CONTROL IS GROUP-BASED
Info:    INITIAL STRAIN RATE IS 0 0 0
Info:       CELL FLUCTUATION IS ISOTROPIC
Info: PARTICLE MESH EWALD (PME) ACTIVE
Info: PME TOLERANCE               1e-06
Info: PME EWALD COEFFICIENT       0.348832
Info: PME INTERPOLATION ORDER     4
Info: PME GRID DIMENSIONS         40 36 36
Info: PME MAXIMUM GRID SPACING    1
Info: FULL ELECTROSTATIC EVALUATION FREQUENCY      2
Info: USING VERLET I (r-RESPA) MTS SCHEME.
Info: C1 SPLITTING OF LONG RANGE ELECTROSTATICS
Info: PLACING ATOMS IN PATCHES BY HYDROGEN GROUPS
Info: RIGID BONDS TO HYDROGEN : ALL
Info:         ERROR TOLERANCE : 1e-08
Info:          MAX ITERATIONS : 100
Info: RIGID WATER USING SETTLE ALGORITHM
Info: RANDOM NUMBER SEED     1743214129
Info: USE HYDROGEN BONDS?    NO
Info: Using AMBER format force field!
Info: AMBER PARM FILE        mobley_5857.prmtop
Info: COORDINATE PDB         mobley_5857.pdb
Info: Exclusions will be read from PARM file!
Info: SCNB (VDW SCALING)     2
Info: USING ARITHMETIC MEAN TO COMBINE L-J SIGMA PARAMETERS
Info: BINARY COORDINATES     mobley_5857_min.coor
Info: SUMMARY OF PARAMETERS:
Info: 6 BONDS
Info: 6 ANGLES
Info:   6 HARMONIC
Info:   0 COSINE-BASED
Info: 3 DIHEDRAL
Info: 0 IMPROPER
Info: 0 CROSSTERM
Info: 0 VDW
Info: 21 VDW_PAIRS
Info: 0 NBTHOLE_PAIRS
Info: STRUCTURE SUMMARY:
Info: 2999 ATOMS
Info: 3000 BONDS
Info: 28 ANGLES
Info: 49 DIHEDRALS
Info: 0 IMPROPERS
Info: 0 CROSSTERMS
Info: 3062 EXCLUSIONS
Info: 2989 RIGID BONDS
Info: 6008 DEGREES OF FREEDOM
Info: 1004 HYDROGEN GROUPS
Info: 3 ATOMS IN LARGEST HYDROGEN GROUP
Info: 1004 MIGRATION GROUPS
Info: 3 ATOMS IN LARGEST MIGRATION GROUP
Info: TOTAL MASS = 18037.1 amu
Info: TOTAL CHARGE = 0.000100004 e
Info: MASS DENSITY = 0.674565 g/cm^3
Info: ATOM DENSITY = 0.0675422 atoms/A^3
Info: ADDED 0 IMPLICIT EXCLUSIONS
Info: NONBONDED TABLE R-SQUARED SPACING: 0.0625
Info: NONBONDED TABLE SIZE: 705 POINTS
Info: REMOVING COM VELOCITY 0.0430517 -0.0756771 0.0769502
TCL: Running for 100000 steps
ETITLE: TS BOND ANGLE DIHED IMPRP ELECT VDW BOUNDARY MISC KINETIC TOTAL TEMP POTENTIAL TOTAL3 TEMPAVG PRESSURE GPRESSURE VOLUME PRESSAVG GPRESSAVG
ENERGY: 0 0.3426 0.5974 0.0448 0.0000 -13862.3355 2444.0729 0.0000 0.0000 1779.5126 -9637.7652 298.0997 -11417.2778 -9637.4448 298.0997 394.3557 430.1388 44401.8607 394.3557 430.1388
ENERGY: 100000 0.8881 0.9342 0.2901 0.0000 -14432.8732 2486.8674 0.0000 0.0000 181.2042 -11762.6893 30.3549 -11943.8935 -11762.1302 30.9306 -205.4945 -133.9750 29166.0932 3.6012 3.6314
TCL: Running 100000 steps at 60 kelvin.
TCL: Setting parameter langevinTemp to 60
TCL: Running for 100000 steps
ETITLE: TS BOND ANGLE DIHED IMPRP ELECT VDW BOUNDARY MISC KINETIC TOTAL TEMP POTENTIAL TOTAL3 TEMPAVG PRESSURE GPRESSURE VOLUME PRESSAVG GPRESSAVG
ENERGY: 100000 0.8881 0.9342 0.2901 0.0000 -14432.8732 2486.8674 0.0000 0.0000 181.1173 -11762.7762 30.3403 -11943.8935 -11762.3016 30.3403 -196.3895 -134.0598 29166.0932 -196.3895 -134.0598
ENERGY: 200000 1.4364 1.5381 1.3327 0.0000 -14496.7689 2639.7341 0.0000 0.0000 364.1682 -11488.5595 61.0046 -11852.7277 -11487.4327 59.9391 1506.4474 1540.9064 28893.3838 3.9838 3.9571
TCL: Running 100000 steps at 90 kelvin.
TCL: Setting parameter langevinTemp to 90
TCL: Running for 100000 steps
ETITLE: TS BOND ANGLE DIHED IMPRP ELECT VDW BOUNDARY MISC KINETIC TOTAL TEMP POTENTIAL TOTAL3 TEMPAVG PRESSURE GPRESSURE VOLUME PRESSAVG GPRESSAVG
ENERGY: 200000 1.4364 1.5381 1.3327 0.0000 -14496.7689 2639.7341 0.0000 0.0000 363.9888 -11488.7388 60.9745 -11852.7277 -11488.1526 60.9745 1484.2983 1541.2173 28893.3838 1484.2983 1541.2173
ENERGY: 300000 1.0773 1.5596 1.0093 0.0000 -14302.6679 2500.1254 0.0000 0.0000 527.0715 -11271.8247 88.2937 -11798.8962 -11270.2786 90.1557 452.4414 519.5175 29010.1837 4.1608 4.1629
TCL: Running 100000 steps at 120 kelvin.
TCL: Setting parameter langevinTemp to 120
TCL: Running for 100000 steps
ETITLE: TS BOND ANGLE DIHED IMPRP ELECT VDW BOUNDARY MISC KINETIC TOTAL TEMP POTENTIAL TOTAL3 TEMPAVG PRESSURE GPRESSURE VOLUME PRESSAVG GPRESSAVG
ENERGY: 300000 1.0773 1.5596 1.0093 0.0000 -14302.6679 2500.1254 0.0000 0.0000 526.7992 -11272.0970 88.2481 -11798.8962 -11270.8983 88.2481 469.5982 519.8932 29010.1837 469.5982 519.8932
ENERGY: 400000 1.8313 2.0077 3.7598 0.0000 -14037.8956 2391.8413 0.0000 0.0000 688.9930 -10949.4625 115.4185 -11638.4556 -10947.7267 119.7952 152.9404 191.5412 29230.9092 4.2072 4.4297
TCL: Running 100000 steps at 150 kelvin.
TCL: Setting parameter langevinTemp to 150
TCL: Running for 100000 steps
ETITLE: TS BOND ANGLE DIHED IMPRP ELECT VDW BOUNDARY MISC KINETIC TOTAL TEMP POTENTIAL TOTAL3 TEMPAVG PRESSURE GPRESSURE VOLUME PRESSAVG GPRESSAVG
ENERGY: 400000 1.8313 2.0077 3.7598 0.0000 -14037.8956 2391.8413 0.0000 0.0000 688.6505 -10949.8051 115.3611 -11638.4556 -10948.3661 115.3611 165.4673 191.5993 29230.9092 165.4673 191.5993
ENERGY: 500000 1.1581 1.5923 2.1284 0.0000 -13691.6552 2237.6484 0.0000 0.0000 886.8491 -10562.2789 148.5628 -11449.1280 -10559.6758 149.9172 -629.3367 -599.2790 29761.6906 4.5253 4.6144
TCL: Running 100000 steps at 180 kelvin.
TCL: Setting parameter langevinTemp to 180
TCL: Running for 100000 steps
ETITLE: TS BOND ANGLE DIHED IMPRP ELECT VDW BOUNDARY MISC KINETIC TOTAL TEMP POTENTIAL TOTAL3 TEMPAVG PRESSURE GPRESSURE VOLUME PRESSAVG GPRESSAVG
ENERGY: 500000 1.1581 1.5923 2.1284 0.0000 -13691.6552 2237.6484 0.0000 0.0000 886.3833 -10562.7447 148.4848 -11449.1280 -10561.0953 148.4848 -659.2637 -599.2636 29761.6906 -659.2637 -599.2636
ENERGY: 600000 2.9706 3.0320 2.2220 0.0000 -13396.4916 2182.1095 0.0000 0.0000 1088.8883 -10117.2692 182.4080 -11206.1575 -10114.3909 179.9836 -226.1382 -215.3577 29719.5001 4.2323 4.3107
TCL: Running 100000 steps at 210 kelvin.
TCL: Setting parameter langevinTemp to 210
TCL: Running for 100000 steps
ETITLE: TS BOND ANGLE DIHED IMPRP ELECT VDW BOUNDARY MISC KINETIC TOTAL TEMP POTENTIAL TOTAL3 TEMPAVG PRESSURE GPRESSURE VOLUME PRESSAVG GPRESSAVG
ENERGY: 600000 2.9706 3.0320 2.2220 0.0000 -13396.4916 2182.1095 0.0000 0.0000 1088.3449 -10117.8126 182.3169 -11206.1575 -10115.3308 182.3169 -270.6069 -214.6010 29719.5001 -270.6069 -214.6010
ENERGY: 700000 2.7727 8.4879 1.9828 0.0000 -12615.7906 1913.0889 0.0000 0.0000 1260.4556 -9429.0029 211.1485 -10689.4584 -9426.4530 209.7687 -234.2407 -138.5992 29547.9126 3.8643 3.8923
TCL: Running 100000 steps at 240 kelvin.
TCL: Setting parameter langevinTemp to 240
TCL: Running for 100000 steps
ETITLE: TS BOND ANGLE DIHED IMPRP ELECT VDW BOUNDARY MISC KINETIC TOTAL TEMP POTENTIAL TOTAL3 TEMPAVG PRESSURE GPRESSURE VOLUME PRESSAVG GPRESSAVG
ENERGY: 700000 2.7727 8.4879 1.9828 0.0000 -12615.7906 1913.0889 0.0000 0.0000 1259.8421 -9429.6163 211.0457 -10689.4584 -9427.8999 211.0457 -226.6954 -137.2853 29547.9126 -226.6954 -137.2853
ENERGY: 800000 3.4456 4.6280 3.2174 0.0000 -11875.7926 1625.3199 0.0000 0.0000 1429.3660 -8809.8157 239.4440 -10239.1817 -8803.2429 239.8542 -995.7340 -882.1281 29579.5156 3.5962 3.6209
TCL: Running 100000 steps at 270 kelvin.
TCL: Setting parameter langevinTemp to 270
TCL: Running for 100000 steps
ETITLE: TS BOND ANGLE DIHED IMPRP ELECT VDW BOUNDARY MISC KINETIC TOTAL TEMP POTENTIAL TOTAL3 TEMPAVG PRESSURE GPRESSURE VOLUME PRESSAVG GPRESSAVG
ENERGY: 800000 3.4456 4.6280 3.2174 0.0000 -11875.7926 1625.3199 0.0000 0.0000 1428.6431 -8810.5386 239.3229 -10239.1817 -8807.5312 239.3229 -966.9267 -879.6526 29579.5156 -966.9267 -879.6526
ENERGY: 900000 3.7838 5.1717 6.1005 0.0000 -11378.5750 1581.9398 0.0000 0.0000 1617.2650 -8164.3142 270.9204 -9781.5792 -8161.6869 270.3101 183.8665 234.7832 29888.5087 3.8964 4.0204
TCL: Running 1000000 steps at 300 kelvin.
TCL: Setting parameter langevinTemp to 300
TCL: Running for 1000000 steps
ETITLE: TS BOND ANGLE DIHED IMPRP ELECT VDW BOUNDARY MISC KINETIC TOTAL TEMP POTENTIAL TOTAL3 TEMPAVG PRESSURE GPRESSURE VOLUME PRESSAVG GPRESSAVG
ENERGY: 900000 3.7838 5.1717 6.1005 0.0000 -11378.5750 1581.9398 0.0000 0.0000 1616.4966 -8165.0826 270.7916 -9781.5792 -8162.9256 270.7916 148.0091 235.9972 29888.5087 148.0091 235.9972
ENERGY: 1100000 3.6292 4.6877 3.5518 0.0000 -10752.5195 1350.7004 0.0000 0.0000 1714.3838 -7675.5666 287.1895 -9389.9504 -7672.2128 299.2806 -1002.1396 -886.4914 31337.2168 2.3152 2.1338
ENERGY: 1300000 1.7831 5.2360 3.6337 0.0000 -10907.8224 1480.6489 0.0000 0.0000 1788.9322 -7627.5885 299.6776 -9416.5207 -7624.4491 300.7532 203.5059 253.1595 30776.4219 3.1472 3.0671
ENERGY: 1500000 3.1174 4.9718 5.3105 0.0000 -10828.2362 1433.5393 0.0000 0.0000 1742.8093 -7638.4879 291.9512 -9381.2972 -7633.2132 300.1908 -236.0005 -211.6609 31254.2198 4.0751 3.9978
ENERGY: 1700000 10.2509 4.2724 2.4243 0.0000 -10735.1123 1406.4137 0.0000 0.0000 1806.5994 -7505.1516 302.6372 -9311.7510 -7501.3841 300.0074 -150.0321 -78.1669 30857.8450 3.7839 3.6736
ENERGY: 1900000 3.0759 4.0177 6.1533 0.0000 -11034.1461 1587.2568 0.0000 0.0000 1799.5050 -7634.1374 301.4488 -9433.6424 -7629.7704 300.2430 1095.7071 1158.9735 30526.5781 3.1260 3.1533
TCL: Exiting due to exit command.
