Info: SIMULATION PARAMETERS:
Info: TIMESTEP               2
Info: NUMBER OF STEPS        0
Info: STEPS PER CYCLE        10
Info: PERIODIC CELL BASIS 1  35.01 0 0
Info: PERIODIC CELL BASIS 2  0 35.132 0
Info: PERIODIC CELL BASIS 3  0 0 35.723
Info: PERIODIC CELL CENTER   0 0 0
Info: WRAPPING WATERS AROUND PERIODIC BOUNDARIES ON OUTPUT.
Info: WRAPPING ALL CLUSTERS AROUND PERIODIC BOUNDARIES ON OUTPUT.
Info: FIRST LDB TIMESTEP     50
Info: LAST LDB TIMESTEP     -1
Info: HOM BACKGROUND SCALING 1
Info: PME BACKGROUND SCALING 1
Info: MIN ATOMS PER PATCH    40
Info: EMPTY PATCH LOAD       40 ATOMS
Info: INITIAL TEMPERATURE    300
Info: CENTER OF MASS MOVING INITIALLY? NO
Info: DIELECTRIC             1
Info: EXCLUDE                SCALED ONE-FOUR
Info: 1-4 ELECTROSTATICS SCALED BY 0.833333
Info: MODIFIED 1-4 VDW PARAMETERS WILL BE USED
Info: DCD FILENAME           mobley_6359135_equil.dcd
Info: DCD FREQUENCY          100000
Info: DCD FIRST STEP         100000
Info: DCD FILE WILL CONTAIN UNIT CELL DATA
Info: XST FILENAME           mobley_6359135_equil.xst
Info: XST FREQUENCY          100000
Info: NO VELOCITY DCD OUTPUT
Info: NO FORCE DCD OUTPUT
Info: OUTPUT FILENAME        mobley_6359135_equil
Info: BINARY OUTPUT FILES WILL BE USED
Info: RESTART FILENAME       mobley_6359135_equil.restart
Info: RESTART FREQUENCY      100000
Info: BINARY RESTART FILES WILL BE USED
Info: CUTOFF                 9
Info: PAIRLIST DISTANCE      11
Info: PAIRLIST SHRINK RATE   0.01
Info: PAIRLIST GROW RATE     0.01
Info: PAIRLIST TRIGGER       0.3
Info: PAIRLISTS PER CYCLE    2
Info: PAIRLISTS ENABLED
Info: MARGIN                 8
Info: HYDROGEN GROUP CUTOFF  2.5
Info: PATCH DIMENSION        21.5
Info: ENERGY OUTPUT STEPS    100000
Info: ENERGY EVALUATION STEPS    100000
Info: OUTPUT ENERGY PRECISION 4
Info: CROSSTERM ENERGY INCLUDED IN DIHEDRAL
Info: TIMING OUTPUT STEPS    1000000
Info: PRESSURE OUTPUT STEPS  100000
Info: LANGEVIN DYNAMICS ACTIVE
Info: LANGEVIN TEMPERATURE   30
Info: LANGEVIN USING BBK INTEGRATOR
Info: LANGEVIN DAMPING COEFFICIENT IS 1 INVERSE PS
Info: LANGEVIN DYNAMICS APPLIED TO HYDROGENS
Info: LANGEVIN PISTON PRESSURE CONTROL ACTIVE
Info:        TARGET PRESSURE IS 1.01325 BAR
Info:     OSCILLATION PERIOD IS 50 FS
Info:             DECAY TIME IS 25 FS
Info:     PISTON TEMPERATURE IS 300 K
Info:       PRESSURE CONTROL IS GROUP-BASED
Info:    INITIAL STRAIN RATE IS 0 0 0
Info:       CELL FLUCTUATION IS ISOTROPIC
Info: PARTICLE MESH EWALD (PME) ACTIVE
Info: PME TOLERANCE               1e-06
Info: PME EWALD COEFFICIENT       0.348832
Info: PME INTERPOLATION ORDER     4
Info: PME GRID DIMENSIONS         36 36 36
Info: PME MAXIMUM GRID SPACING    1
Info: FULL ELECTROSTATIC EVALUATION FREQUENCY      2
Info: USING VERLET I (r-RESPA) MTS SCHEME.
Info: C1 SPLITTING OF LONG RANGE ELECTROSTATICS
Info: PLACING ATOMS IN PATCHES BY HYDROGEN GROUPS
Info: RIGID BONDS TO HYDROGEN : ALL
Info:         ERROR TOLERANCE : 1e-08
Info:          MAX ITERATIONS : 100
Info: RIGID WATER USING SETTLE ALGORITHM
Info: RANDOM NUMBER SEED     1743152722
Info: USE HYDROGEN BONDS?    NO
Info: Using AMBER format force field!
Info: AMBER PARM FILE        mobley_6359135.prmtop
Info: COORDINATE PDB         mobley_6359135.pdb
Info: Exclusions will be read from PARM file!
Info: SCNB (VDW SCALING)     2
Info: USING ARITHMETIC MEAN TO COMBINE L-J SIGMA PARAMETERS
Info: BINARY COORDINATES     mobley_6359135_min.coor
Info: SUMMARY OF PARAMETERS:
Info: 3 BONDS
Info: 1 ANGLES
Info:   1 HARMONIC
Info:   0 COSINE-BASED
Info: 0 DIHEDRAL
Info: 0 IMPROPER
Info: 0 CROSSTERM
Info: 0 VDW
Info: 10 VDW_PAIRS
Info: 0 NBTHOLE_PAIRS
Info: STRUCTURE SUMMARY:
Info: 2942 ATOMS
Info: 2941 BONDS
Info: 6 ANGLES
Info: 0 DIHEDRALS
Info: 0 IMPROPERS
Info: 0 CROSSTERMS
Info: 2947 EXCLUSIONS
Info: 2937 RIGID BONDS
Info: 5889 DEGREES OF FREEDOM
Info: 984 HYDROGEN GROUPS
Info: 3 ATOMS IN LARGEST HYDROGEN GROUP
Info: 984 MIGRATION GROUPS
Info: 3 ATOMS IN LARGEST MIGRATION GROUP
Info: TOTAL MASS = 17791.5 amu
Info: TOTAL CHARGE = -9.99868e-05 e
Info: MASS DENSITY = 0.672401 g/cm^3
Info: ATOM DENSITY = 0.0669576 atoms/A^3
Info: ADDED 0 IMPLICIT EXCLUSIONS
Info: NONBONDED TABLE R-SQUARED SPACING: 0.0625
Info: NONBONDED TABLE SIZE: 705 POINTS
Info: REMOVING COM VELOCITY 0.205784 -0.178609 0.015026
TCL: Running for 100000 steps
ETITLE: TS BOND ANGLE DIHED IMPRP ELECT VDW BOUNDARY MISC KINETIC TOTAL TEMP POTENTIAL TOTAL3 TEMPAVG PRESSURE GPRESSURE VOLUME PRESSAVG GPRESSAVG
ENERGY: 0 0.0006 0.0114 0.0000 0.0000 -13703.8722 2439.1142 0.0000 0.0000 1767.6913 -9497.0546 302.1032 -11264.7460 -9496.7148 302.1032 621.8108 658.8538 43938.2655 621.8108 658.8538
ENERGY: 100000 0.1019 0.1837 0.0000 0.0000 -14241.1224 2436.8830 0.0000 0.0000 175.1346 -11628.8191 29.9310 -11803.9538 -11628.5353 31.0248 -470.5973 -434.2548 28706.2773 3.2064 3.1601
TCL: Running 100000 steps at 60 kelvin.
TCL: Setting parameter langevinTemp to 60
TCL: Running for 100000 steps
ETITLE: TS BOND ANGLE DIHED IMPRP ELECT VDW BOUNDARY MISC KINETIC TOTAL TEMP POTENTIAL TOTAL3 TEMPAVG PRESSURE GPRESSURE VOLUME PRESSAVG GPRESSAVG
ENERGY: 100000 0.1019 0.1837 0.0000 0.0000 -14241.1224 2436.8830 0.0000 0.0000 175.0462 -11628.9076 29.9159 -11803.9538 -11628.4821 29.9159 -491.7137 -434.4081 28706.2773 -491.7137 -434.4081
ENERGY: 200000 0.3091 0.2337 0.0000 0.0000 -14214.4431 2503.6490 0.0000 0.0000 354.3376 -11355.9138 60.5572 -11710.2514 -11355.1823 59.9362 549.6739 600.9833 28453.1088 4.0728 4.0220
TCL: Running 100000 steps at 90 kelvin.
TCL: Setting parameter langevinTemp to 90
TCL: Running for 100000 steps
ETITLE: TS BOND ANGLE DIHED IMPRP ELECT VDW BOUNDARY MISC KINETIC TOTAL TEMP POTENTIAL TOTAL3 TEMPAVG PRESSURE GPRESSURE VOLUME PRESSAVG GPRESSAVG
ENERGY: 200000 0.3091 0.2337 0.0000 0.0000 -14214.4431 2503.6490 0.0000 0.0000 354.1603 -11356.0910 60.5269 -11710.2514 -11355.2190 60.5269 545.0504 600.7660 28453.1088 545.0504 600.7660
ENERGY: 300000 0.3511 0.1757 0.0000 0.0000 -13932.1329 2366.7589 0.0000 0.0000 528.9330 -11035.9141 90.3961 -11564.8471 -11035.2718 90.0758 -15.2682 105.6238 28556.1268 3.3531 3.4256
TCL: Running 100000 steps at 120 kelvin.
TCL: Setting parameter langevinTemp to 120
TCL: Running for 100000 steps
ETITLE: TS BOND ANGLE DIHED IMPRP ELECT VDW BOUNDARY MISC KINETIC TOTAL TEMP POTENTIAL TOTAL3 TEMPAVG PRESSURE GPRESSURE VOLUME PRESSAVG GPRESSAVG
ENERGY: 300000 0.3511 0.1757 0.0000 0.0000 -13932.1329 2366.7589 0.0000 0.0000 528.6662 -11036.1809 90.3505 -11564.8471 -11034.9913 90.3505 58.5548 104.5532 28556.1268 58.5548 104.5532
ENERGY: 400000 0.4853 0.7713 0.0000 0.0000 -13740.3414 2313.3262 0.0000 0.0000 691.6458 -10734.1129 118.2041 -11425.7586 -10732.9157 119.6674 -286.0050 -174.7206 28931.8523 5.2321 5.1678
TCL: Running 100000 steps at 150 kelvin.
TCL: Setting parameter langevinTemp to 150
TCL: Running for 100000 steps
ETITLE: TS BOND ANGLE DIHED IMPRP ELECT VDW BOUNDARY MISC KINETIC TOTAL TEMP POTENTIAL TOTAL3 TEMPAVG PRESSURE GPRESSURE VOLUME PRESSAVG GPRESSAVG
ENERGY: 400000 0.4853 0.7713 0.0000 0.0000 -13740.3414 2313.3262 0.0000 0.0000 691.2849 -10734.4738 118.1424 -11425.7586 -10732.9444 118.1424 -233.1515 -174.8342 28931.8523 -233.1515 -174.8342
ENERGY: 500000 0.7125 0.2496 0.0000 0.0000 -13516.5497 2253.0405 0.0000 0.0000 874.6643 -10387.8827 149.4825 -11262.5470 -10385.9860 149.9670 246.1050 299.7158 28524.1034 3.8302 3.7593
TCL: Running 100000 steps at 180 kelvin.
TCL: Setting parameter langevinTemp to 180
TCL: Running for 100000 steps
ETITLE: TS BOND ANGLE DIHED IMPRP ELECT VDW BOUNDARY MISC KINETIC TOTAL TEMP POTENTIAL TOTAL3 TEMPAVG PRESSURE GPRESSURE VOLUME PRESSAVG GPRESSAVG
ENERGY: 500000 0.7125 0.2496 0.0000 0.0000 -13516.5497 2253.0405 0.0000 0.0000 874.2191 -10388.3279 149.4064 -11262.5470 -10386.6887 149.4064 243.8687 299.5191 28524.1034 243.8687 299.5191
ENERGY: 600000 1.9496 2.5554 0.0000 0.0000 -13136.3726 2167.5684 0.0000 0.0000 1030.9826 -9933.3166 176.1977 -10964.2992 -9931.0279 180.0313 568.1485 613.8072 28744.3264 3.2529 3.1596
TCL: Running 100000 steps at 210 kelvin.
TCL: Setting parameter langevinTemp to 210
TCL: Running for 100000 steps
ETITLE: TS BOND ANGLE DIHED IMPRP ELECT VDW BOUNDARY MISC KINETIC TOTAL TEMP POTENTIAL TOTAL3 TEMPAVG PRESSURE GPRESSURE VOLUME PRESSAVG GPRESSAVG
ENERGY: 600000 1.9496 2.5554 0.0000 0.0000 -13136.3726 2167.5684 0.0000 0.0000 1030.4486 -9933.8506 176.1064 -10964.2992 -9931.8496 176.1064 545.6820 613.2315 28744.3264 545.6820 613.2315
ENERGY: 700000 0.1198 0.6958 0.0000 0.0000 -12289.2962 1813.2517 0.0000 0.0000 1231.8162 -9243.4128 210.5207 -10475.2290 -9241.9414 209.6826 -564.7319 -479.4656 28910.4321 3.0390 3.0405
TCL: Running 100000 steps at 240 kelvin.
TCL: Setting parameter langevinTemp to 240
TCL: Running for 100000 steps
ETITLE: TS BOND ANGLE DIHED IMPRP ELECT VDW BOUNDARY MISC KINETIC TOTAL TEMP POTENTIAL TOTAL3 TEMPAVG PRESSURE GPRESSURE VOLUME PRESSAVG GPRESSAVG
ENERGY: 700000 0.1198 0.6958 0.0000 0.0000 -12289.2962 1813.2517 0.0000 0.0000 1231.2183 -9244.0106 210.4185 -10475.2290 -9241.5112 210.4185 -546.3560 -480.8958 28910.4321 -546.3560 -480.8958
ENERGY: 800000 1.4739 1.2716 0.0000 0.0000 -11834.0589 1675.9250 0.0000 0.0000 1409.5874 -8745.8011 240.9022 -10155.3885 -8742.9252 239.8707 -538.3491 -433.5132 28838.0958 3.1390 3.1086
TCL: Running 100000 steps at 270 kelvin.
TCL: Setting parameter langevinTemp to 270
TCL: Running for 100000 steps
ETITLE: TS BOND ANGLE DIHED IMPRP ELECT VDW BOUNDARY MISC KINETIC TOTAL TEMP POTENTIAL TOTAL3 TEMPAVG PRESSURE GPRESSURE VOLUME PRESSAVG GPRESSAVG
ENERGY: 800000 1.4739 1.2716 0.0000 0.0000 -11834.0589 1675.9250 0.0000 0.0000 1408.8780 -8746.5105 240.7810 -10155.3885 -8743.9886 240.7810 -525.0883 -434.7225 28838.0958 -525.0883 -434.7225
ENERGY: 900000 1.2363 1.3546 0.0000 0.0000 -11195.9816 1529.7488 0.0000 0.0000 1581.4071 -8082.2347 270.2667 -9663.6418 -8078.8386 269.3349 -612.1000 -497.4517 30075.8873 3.8404 4.0322
TCL: Running 1000000 steps at 300 kelvin.
TCL: Setting parameter langevinTemp to 300
TCL: Running for 1000000 steps
ETITLE: TS BOND ANGLE DIHED IMPRP ELECT VDW BOUNDARY MISC KINETIC TOTAL TEMP POTENTIAL TOTAL3 TEMPAVG PRESSURE GPRESSURE VOLUME PRESSAVG GPRESSAVG
ENERGY: 900000 1.2363 1.3546 0.0000 0.0000 -11195.9816 1529.7488 0.0000 0.0000 1580.6053 -8083.0365 270.1297 -9663.6418 -8080.2584 270.1297 -576.3982 -498.0786 30075.8873 -576.3982 -498.0786
ENERGY: 1100000 1.0070 1.9394 0.0000 0.0000 -10655.1121 1386.9109 0.0000 0.0000 1739.6448 -7525.6099 297.3099 -9265.2547 -7521.5222 300.4923 -628.6313 -575.8358 30859.7133 2.5091 2.4887
ENERGY: 1300000 0.6117 0.8324 0.0000 0.0000 -10724.9202 1476.8797 0.0000 0.0000 1756.0732 -7490.5232 300.1176 -9246.5965 -7485.9530 299.7170 309.9777 367.7893 30393.5445 2.5227 2.4615
ENERGY: 1500000 0.8483 0.7642 0.0000 0.0000 -10644.4503 1388.2340 0.0000 0.0000 1803.6855 -7450.9183 308.2547 -9254.6038 -7447.6433 300.6120 -256.9529 -165.6610 30436.6849 3.1704 3.0845
ENERGY: 1700000 1.0391 1.0700 0.0000 0.0000 -10727.5726 1448.6683 0.0000 0.0000 1715.9060 -7560.8891 293.2529 -9276.7951 -7557.8220 301.0852 -288.9008 -194.0897 30619.5540 3.3799 3.4929
ENERGY: 1900000 0.6993 2.5376 0.0000 0.0000 -10664.4346 1424.2783 0.0000 0.0000 1733.2163 -7503.7031 296.2113 -9236.9194 -7499.6988 300.3198 -127.5422 -85.2541 30370.9678 2.3794 2.2251
TCL: Exiting due to exit command.
