Info: SIMULATION PARAMETERS:
Info: TIMESTEP               2
Info: NUMBER OF STEPS        0
Info: STEPS PER CYCLE        10
Info: PERIODIC CELL BASIS 1  35.01 0 0
Info: PERIODIC CELL BASIS 2  0 35.779 0
Info: PERIODIC CELL BASIS 3  0 0 35.644
Info: PERIODIC CELL CENTER   0 0 0
Info: WRAPPING WATERS AROUND PERIODIC BOUNDARIES ON OUTPUT.
Info: WRAPPING ALL CLUSTERS AROUND PERIODIC BOUNDARIES ON OUTPUT.
Info: FIRST LDB TIMESTEP     50
Info: LAST LDB TIMESTEP     -1
Info: HOM BACKGROUND SCALING 1
Info: PME BACKGROUND SCALING 1
Info: MIN ATOMS PER PATCH    40
Info: EMPTY PATCH LOAD       40 ATOMS
Info: INITIAL TEMPERATURE    300
Info: CENTER OF MASS MOVING INITIALLY? NO
Info: DIELECTRIC             1
Info: EXCLUDE                SCALED ONE-FOUR
Info: 1-4 ELECTROSTATICS SCALED BY 0.833333
Info: MODIFIED 1-4 VDW PARAMETERS WILL BE USED
Info: DCD FILENAME           mobley_1650157_equil.dcd
Info: DCD FREQUENCY          100000
Info: DCD FIRST STEP         100000
Info: DCD FILE WILL CONTAIN UNIT CELL DATA
Info: XST FILENAME           mobley_1650157_equil.xst
Info: XST FREQUENCY          100000
Info: NO VELOCITY DCD OUTPUT
Info: NO FORCE DCD OUTPUT
Info: OUTPUT FILENAME        mobley_1650157_equil
Info: BINARY OUTPUT FILES WILL BE USED
Info: RESTART FILENAME       mobley_1650157_equil.restart
Info: RESTART FREQUENCY      100000
Info: BINARY RESTART FILES WILL BE USED
Info: CUTOFF                 9
Info: PAIRLIST DISTANCE      11
Info: PAIRLIST SHRINK RATE   0.01
Info: PAIRLIST GROW RATE     0.01
Info: PAIRLIST TRIGGER       0.3
Info: PAIRLISTS PER CYCLE    2
Info: PAIRLISTS ENABLED
Info: MARGIN                 8
Info: HYDROGEN GROUP CUTOFF  2.5
Info: PATCH DIMENSION        21.5
Info: ENERGY OUTPUT STEPS    100000
Info: ENERGY EVALUATION STEPS    100000
Info: OUTPUT ENERGY PRECISION 4
Info: CROSSTERM ENERGY INCLUDED IN DIHEDRAL
Info: TIMING OUTPUT STEPS    1000000
Info: PRESSURE OUTPUT STEPS  100000
Info: LANGEVIN DYNAMICS ACTIVE
Info: LANGEVIN TEMPERATURE   30
Info: LANGEVIN USING BBK INTEGRATOR
Info: LANGEVIN DAMPING COEFFICIENT IS 1 INVERSE PS
Info: LANGEVIN DYNAMICS APPLIED TO HYDROGENS
Info: LANGEVIN PISTON PRESSURE CONTROL ACTIVE
Info:        TARGET PRESSURE IS 1.01325 BAR
Info:     OSCILLATION PERIOD IS 50 FS
Info:             DECAY TIME IS 25 FS
Info:     PISTON TEMPERATURE IS 300 K
Info:       PRESSURE CONTROL IS GROUP-BASED
Info:    INITIAL STRAIN RATE IS 0 0 0
Info:       CELL FLUCTUATION IS ISOTROPIC
Info: PARTICLE MESH EWALD (PME) ACTIVE
Info: PME TOLERANCE               1e-06
Info: PME EWALD COEFFICIENT       0.348832
Info: PME INTERPOLATION ORDER     4
Info: PME GRID DIMENSIONS         36 36 36
Info: PME MAXIMUM GRID SPACING    1
Info: FULL ELECTROSTATIC EVALUATION FREQUENCY      2
Info: USING VERLET I (r-RESPA) MTS SCHEME.
Info: C1 SPLITTING OF LONG RANGE ELECTROSTATICS
Info: PLACING ATOMS IN PATCHES BY HYDROGEN GROUPS
Info: RIGID BONDS TO HYDROGEN : ALL
Info:         ERROR TOLERANCE : 1e-08
Info:          MAX ITERATIONS : 100
Info: RIGID WATER USING SETTLE ALGORITHM
Info: RANDOM NUMBER SEED     1743211018
Info: USE HYDROGEN BONDS?    NO
Info: Using AMBER format force field!
Info: AMBER PARM FILE        mobley_1650157.prmtop
Info: COORDINATE PDB         mobley_1650157.pdb
Info: Exclusions will be read from PARM file!
Info: SCNB (VDW SCALING)     2
Info: USING ARITHMETIC MEAN TO COMBINE L-J SIGMA PARAMETERS
Info: BINARY COORDINATES     mobley_1650157_min.coor
Info: SUMMARY OF PARAMETERS:
Info: 6 BONDS
Info: 5 ANGLES
Info:   5 HARMONIC
Info:   0 COSINE-BASED
Info: 3 DIHEDRAL
Info: 0 IMPROPER
Info: 0 CROSSTERM
Info: 0 VDW
Info: 15 VDW_PAIRS
Info: 0 NBTHOLE_PAIRS
Info: STRUCTURE SUMMARY:
Info: 2970 ATOMS
Info: 2969 BONDS
Info: 25 ANGLES
Info: 42 DIHEDRALS
Info: 0 IMPROPERS
Info: 0 CROSSTERMS
Info: 3024 EXCLUSIONS
Info: 2965 RIGID BONDS
Info: 5945 DEGREES OF FREEDOM
Info: 990 HYDROGEN GROUPS
Info: 4 ATOMS IN LARGEST HYDROGEN GROUP
Info: 990 MIGRATION GROUPS
Info: 4 ATOMS IN LARGEST MIGRATION GROUP
Info: TOTAL MASS = 17819.9 amu
Info: TOTAL CHARGE = 0.000100017 e
Info: MASS DENSITY = 0.662762 g/cm^3
Info: ATOM DENSITY = 0.0665196 atoms/A^3
Info: ADDED 0 IMPLICIT EXCLUSIONS
Info: NONBONDED TABLE R-SQUARED SPACING: 0.0625
Info: NONBONDED TABLE SIZE: 705 POINTS
Info: REMOVING COM VELOCITY 0.1407 0.00885428 0.0546374
TCL: Running for 100000 steps
ETITLE: TS BOND ANGLE DIHED IMPRP ELECT VDW BOUNDARY MISC KINETIC TOTAL TEMP POTENTIAL TOTAL3 TEMPAVG PRESSURE GPRESSURE VOLUME PRESSAVG GPRESSAVG
ENERGY: 0 0.0218 0.4382 3.0618 0.0000 -13773.6743 2447.2374 0.0000 0.0000 1727.1924 -9595.7226 292.4013 -11322.9151 -9595.4183 292.4013 624.0575 656.1655 44648.4867 624.0575 656.1655
ENERGY: 100000 0.1504 1.2732 3.4405 0.0000 -14286.1420 2421.0412 0.0000 0.0000 178.8833 -11681.3534 30.2837 -11860.2367 -11680.8531 30.9658 -409.2685 -383.6161 28993.3000 5.6456 5.5925
TCL: Running 100000 steps at 60 kelvin.
TCL: Setting parameter langevinTemp to 60
TCL: Running for 100000 steps
ETITLE: TS BOND ANGLE DIHED IMPRP ELECT VDW BOUNDARY MISC KINETIC TOTAL TEMP POTENTIAL TOTAL3 TEMPAVG PRESSURE GPRESSURE VOLUME PRESSAVG GPRESSAVG
ENERGY: 100000 0.1504 1.2732 3.4405 0.0000 -14286.1420 2421.0412 0.0000 0.0000 178.7925 -11681.4441 30.2683 -11860.2367 -11681.0123 30.2683 -437.3924 -383.7760 28993.3000 -437.3924 -383.7760
ENERGY: 200000 0.4288 1.3669 3.3539 0.0000 -14147.7560 2377.1271 0.0000 0.0000 356.0560 -11409.4235 60.2777 -11765.4794 -11407.9065 59.8295 -495.1318 -425.4344 29059.6901 5.9287 5.9585
TCL: Running 100000 steps at 90 kelvin.
TCL: Setting parameter langevinTemp to 90
TCL: Running for 100000 steps
ETITLE: TS BOND ANGLE DIHED IMPRP ELECT VDW BOUNDARY MISC KINETIC TOTAL TEMP POTENTIAL TOTAL3 TEMPAVG PRESSURE GPRESSURE VOLUME PRESSAVG GPRESSAVG
ENERGY: 200000 0.4288 1.3669 3.3539 0.0000 -14147.7560 2377.1271 0.0000 0.0000 355.8758 -11409.6037 60.2472 -11765.4794 -11408.9012 60.2472 -479.1628 -424.8629 29059.6901 -479.1628 -424.8629
ENERGY: 300000 0.2151 2.4493 3.1103 0.0000 -14057.3523 2397.6070 0.0000 0.0000 525.6430 -11128.3277 88.9876 -11653.9707 -11126.8649 89.9261 39.5006 93.9501 29112.7786 3.3203 3.3286
TCL: Running 100000 steps at 120 kelvin.
TCL: Setting parameter langevinTemp to 120
TCL: Running for 100000 steps
ETITLE: TS BOND ANGLE DIHED IMPRP ELECT VDW BOUNDARY MISC KINETIC TOTAL TEMP POTENTIAL TOTAL3 TEMPAVG PRESSURE GPRESSURE VOLUME PRESSAVG GPRESSAVG
ENERGY: 300000 0.2151 2.4493 3.1103 0.0000 -14057.3523 2397.6070 0.0000 0.0000 525.3658 -11128.6049 88.9407 -11653.9707 -11127.7606 88.9407 44.7568 94.0532 29112.7786 44.7568 94.0532
ENERGY: 400000 0.4489 3.5820 3.0911 0.0000 -13818.1589 2271.1959 0.0000 0.0000 717.8456 -10821.9954 121.5261 -11539.8410 -10821.2201 119.8546 -475.9658 -421.0808 28926.4960 4.5325 4.5594
TCL: Running 100000 steps at 150 kelvin.
TCL: Setting parameter langevinTemp to 150
TCL: Running for 100000 steps
ETITLE: TS BOND ANGLE DIHED IMPRP ELECT VDW BOUNDARY MISC KINETIC TOTAL TEMP POTENTIAL TOTAL3 TEMPAVG PRESSURE GPRESSURE VOLUME PRESSAVG GPRESSAVG
ENERGY: 400000 0.4489 3.5820 3.0911 0.0000 -13818.1589 2271.1959 0.0000 0.0000 717.4915 -10822.3494 121.4662 -11539.8410 -10820.6421 121.4662 -480.4105 -422.2531 28926.4960 -480.4105 -422.2531
ENERGY: 500000 0.1787 2.6410 3.2169 0.0000 -13643.0581 2236.7294 0.0000 0.0000 879.9617 -10520.3305 148.9712 -11400.2922 -10518.4976 150.0228 -358.4054 -273.1306 28983.8316 4.0028 4.1185
TCL: Running 100000 steps at 180 kelvin.
TCL: Setting parameter langevinTemp to 180
TCL: Running for 100000 steps
ETITLE: TS BOND ANGLE DIHED IMPRP ELECT VDW BOUNDARY MISC KINETIC TOTAL TEMP POTENTIAL TOTAL3 TEMPAVG PRESSURE GPRESSURE VOLUME PRESSAVG GPRESSAVG
ENERGY: 500000 0.1787 2.6410 3.2169 0.0000 -13643.0581 2236.7294 0.0000 0.0000 879.5193 -10520.7729 148.8963 -11400.2922 -10518.9281 148.8963 -321.9801 -273.4612 28983.8316 -321.9801 -273.4612
ENERGY: 600000 0.3946 5.5988 3.1055 0.0000 -13296.2262 2182.9828 0.0000 0.0000 1045.0411 -10059.1034 176.9180 -11104.1445 -10057.0056 180.1789 304.3997 420.7836 28775.0283 3.0754 2.8907
TCL: Running 100000 steps at 210 kelvin.
TCL: Setting parameter langevinTemp to 210
TCL: Running for 100000 steps
ETITLE: TS BOND ANGLE DIHED IMPRP ELECT VDW BOUNDARY MISC KINETIC TOTAL TEMP POTENTIAL TOTAL3 TEMPAVG PRESSURE GPRESSURE VOLUME PRESSAVG GPRESSAVG
ENERGY: 600000 0.3946 5.5988 3.1055 0.0000 -13296.2262 2182.9828 0.0000 0.0000 1044.5107 -10059.6339 176.8282 -11104.1445 -10057.9392 176.8282 351.1852 420.4872 28775.0283 351.1852 420.4872
ENERGY: 700000 0.9927 3.5368 3.3454 0.0000 -12479.6534 1890.9183 0.0000 0.0000 1258.5126 -9322.3475 213.0571 -10580.8601 -9319.4414 208.9978 -363.5644 -295.5753 29295.9494 4.2969 4.3203
TCL: Running 100000 steps at 240 kelvin.
TCL: Setting parameter langevinTemp to 240
TCL: Running for 100000 steps
ETITLE: TS BOND ANGLE DIHED IMPRP ELECT VDW BOUNDARY MISC KINETIC TOTAL TEMP POTENTIAL TOTAL3 TEMPAVG PRESSURE GPRESSURE VOLUME PRESSAVG GPRESSAVG
ENERGY: 700000 0.9927 3.5368 3.3454 0.0000 -12479.6534 1890.9183 0.0000 0.0000 1257.8933 -9322.9669 212.9523 -10580.8601 -9320.4082 212.9523 -368.8475 -295.7501 29295.9494 -368.8475 -295.7501
ENERGY: 800000 1.8309 3.5544 3.3882 0.0000 -12005.9293 1849.2297 0.0000 0.0000 1414.1495 -8733.7766 239.4053 -10147.9261 -8729.5882 240.3188 797.2031 852.1983 29349.2929 3.5281 3.6591
TCL: Running 100000 steps at 270 kelvin.
TCL: Setting parameter langevinTemp to 270
TCL: Running for 100000 steps
ETITLE: TS BOND ANGLE DIHED IMPRP ELECT VDW BOUNDARY MISC KINETIC TOTAL TEMP POTENTIAL TOTAL3 TEMPAVG PRESSURE GPRESSURE VOLUME PRESSAVG GPRESSAVG
ENERGY: 800000 1.8309 3.5544 3.3882 0.0000 -12005.9293 1849.2297 0.0000 0.0000 1413.4469 -8734.4792 239.2864 -10147.9261 -8732.1307 239.2864 759.2690 853.2190 29349.2929 759.2690 853.2190
ENERGY: 900000 1.3503 6.3675 3.4465 0.0000 -11381.2189 1642.4260 0.0000 0.0000 1617.7517 -8109.8769 273.8737 -9727.6286 -8104.5030 269.4212 908.2833 946.0824 29151.9549 2.5144 2.5699
TCL: Running 1000000 steps at 300 kelvin.
TCL: Setting parameter langevinTemp to 300
TCL: Running for 1000000 steps
ETITLE: TS BOND ANGLE DIHED IMPRP ELECT VDW BOUNDARY MISC KINETIC TOTAL TEMP POTENTIAL TOTAL3 TEMPAVG PRESSURE GPRESSURE VOLUME PRESSAVG GPRESSAVG
ENERGY: 900000 1.3503 6.3675 3.4465 0.0000 -11381.2189 1642.4260 0.0000 0.0000 1616.9555 -8110.6731 273.7390 -9727.6286 -8108.6175 273.7390 870.4479 947.3661 29151.9549 870.4479 947.3661
ENERGY: 1100000 1.7704 3.8279 3.6723 0.0000 -10758.7866 1395.9786 0.0000 0.0000 1752.8067 -7600.7307 296.7376 -9353.5374 -7600.3520 300.0973 -621.8064 -526.1801 30854.5572 4.4890 4.4101
ENERGY: 1300000 2.9487 4.5053 3.7432 0.0000 -10760.5355 1411.6099 0.0000 0.0000 1783.1780 -7554.5505 301.8792 -9337.7285 -7551.1327 300.2294 -586.2522 -491.5706 31085.5236 3.6347 3.7634
ENERGY: 1500000 0.8320 6.2144 3.5569 0.0000 -10866.6948 1514.7229 0.0000 0.0000 1787.9153 -7553.4533 302.6812 -9341.3686 -7549.5900 299.1362 203.2975 287.0023 30916.0809 3.1005 2.9688
ENERGY: 1700000 1.0277 5.0211 3.4127 0.0000 -10982.3389 1526.4471 0.0000 0.0000 1765.6512 -7680.7791 298.9121 -9446.4303 -7676.7474 300.9766 677.3657 686.8100 29964.6767 4.1035 4.0890
ENERGY: 1900000 1.1873 5.2509 4.3583 0.0000 -10805.2905 1427.3835 0.0000 0.0000 1810.3416 -7556.7689 306.4778 -9367.1105 -7551.3720 300.0707 -256.9405 -174.0189 30675.8428 2.1689 2.0783
TCL: Exiting due to exit command.
