Info: SIMULATION PARAMETERS:
Info: TIMESTEP               2
Info: NUMBER OF STEPS        0
Info: STEPS PER CYCLE        10
Info: PERIODIC CELL BASIS 1  36.005 0 0
Info: PERIODIC CELL BASIS 2  0 34.26 0
Info: PERIODIC CELL BASIS 3  0 0 35.723
Info: PERIODIC CELL CENTER   0 0 0
Info: WRAPPING WATERS AROUND PERIODIC BOUNDARIES ON OUTPUT.
Info: WRAPPING ALL CLUSTERS AROUND PERIODIC BOUNDARIES ON OUTPUT.
Info: FIRST LDB TIMESTEP     50
Info: LAST LDB TIMESTEP     -1
Info: HOM BACKGROUND SCALING 1
Info: PME BACKGROUND SCALING 1
Info: MIN ATOMS PER PATCH    40
Info: EMPTY PATCH LOAD       40 ATOMS
Info: INITIAL TEMPERATURE    300
Info: CENTER OF MASS MOVING INITIALLY? NO
Info: DIELECTRIC             1
Info: EXCLUDE                SCALED ONE-FOUR
Info: 1-4 ELECTROSTATICS SCALED BY 0.833333
Info: MODIFIED 1-4 VDW PARAMETERS WILL BE USED
Info: DCD FILENAME           mobley_8798016_equil.dcd
Info: DCD FREQUENCY          100000
Info: DCD FIRST STEP         100000
Info: DCD FILE WILL CONTAIN UNIT CELL DATA
Info: XST FILENAME           mobley_8798016_equil.xst
Info: XST FREQUENCY          100000
Info: NO VELOCITY DCD OUTPUT
Info: NO FORCE DCD OUTPUT
Info: OUTPUT FILENAME        mobley_8798016_equil
Info: BINARY OUTPUT FILES WILL BE USED
Info: RESTART FILENAME       mobley_8798016_equil.restart
Info: RESTART FREQUENCY      100000
Info: BINARY RESTART FILES WILL BE USED
Info: CUTOFF                 9
Info: PAIRLIST DISTANCE      11
Info: PAIRLIST SHRINK RATE   0.01
Info: PAIRLIST GROW RATE     0.01
Info: PAIRLIST TRIGGER       0.3
Info: PAIRLISTS PER CYCLE    2
Info: PAIRLISTS ENABLED
Info: MARGIN                 8
Info: HYDROGEN GROUP CUTOFF  2.5
Info: PATCH DIMENSION        21.5
Info: ENERGY OUTPUT STEPS    100000
Info: ENERGY EVALUATION STEPS    100000
Info: OUTPUT ENERGY PRECISION 4
Info: CROSSTERM ENERGY INCLUDED IN DIHEDRAL
Info: TIMING OUTPUT STEPS    1000000
Info: PRESSURE OUTPUT STEPS  100000
Info: LANGEVIN DYNAMICS ACTIVE
Info: LANGEVIN TEMPERATURE   30
Info: LANGEVIN USING BBK INTEGRATOR
Info: LANGEVIN DAMPING COEFFICIENT IS 1 INVERSE PS
Info: LANGEVIN DYNAMICS APPLIED TO HYDROGENS
Info: LANGEVIN PISTON PRESSURE CONTROL ACTIVE
Info:        TARGET PRESSURE IS 1.01325 BAR
Info:     OSCILLATION PERIOD IS 50 FS
Info:             DECAY TIME IS 25 FS
Info:     PISTON TEMPERATURE IS 300 K
Info:       PRESSURE CONTROL IS GROUP-BASED
Info:    INITIAL STRAIN RATE IS 0 0 0
Info:       CELL FLUCTUATION IS ISOTROPIC
Info: PARTICLE MESH EWALD (PME) ACTIVE
Info: PME TOLERANCE               1e-06
Info: PME EWALD COEFFICIENT       0.348832
Info: PME INTERPOLATION ORDER     4
Info: PME GRID DIMENSIONS         40 36 36
Info: PME MAXIMUM GRID SPACING    1
Info: FULL ELECTROSTATIC EVALUATION FREQUENCY      2
Info: USING VERLET I (r-RESPA) MTS SCHEME.
Info: C1 SPLITTING OF LONG RANGE ELECTROSTATICS
Info: PLACING ATOMS IN PATCHES BY HYDROGEN GROUPS
Info: RIGID BONDS TO HYDROGEN : ALL
Info:         ERROR TOLERANCE : 1e-08
Info:          MAX ITERATIONS : 100
Info: RIGID WATER USING SETTLE ALGORITHM
Info: RANDOM NUMBER SEED     1743226888
Info: USE HYDROGEN BONDS?    NO
Info: Using AMBER format force field!
Info: AMBER PARM FILE        mobley_8798016.prmtop
Info: COORDINATE PDB         mobley_8798016.pdb
Info: Exclusions will be read from PARM file!
Info: SCNB (VDW SCALING)     2
Info: USING ARITHMETIC MEAN TO COMBINE L-J SIGMA PARAMETERS
Info: BINARY COORDINATES     mobley_8798016_min.coor
Info: SUMMARY OF PARAMETERS:
Info: 9 BONDS
Info: 10 ANGLES
Info: 5 DIHEDRAL
Info: 0 IMPROPER
Info: 0 CROSSTERM
Info: 0 VDW
Info: 28 VDW_PAIRS
Info: 0 NBTHOLE_PAIRS
Info: STRUCTURE SUMMARY:
Info: 2947 ATOMS
Info: 2947 BONDS
Info: 19 ANGLES
Info: 30 DIHEDRALS
Info: 0 IMPROPERS
Info: 0 CROSSTERMS
Info: 2987 EXCLUSIONS
Info: 2939 RIGID BONDS
Info: 5902 DEGREES OF FREEDOM
Info: 986 HYDROGEN GROUPS
Info: 3 ATOMS IN LARGEST HYDROGEN GROUP
Info: 986 MIGRATION GROUPS
Info: 3 ATOMS IN LARGEST MIGRATION GROUP
Info: TOTAL MASS = 17726.8 amu
Info: TOTAL CHARGE = -0.000299999 e
Info: MASS DENSITY = 0.668022 g/cm^3
Info: ATOM DENSITY = 0.0668778 atoms/A^3
Info: ADDED 0 IMPLICIT EXCLUSIONS
Info: NONBONDED TABLE R-SQUARED SPACING: 0.0625
Info: NONBONDED TABLE SIZE: 705 POINTS
Info: REMOVING COM VELOCITY 0.169031 -0.0522547 0.0711774
TCL: Running for 100000 steps
ETITLE: TS BOND ANGLE DIHED IMPRP ELECT VDW BOUNDARY MISC KINETIC TOTAL TEMP POTENTIAL TOTAL3 TEMPAVG PRESSURE GPRESSURE VOLUME PRESSAVG GPRESSAVG
ENERGY: 0 0.3414 0.3038 0.0640 0.0000 -13614.6786 2404.3593 0.0000 0.0000 1735.3591 -9474.2509 295.9242 -11209.6101 -9473.9201 295.9242 588.1548 621.2184 44065.4386 588.1548 621.2184
ENERGY: 100000 0.6531 0.5619 0.4236 0.0000 -14279.2415 2571.0713 0.0000 0.0000 175.5730 -11530.9586 29.9398 -11706.5316 -11530.6421 30.9373 500.8499 563.4974 29668.9579 4.5140 4.5122
TCL: Running 100000 steps at 60 kelvin.
TCL: Setting parameter langevinTemp to 60
TCL: Running for 100000 steps
ETITLE: TS BOND ANGLE DIHED IMPRP ELECT VDW BOUNDARY MISC KINETIC TOTAL TEMP POTENTIAL TOTAL3 TEMPAVG PRESSURE GPRESSURE VOLUME PRESSAVG GPRESSAVG
ENERGY: 100000 0.6531 0.5619 0.4236 0.0000 -14279.2415 2571.0713 0.0000 0.0000 175.4911 -11531.0405 29.9258 -11706.5316 -11530.6982 29.9258 507.7719 563.5678 29668.9579 507.7719 563.5678
ENERGY: 200000 1.8220 1.2245 0.9419 0.0000 -13942.6182 2300.8758 0.0000 0.0000 339.5871 -11298.1670 57.9085 -11637.7540 -11296.8666 59.9421 -1315.4750 -1288.3279 29469.0557 4.2619 4.2799
TCL: Running 100000 steps at 90 kelvin.
TCL: Setting parameter langevinTemp to 90
TCL: Running for 100000 steps
ETITLE: TS BOND ANGLE DIHED IMPRP ELECT VDW BOUNDARY MISC KINETIC TOTAL TEMP POTENTIAL TOTAL3 TEMPAVG PRESSURE GPRESSURE VOLUME PRESSAVG GPRESSAVG
ENERGY: 200000 1.8220 1.2245 0.9419 0.0000 -13942.6182 2300.8758 0.0000 0.0000 339.4114 -11298.3426 57.8785 -11637.7540 -11297.4036 57.8785 -1342.7466 -1288.1383 29469.0557 -1342.7466 -1288.1383
ENERGY: 300000 1.9251 1.1088 0.5284 0.0000 -13884.7369 2330.9340 0.0000 0.0000 526.6038 -11023.6367 89.7998 -11550.2405 -11022.6439 90.0208 -697.8764 -653.2486 29266.9789 3.2854 3.3247
TCL: Running 100000 steps at 120 kelvin.
TCL: Setting parameter langevinTemp to 120
TCL: Running for 100000 steps
ETITLE: TS BOND ANGLE DIHED IMPRP ELECT VDW BOUNDARY MISC KINETIC TOTAL TEMP POTENTIAL TOTAL3 TEMPAVG PRESSURE GPRESSURE VOLUME PRESSAVG GPRESSAVG
ENERGY: 300000 1.9251 1.1088 0.5284 0.0000 -13884.7369 2330.9340 0.0000 0.0000 526.3442 -11023.8963 89.7555 -11550.2405 -11022.5553 89.7555 -703.8917 -653.9651 29266.9789 -703.8917 -653.9651
ENERGY: 400000 1.3675 0.9285 1.2431 0.0000 -13764.3079 2332.6169 0.0000 0.0000 706.9368 -10721.2150 120.5513 -11428.1518 -10718.9598 119.7934 8.9351 75.3375 29028.4173 2.9552 2.9023
TCL: Running 100000 steps at 150 kelvin.
TCL: Setting parameter langevinTemp to 150
TCL: Running for 100000 steps
ETITLE: TS BOND ANGLE DIHED IMPRP ELECT VDW BOUNDARY MISC KINETIC TOTAL TEMP POTENTIAL TOTAL3 TEMPAVG PRESSURE GPRESSURE VOLUME PRESSAVG GPRESSAVG
ENERGY: 400000 1.3675 0.9285 1.2431 0.0000 -13764.3079 2332.6169 0.0000 0.0000 706.5917 -10721.5601 120.4924 -11428.1518 -10719.8332 120.4924 9.9130 75.7603 29028.4173 9.9130 75.7603
ENERGY: 500000 0.4640 2.1866 1.7605 0.0000 -13478.4855 2222.8629 0.0000 0.0000 871.7856 -10379.4258 148.6623 -11251.2114 -10377.0098 150.2706 -268.6301 -129.7192 28876.5602 4.1856 4.2291
TCL: Running 100000 steps at 180 kelvin.
TCL: Setting parameter langevinTemp to 180
TCL: Running for 100000 steps
ETITLE: TS BOND ANGLE DIHED IMPRP ELECT VDW BOUNDARY MISC KINETIC TOTAL TEMP POTENTIAL TOTAL3 TEMPAVG PRESSURE GPRESSURE VOLUME PRESSAVG GPRESSAVG
ENERGY: 500000 0.4640 2.1866 1.7605 0.0000 -13478.4855 2222.8629 0.0000 0.0000 871.3533 -10379.8581 148.5886 -11251.2114 -10378.0883 148.5886 -188.2079 -129.3453 28876.5602 -188.2079 -129.3453
ENERGY: 600000 0.8101 1.1979 2.0728 0.0000 -13256.9155 2258.3328 0.0000 0.0000 1017.4856 -9977.0163 173.5080 -10994.5019 -9975.2110 180.1534 989.1958 1053.2822 28882.2151 4.0164 4.1933
TCL: Running 100000 steps at 210 kelvin.
TCL: Setting parameter langevinTemp to 210
TCL: Running for 100000 steps
ETITLE: TS BOND ANGLE DIHED IMPRP ELECT VDW BOUNDARY MISC KINETIC TOTAL TEMP POTENTIAL TOTAL3 TEMPAVG PRESSURE GPRESSURE VOLUME PRESSAVG GPRESSAVG
ENERGY: 600000 0.8101 1.1979 2.0728 0.0000 -13256.9155 2258.3328 0.0000 0.0000 1016.9664 -9977.5355 173.4194 -10994.5019 -9975.9877 173.4194 987.0126 1052.2959 28882.2151 987.0126 1052.2959
ENERGY: 700000 4.8462 1.9826 2.0305 0.0000 -12222.9508 1801.6066 0.0000 0.0000 1237.0114 -9175.4735 210.9429 -10412.4848 -9171.7603 209.3928 -501.1301 -369.1384 28913.4644 3.6209 3.6144
TCL: Running 100000 steps at 240 kelvin.
TCL: Setting parameter langevinTemp to 240
TCL: Running for 100000 steps
ETITLE: TS BOND ANGLE DIHED IMPRP ELECT VDW BOUNDARY MISC KINETIC TOTAL TEMP POTENTIAL TOTAL3 TEMPAVG PRESSURE GPRESSURE VOLUME PRESSAVG GPRESSAVG
ENERGY: 700000 4.8462 1.9826 2.0305 0.0000 -12222.9508 1801.6066 0.0000 0.0000 1236.3899 -9176.0949 210.8369 -10412.4848 -9174.0357 210.8369 -441.7747 -370.1607 28913.4644 -441.7747 -370.1607
ENERGY: 800000 1.4087 2.3734 4.7200 0.0000 -11829.5432 1715.1870 0.0000 0.0000 1442.1418 -8663.7123 245.9230 -10105.8541 -8661.3779 240.3605 -273.8450 -159.2956 29149.0203 2.4212 2.6087
TCL: Running 100000 steps at 270 kelvin.
TCL: Setting parameter langevinTemp to 270
TCL: Running for 100000 steps
ETITLE: TS BOND ANGLE DIHED IMPRP ELECT VDW BOUNDARY MISC KINETIC TOTAL TEMP POTENTIAL TOTAL3 TEMPAVG PRESSURE GPRESSURE VOLUME PRESSAVG GPRESSAVG
ENERGY: 800000 1.4087 2.3734 4.7200 0.0000 -11829.5432 1715.1870 0.0000 0.0000 1441.4558 -8664.3982 245.8060 -10105.8541 -8661.4587 245.8060 -242.1162 -159.3702 29149.0203 -242.1162 -159.3702
ENERGY: 900000 2.3287 1.6915 0.9279 0.0000 -11285.4422 1567.1430 0.0000 0.0000 1593.1378 -8120.2133 271.6718 -9713.3511 -8116.8249 269.9225 -292.2712 -181.1299 29416.6406 3.9933 4.1063
TCL: Running 1000000 steps at 300 kelvin.
TCL: Setting parameter langevinTemp to 300
TCL: Running for 1000000 steps
ETITLE: TS BOND ANGLE DIHED IMPRP ELECT VDW BOUNDARY MISC KINETIC TOTAL TEMP POTENTIAL TOTAL3 TEMPAVG PRESSURE GPRESSURE VOLUME PRESSAVG GPRESSAVG
ENERGY: 900000 2.3287 1.6915 0.9279 0.0000 -11285.4422 1567.1430 0.0000 0.0000 1592.3530 -8120.9980 271.5380 -9713.3511 -8118.4578 271.5380 -270.7262 -180.0315 29416.6406 -270.7262 -180.0315
ENERGY: 1100000 1.8750 3.9853 5.6030 0.0000 -10806.9706 1523.4985 0.0000 0.0000 1751.8506 -7520.1582 298.7365 -9272.0088 -7517.5349 299.8088 865.7835 923.8259 29860.5057 1.8065 1.9270
ENERGY: 1300000 2.8826 3.0893 4.6067 0.0000 -10536.8133 1335.8234 0.0000 0.0000 1780.2120 -7410.1994 303.5728 -9190.4114 -7407.2432 299.9842 -665.8113 -637.7842 30545.3460 2.8957 3.0251
ENERGY: 1500000 2.3025 3.7153 2.2935 0.0000 -10734.9017 1473.0413 0.0000 0.0000 1742.1174 -7511.4318 297.0767 -9253.5492 -7506.5093 299.9209 204.7033 251.8616 30231.0710 2.9116 3.0095
ENERGY: 1700000 2.8622 1.7090 4.2721 0.0000 -10718.6295 1463.0630 0.0000 0.0000 1750.3312 -7496.3920 298.4774 -9246.7232 -7493.9030 300.6857 -79.0090 -53.6637 30802.7508 2.8624 2.8110
ENERGY: 1900000 0.8218 5.2372 2.1500 0.0000 -10808.7051 1472.3308 0.0000 0.0000 1731.4317 -7596.7337 295.2545 -9328.1653 -7595.8107 299.7986 403.9414 523.2677 29705.1810 2.8952 3.0145
TCL: Exiting due to exit command.
