Info: SIMULATION PARAMETERS:
Info: TIMESTEP               2
Info: NUMBER OF STEPS        0
Info: STEPS PER CYCLE        10
Info: PERIODIC CELL BASIS 1  34.207 0 0
Info: PERIODIC CELL BASIS 2  0 35.779 0
Info: PERIODIC CELL BASIS 3  0 0 35.897
Info: PERIODIC CELL CENTER   0 0 0
Info: WRAPPING WATERS AROUND PERIODIC BOUNDARIES ON OUTPUT.
Info: WRAPPING ALL CLUSTERS AROUND PERIODIC BOUNDARIES ON OUTPUT.
Info: FIRST LDB TIMESTEP     50
Info: LAST LDB TIMESTEP     -1
Info: HOM BACKGROUND SCALING 1
Info: PME BACKGROUND SCALING 1
Info: MIN ATOMS PER PATCH    40
Info: EMPTY PATCH LOAD       40 ATOMS
Info: INITIAL TEMPERATURE    300
Info: CENTER OF MASS MOVING INITIALLY? NO
Info: DIELECTRIC             1
Info: EXCLUDE                SCALED ONE-FOUR
Info: 1-4 ELECTROSTATICS SCALED BY 0.833333
Info: MODIFIED 1-4 VDW PARAMETERS WILL BE USED
Info: DCD FILENAME           mobley_1036761_equil.dcd
Info: DCD FREQUENCY          100000
Info: DCD FIRST STEP         100000
Info: DCD FILE WILL CONTAIN UNIT CELL DATA
Info: XST FILENAME           mobley_1036761_equil.xst
Info: XST FREQUENCY          100000
Info: NO VELOCITY DCD OUTPUT
Info: NO FORCE DCD OUTPUT
Info: OUTPUT FILENAME        mobley_1036761_equil
Info: BINARY OUTPUT FILES WILL BE USED
Info: RESTART FILENAME       mobley_1036761_equil.restart
Info: RESTART FREQUENCY      100000
Info: BINARY RESTART FILES WILL BE USED
Info: CUTOFF                 9
Info: PAIRLIST DISTANCE      11
Info: PAIRLIST SHRINK RATE   0.01
Info: PAIRLIST GROW RATE     0.01
Info: PAIRLIST TRIGGER       0.3
Info: PAIRLISTS PER CYCLE    2
Info: PAIRLISTS ENABLED
Info: MARGIN                 8
Info: HYDROGEN GROUP CUTOFF  2.5
Info: PATCH DIMENSION        21.5
Info: ENERGY OUTPUT STEPS    100000
Info: ENERGY EVALUATION STEPS    100000
Info: OUTPUT ENERGY PRECISION 4
Info: CROSSTERM ENERGY INCLUDED IN DIHEDRAL
Info: TIMING OUTPUT STEPS    1000000
Info: PRESSURE OUTPUT STEPS  100000
Info: LANGEVIN DYNAMICS ACTIVE
Info: LANGEVIN TEMPERATURE   30
Info: LANGEVIN USING BBK INTEGRATOR
Info: LANGEVIN DAMPING COEFFICIENT IS 1 INVERSE PS
Info: LANGEVIN DYNAMICS APPLIED TO HYDROGENS
Info: LANGEVIN PISTON PRESSURE CONTROL ACTIVE
Info:        TARGET PRESSURE IS 1.01325 BAR
Info:     OSCILLATION PERIOD IS 50 FS
Info:             DECAY TIME IS 25 FS
Info:     PISTON TEMPERATURE IS 300 K
Info:       PRESSURE CONTROL IS GROUP-BASED
Info:    INITIAL STRAIN RATE IS 0 0 0
Info:       CELL FLUCTUATION IS ISOTROPIC
Info: PARTICLE MESH EWALD (PME) ACTIVE
Info: PME TOLERANCE               1e-06
Info: PME EWALD COEFFICIENT       0.348832
Info: PME INTERPOLATION ORDER     4
Info: PME GRID DIMENSIONS         36 36 36
Info: PME MAXIMUM GRID SPACING    1
Info: FULL ELECTROSTATIC EVALUATION FREQUENCY      2
Info: USING VERLET I (r-RESPA) MTS SCHEME.
Info: C1 SPLITTING OF LONG RANGE ELECTROSTATICS
Info: PLACING ATOMS IN PATCHES BY HYDROGEN GROUPS
Info: RIGID BONDS TO HYDROGEN : ALL
Info:         ERROR TOLERANCE : 1e-08
Info:          MAX ITERATIONS : 100
Info: RIGID WATER USING SETTLE ALGORITHM
Info: RANDOM NUMBER SEED     1743217543
Info: USE HYDROGEN BONDS?    NO
Info: Using AMBER format force field!
Info: AMBER PARM FILE        mobley_1036761.prmtop
Info: COORDINATE PDB         mobley_1036761.pdb
Info: Exclusions will be read from PARM file!
Info: SCNB (VDW SCALING)     2
Info: USING ARITHMETIC MEAN TO COMBINE L-J SIGMA PARAMETERS
Info: BINARY COORDINATES     mobley_1036761_min.coor
Info: SUMMARY OF PARAMETERS:
Info: 7 BONDS
Info: 8 ANGLES
Info:   8 HARMONIC
Info:   0 COSINE-BASED
Info: 7 DIHEDRAL
Info: 0 IMPROPER
Info: 0 CROSSTERM
Info: 0 VDW
Info: 28 VDW_PAIRS
Info: 0 NBTHOLE_PAIRS
Info: STRUCTURE SUMMARY:
Info: 2954 ATOMS
Info: 2954 BONDS
Info: 39 ANGLES
Info: 72 DIHEDRALS
Info: 0 IMPROPERS
Info: 0 CROSSTERMS
Info: 3050 EXCLUSIONS
Info: 2947 RIGID BONDS
Info: 5915 DEGREES OF FREEDOM
Info: 985 HYDROGEN GROUPS
Info: 3 ATOMS IN LARGEST HYDROGEN GROUP
Info: 985 MIGRATION GROUPS
Info: 3 ATOMS IN LARGEST MIGRATION GROUP
Info: TOTAL MASS = 17718.8 amu
Info: TOTAL CHARGE = 0.000100009 e
Info: MASS DENSITY = 0.669719 g/cm^3
Info: ATOM DENSITY = 0.0672371 atoms/A^3
Info: ADDED 0 IMPLICIT EXCLUSIONS
Info: NONBONDED TABLE R-SQUARED SPACING: 0.0625
Info: NONBONDED TABLE SIZE: 705 POINTS
Info: REMOVING COM VELOCITY 0.00465184 -0.067806 -0.126356
TCL: Running for 100000 steps
ETITLE: TS BOND ANGLE DIHED IMPRP ELECT VDW BOUNDARY MISC KINETIC TOTAL TEMP POTENTIAL TOTAL3 TEMPAVG PRESSURE GPRESSURE VOLUME PRESSAVG GPRESSAVG
ENERGY: 0 0.1172 0.3586 2.9768 0.0000 -13670.6859 2417.0150 0.0000 0.0000 1719.0138 -9531.2045 292.4927 -11250.2183 -9530.8863 292.4927 501.8830 540.3110 43934.0602 501.8830 540.3110
ENERGY: 100000 0.3863 1.1287 3.1124 0.0000 -14268.2243 2480.2281 0.0000 0.0000 181.6637 -11601.7051 30.9103 -11783.3688 -11601.4629 30.9550 -30.1097 19.9884 28796.5133 2.4474 2.3883
TCL: Running 100000 steps at 60 kelvin.
TCL: Setting parameter langevinTemp to 60
TCL: Running for 100000 steps
ETITLE: TS BOND ANGLE DIHED IMPRP ELECT VDW BOUNDARY MISC KINETIC TOTAL TEMP POTENTIAL TOTAL3 TEMPAVG PRESSURE GPRESSURE VOLUME PRESSAVG GPRESSAVG
ENERGY: 100000 0.3863 1.1287 3.1124 0.0000 -14268.2243 2480.2281 0.0000 0.0000 181.5707 -11601.7981 30.8945 -11783.3688 -11601.4955 30.8945 -22.8137 19.6797 28796.5133 -22.8137 19.6797
ENERGY: 200000 0.1735 2.0107 2.9163 0.0000 -14038.3731 2353.5011 0.0000 0.0000 349.4296 -11330.3419 59.4560 -11679.7715 -11329.2018 59.9447 -594.8399 -535.1211 28760.7666 4.5920 4.6635
TCL: Running 100000 steps at 90 kelvin.
TCL: Setting parameter langevinTemp to 90
TCL: Running for 100000 steps
ETITLE: TS BOND ANGLE DIHED IMPRP ELECT VDW BOUNDARY MISC KINETIC TOTAL TEMP POTENTIAL TOTAL3 TEMPAVG PRESSURE GPRESSURE VOLUME PRESSAVG GPRESSAVG
ENERGY: 200000 0.1735 2.0107 2.9163 0.0000 -14038.3731 2353.5011 0.0000 0.0000 349.2491 -11330.5225 59.4252 -11679.7715 -11329.8854 59.4252 -580.8379 -535.0098 28760.7666 -580.8379 -535.0098
ENERGY: 300000 0.5176 2.9124 3.2730 0.0000 -13860.8296 2270.7756 0.0000 0.0000 538.0391 -11045.3120 91.5481 -11583.3511 -11043.9838 89.9876 -1038.4659 -982.2421 28902.2036 4.7711 4.8508
TCL: Running 100000 steps at 120 kelvin.
TCL: Setting parameter langevinTemp to 120
TCL: Running for 100000 steps
ETITLE: TS BOND ANGLE DIHED IMPRP ELECT VDW BOUNDARY MISC KINETIC TOTAL TEMP POTENTIAL TOTAL3 TEMPAVG PRESSURE GPRESSURE VOLUME PRESSAVG GPRESSAVG
ENERGY: 300000 0.5176 2.9124 3.2730 0.0000 -13860.8296 2270.7756 0.0000 0.0000 537.7774 -11045.5737 91.5036 -11583.3511 -11044.3178 91.5036 -1040.3047 -981.9102 28902.2036 -1040.3047 -981.9102
ENERGY: 400000 0.8144 3.9348 2.9217 0.0000 -13836.6452 2373.7361 0.0000 0.0000 712.1199 -10743.1182 121.1682 -11455.2381 -10741.1262 120.1640 608.9664 681.4895 28592.5354 3.6450 3.6645
TCL: Running 100000 steps at 150 kelvin.
TCL: Setting parameter langevinTemp to 150
TCL: Running for 100000 steps
ETITLE: TS BOND ANGLE DIHED IMPRP ELECT VDW BOUNDARY MISC KINETIC TOTAL TEMP POTENTIAL TOTAL3 TEMPAVG PRESSURE GPRESSURE VOLUME PRESSAVG GPRESSAVG
ENERGY: 400000 0.8144 3.9348 2.9217 0.0000 -13836.6452 2373.7361 0.0000 0.0000 711.7612 -10743.4769 121.1072 -11455.2381 -10742.0297 121.1072 629.6793 681.4164 28592.5354 629.6793 681.4164
ENERGY: 500000 0.3352 5.6731 3.3646 0.0000 -13627.6921 2346.2187 0.0000 0.0000 859.6861 -10412.4144 146.2768 -11272.1005 -10409.7596 149.5637 800.2713 831.1562 28886.6289 3.3877 3.4327
TCL: Running 100000 steps at 180 kelvin.
TCL: Setting parameter langevinTemp to 180
TCL: Running for 100000 steps
ETITLE: TS BOND ANGLE DIHED IMPRP ELECT VDW BOUNDARY MISC KINETIC TOTAL TEMP POTENTIAL TOTAL3 TEMPAVG PRESSURE GPRESSURE VOLUME PRESSAVG GPRESSAVG
ENERGY: 500000 0.3352 5.6731 3.3646 0.0000 -13627.6921 2346.2187 0.0000 0.0000 859.2654 -10412.8351 146.2052 -11272.1005 -10411.5485 146.2052 796.1453 832.2764 28886.6289 796.1453 832.2764
ENERGY: 600000 1.7027 5.5433 3.5041 0.0000 -12836.7334 1847.9645 0.0000 0.0000 1094.8997 -9883.1192 186.2988 -10978.0189 -9880.1349 179.8088 -2254.5861 -2229.2097 29238.9340 3.7576 3.7562
TCL: Running 100000 steps at 210 kelvin.
TCL: Setting parameter langevinTemp to 210
TCL: Running for 100000 steps
ETITLE: TS BOND ANGLE DIHED IMPRP ELECT VDW BOUNDARY MISC KINETIC TOTAL TEMP POTENTIAL TOTAL3 TEMPAVG PRESSURE GPRESSURE VOLUME PRESSAVG GPRESSAVG
ENERGY: 600000 1.7027 5.5433 3.5041 0.0000 -12836.7334 1847.9645 0.0000 0.0000 1094.3603 -9883.6586 186.2070 -10978.0189 -9881.0482 186.2070 -2304.8836 -2229.5018 29238.9340 -2304.8836 -2229.5018
ENERGY: 700000 1.0140 10.1771 4.7596 0.0000 -12482.3811 1974.7130 0.0000 0.0000 1221.7350 -9269.9825 207.8800 -10491.7175 -9266.4990 209.8635 1067.7239 1122.0333 28413.1171 4.3806 4.2900
TCL: Running 100000 steps at 240 kelvin.
TCL: Setting parameter langevinTemp to 240
TCL: Running for 100000 steps
ETITLE: TS BOND ANGLE DIHED IMPRP ELECT VDW BOUNDARY MISC KINETIC TOTAL TEMP POTENTIAL TOTAL3 TEMPAVG PRESSURE GPRESSURE VOLUME PRESSAVG GPRESSAVG
ENERGY: 700000 1.0140 10.1771 4.7596 0.0000 -12482.3811 1974.7130 0.0000 0.0000 1221.1468 -9270.5707 207.7799 -10491.7175 -9268.7043 207.7799 1035.3094 1122.2949 28413.1171 1035.3094 1122.2949
ENERGY: 800000 1.7728 8.8665 3.4119 0.0000 -11750.7108 1698.6282 0.0000 0.0000 1454.3236 -8583.7077 247.4553 -10038.0313 -8580.7816 239.8295 -62.0325 74.5699 28915.1112 3.3178 3.2148
TCL: Running 100000 steps at 270 kelvin.
TCL: Setting parameter langevinTemp to 270
TCL: Running for 100000 steps
ETITLE: TS BOND ANGLE DIHED IMPRP ELECT VDW BOUNDARY MISC KINETIC TOTAL TEMP POTENTIAL TOTAL3 TEMPAVG PRESSURE GPRESSURE VOLUME PRESSAVG GPRESSAVG
ENERGY: 800000 1.7728 8.8665 3.4119 0.0000 -11750.7108 1698.6282 0.0000 0.0000 1453.6089 -8584.4224 247.3337 -10038.0313 -8582.2345 247.3337 -4.8746 75.4913 28915.1112 -4.8746 75.4913
ENERGY: 900000 2.8365 10.5253 3.6897 0.0000 -11116.9642 1525.9549 0.0000 0.0000 1592.0332 -7981.9246 270.8867 -9573.9577 -7979.1880 269.7193 -104.3203 -9.7106 29839.7160 3.9478 3.9278
TCL: Running 1000000 steps at 300 kelvin.
TCL: Setting parameter langevinTemp to 300
TCL: Running for 1000000 steps
ETITLE: TS BOND ANGLE DIHED IMPRP ELECT VDW BOUNDARY MISC KINETIC TOTAL TEMP POTENTIAL TOTAL3 TEMPAVG PRESSURE GPRESSURE VOLUME PRESSAVG GPRESSAVG
ENERGY: 900000 2.8365 10.5253 3.6897 0.0000 -11116.9642 1525.9549 0.0000 0.0000 1591.2216 -7982.7361 270.7487 -9573.9577 -7980.2940 270.7487 -99.3641 -9.7837 29839.7160 -99.3641 -9.7837
ENERGY: 1100000 2.5750 7.5054 3.6302 0.0000 -10550.8527 1326.8281 0.0000 0.0000 1749.6387 -7460.6754 297.7036 -9210.3141 -7458.8700 299.6017 -921.1388 -856.2219 30834.7316 4.4122 4.5739
ENERGY: 1300000 2.6495 7.3442 4.0039 0.0000 -10722.9205 1424.1423 0.0000 0.0000 1754.6291 -7530.1514 298.5527 -9284.7805 -7526.9882 299.6798 -14.6892 48.3082 29839.3894 4.0407 4.0763
ENERGY: 1500000 1.6170 12.1089 5.4532 0.0000 -10760.3429 1493.7662 0.0000 0.0000 1709.6575 -7537.7401 290.9007 -9247.3977 -7534.0606 299.9281 769.0604 872.3619 29853.9338 4.0611 4.2255
ENERGY: 1700000 4.5205 5.8380 3.4083 0.0000 -10684.4546 1397.1295 0.0000 0.0000 1762.6308 -7510.9275 299.9142 -9273.5583 -7507.1635 300.2965 -559.7121 -461.3770 30838.1308 2.3174 2.3697
ENERGY: 1900000 2.7905 2.9144 3.5212 0.0000 -10743.7953 1402.6894 0.0000 0.0000 1791.1066 -7540.7733 304.7594 -9331.8799 -7538.9766 300.2000 -280.0376 -214.0250 30114.6543 3.6271 3.5944
TCL: Exiting due to exit command.
