Info: SIMULATION PARAMETERS:
Info: TIMESTEP               2
Info: NUMBER OF STEPS        0
Info: STEPS PER CYCLE        10
Info: PERIODIC CELL BASIS 1  36.005 0 0
Info: PERIODIC CELL BASIS 2  0 34.26 0
Info: PERIODIC CELL BASIS 3  0 0 35.723
Info: PERIODIC CELL CENTER   0 0 0
Info: WRAPPING WATERS AROUND PERIODIC BOUNDARIES ON OUTPUT.
Info: WRAPPING ALL CLUSTERS AROUND PERIODIC BOUNDARIES ON OUTPUT.
Info: FIRST LDB TIMESTEP     50
Info: LAST LDB TIMESTEP     -1
Info: HOM BACKGROUND SCALING 1
Info: PME BACKGROUND SCALING 1
Info: MIN ATOMS PER PATCH    40
Info: EMPTY PATCH LOAD       40 ATOMS
Info: INITIAL TEMPERATURE    300
Info: CENTER OF MASS MOVING INITIALLY? NO
Info: DIELECTRIC             1
Info: EXCLUDE                SCALED ONE-FOUR
Info: 1-4 ELECTROSTATICS SCALED BY 0.833333
Info: MODIFIED 1-4 VDW PARAMETERS WILL BE USED
Info: DCD FILENAME           mobley_1857976_equil.dcd
Info: DCD FREQUENCY          100000
Info: DCD FIRST STEP         100000
Info: DCD FILE WILL CONTAIN UNIT CELL DATA
Info: XST FILENAME           mobley_1857976_equil.xst
Info: XST FREQUENCY          100000
Info: NO VELOCITY DCD OUTPUT
Info: NO FORCE DCD OUTPUT
Info: OUTPUT FILENAME        mobley_1857976_equil
Info: BINARY OUTPUT FILES WILL BE USED
Info: RESTART FILENAME       mobley_1857976_equil.restart
Info: RESTART FREQUENCY      100000
Info: BINARY RESTART FILES WILL BE USED
Info: CUTOFF                 9
Info: PAIRLIST DISTANCE      11
Info: PAIRLIST SHRINK RATE   0.01
Info: PAIRLIST GROW RATE     0.01
Info: PAIRLIST TRIGGER       0.3
Info: PAIRLISTS PER CYCLE    2
Info: PAIRLISTS ENABLED
Info: MARGIN                 8
Info: HYDROGEN GROUP CUTOFF  2.5
Info: PATCH DIMENSION        21.5
Info: ENERGY OUTPUT STEPS    100000
Info: ENERGY EVALUATION STEPS    100000
Info: OUTPUT ENERGY PRECISION 4
Info: CROSSTERM ENERGY INCLUDED IN DIHEDRAL
Info: TIMING OUTPUT STEPS    1000000
Info: PRESSURE OUTPUT STEPS  100000
Info: LANGEVIN DYNAMICS ACTIVE
Info: LANGEVIN TEMPERATURE   30
Info: LANGEVIN USING BBK INTEGRATOR
Info: LANGEVIN DAMPING COEFFICIENT IS 1 INVERSE PS
Info: LANGEVIN DYNAMICS APPLIED TO HYDROGENS
Info: LANGEVIN PISTON PRESSURE CONTROL ACTIVE
Info:        TARGET PRESSURE IS 1.01325 BAR
Info:     OSCILLATION PERIOD IS 50 FS
Info:             DECAY TIME IS 25 FS
Info:     PISTON TEMPERATURE IS 300 K
Info:       PRESSURE CONTROL IS GROUP-BASED
Info:    INITIAL STRAIN RATE IS 0 0 0
Info:       CELL FLUCTUATION IS ISOTROPIC
Info: PARTICLE MESH EWALD (PME) ACTIVE
Info: PME TOLERANCE               1e-06
Info: PME EWALD COEFFICIENT       0.348832
Info: PME INTERPOLATION ORDER     4
Info: PME GRID DIMENSIONS         40 36 36
Info: PME MAXIMUM GRID SPACING    1
Info: FULL ELECTROSTATIC EVALUATION FREQUENCY      2
Info: USING VERLET I (r-RESPA) MTS SCHEME.
Info: C1 SPLITTING OF LONG RANGE ELECTROSTATICS
Info: PLACING ATOMS IN PATCHES BY HYDROGEN GROUPS
Info: RIGID BONDS TO HYDROGEN : ALL
Info:         ERROR TOLERANCE : 1e-08
Info:          MAX ITERATIONS : 100
Info: RIGID WATER USING SETTLE ALGORITHM
Info: RANDOM NUMBER SEED     1743223504
Info: USE HYDROGEN BONDS?    NO
Info: Using AMBER format force field!
Info: AMBER PARM FILE        mobley_1857976.prmtop
Info: COORDINATE PDB         mobley_1857976.pdb
Info: Exclusions will be read from PARM file!
Info: SCNB (VDW SCALING)     2
Info: USING ARITHMETIC MEAN TO COMBINE L-J SIGMA PARAMETERS
Info: BINARY COORDINATES     mobley_1857976_min.coor
Info: SUMMARY OF PARAMETERS:
Info: 5 BONDS
Info: 4 ANGLES
Info:   4 HARMONIC
Info:   0 COSINE-BASED
Info: 4 DIHEDRAL
Info: 0 IMPROPER
Info: 0 CROSSTERM
Info: 0 VDW
Info: 15 VDW_PAIRS
Info: 0 NBTHOLE_PAIRS
Info: STRUCTURE SUMMARY:
Info: 2906 ATOMS
Info: 2905 BONDS
Info: 12 ANGLES
Info: 14 DIHEDRALS
Info: 0 IMPROPERS
Info: 0 CROSSTERMS
Info: 2926 EXCLUSIONS
Info: 2902 RIGID BONDS
Info: 5816 DEGREES OF FREEDOM
Info: 970 HYDROGEN GROUPS
Info: 3 ATOMS IN LARGEST HYDROGEN GROUP
Info: 970 MIGRATION GROUPS
Info: 3 ATOMS IN LARGEST MIGRATION GROUP
Info: TOTAL MASS = 17502.4 amu
Info: TOTAL CHARGE = 1.11759e-08 e
Info: MASS DENSITY = 0.659567 g/cm^3
Info: ATOM DENSITY = 0.0659474 atoms/A^3
Info: ADDED 0 IMPLICIT EXCLUSIONS
Info: NONBONDED TABLE R-SQUARED SPACING: 0.0625
Info: NONBONDED TABLE SIZE: 705 POINTS
Info: REMOVING COM VELOCITY -0.158457 0.125118 0.209754
TCL: Running for 100000 steps
ETITLE: TS BOND ANGLE DIHED IMPRP ELECT VDW BOUNDARY MISC KINETIC TOTAL TEMP POTENTIAL TOTAL3 TEMPAVG PRESSURE GPRESSURE VOLUME PRESSAVG GPRESSAVG
ENERGY: 0 0.0055 0.1606 0.9901 0.0000 -13484.9265 2377.7778 0.0000 0.0000 1705.8918 -9400.1008 295.2008 -11105.9926 -9399.7667 295.2008 374.0908 402.3523 44065.4386 374.0908 402.3523
ENERGY: 100000 0.0486 0.7212 0.9159 0.0000 -14216.0768 2585.9630 0.0000 0.0000 168.6283 -11459.7999 29.1808 -11628.4283 -11459.4454 30.8962 1224.6829 1294.3478 27909.3716 4.5304 4.4549
TCL: Running 100000 steps at 60 kelvin.
TCL: Setting parameter langevinTemp to 60
TCL: Running for 100000 steps
ETITLE: TS BOND ANGLE DIHED IMPRP ELECT VDW BOUNDARY MISC KINETIC TOTAL TEMP POTENTIAL TOTAL3 TEMPAVG PRESSURE GPRESSURE VOLUME PRESSAVG GPRESSAVG
ENERGY: 100000 0.0486 0.7212 0.9159 0.0000 -14216.0768 2585.9630 0.0000 0.0000 168.5421 -11459.8862 29.1658 -11628.4283 -11459.6684 29.1658 1235.1448 1294.4635 27909.3716 1235.1448 1294.4635
ENERGY: 200000 0.1347 0.9114 1.1030 0.0000 -13843.5671 2322.6594 0.0000 0.0000 344.9933 -11173.7654 59.7003 -11518.7586 -11172.6896 59.8773 -714.8137 -654.2781 28349.0661 3.4027 3.4624
TCL: Running 100000 steps at 90 kelvin.
TCL: Setting parameter langevinTemp to 90
TCL: Running for 100000 steps
ETITLE: TS BOND ANGLE DIHED IMPRP ELECT VDW BOUNDARY MISC KINETIC TOTAL TEMP POTENTIAL TOTAL3 TEMPAVG PRESSURE GPRESSURE VOLUME PRESSAVG GPRESSAVG
ENERGY: 200000 0.1347 0.9114 1.1030 0.0000 -13843.5671 2322.6594 0.0000 0.0000 344.8278 -11173.9308 59.6717 -11518.7586 -11173.1166 59.6717 -717.8088 -653.8730 28349.0661 -717.8088 -653.8730
ENERGY: 300000 0.1518 1.6284 1.0106 0.0000 -13996.8902 2559.9701 0.0000 0.0000 520.5390 -10913.5903 90.0781 -11434.1293 -10912.9236 89.8993 2001.5660 2031.8051 27663.6626 4.0034 3.8708
TCL: Running 100000 steps at 120 kelvin.
TCL: Setting parameter langevinTemp to 120
TCL: Running for 100000 steps
ETITLE: TS BOND ANGLE DIHED IMPRP ELECT VDW BOUNDARY MISC KINETIC TOTAL TEMP POTENTIAL TOTAL3 TEMPAVG PRESSURE GPRESSURE VOLUME PRESSAVG GPRESSAVG
ENERGY: 300000 0.1518 1.6284 1.0106 0.0000 -13996.8902 2559.9701 0.0000 0.0000 520.2836 -10913.8457 90.0339 -11434.1293 -10913.1686 90.0339 1985.2879 2031.3819 27663.6626 1985.2879 2031.3819
ENERGY: 400000 0.0285 2.1842 1.0002 0.0000 -13499.6267 2222.3547 0.0000 0.0000 706.6548 -10567.4042 122.2850 -11274.0591 -10565.4511 119.8211 -605.7694 -553.6042 28487.7331 4.7418 4.6735
TCL: Running 100000 steps at 150 kelvin.
TCL: Setting parameter langevinTemp to 150
TCL: Running for 100000 steps
ETITLE: TS BOND ANGLE DIHED IMPRP ELECT VDW BOUNDARY MISC KINETIC TOTAL TEMP POTENTIAL TOTAL3 TEMPAVG PRESSURE GPRESSURE VOLUME PRESSAVG GPRESSAVG
ENERGY: 400000 0.0285 2.1842 1.0002 0.0000 -13499.6267 2222.3547 0.0000 0.0000 706.2935 -10567.7656 122.2225 -11274.0591 -10566.1935 122.2225 -597.4701 -553.5875 28487.7331 -597.4701 -553.5875
ENERGY: 500000 0.3707 1.4111 0.9949 0.0000 -13488.9931 2347.7374 0.0000 0.0000 860.0029 -10278.4763 148.8216 -11138.4791 -10276.1512 150.2337 856.7040 885.9844 28524.4344 4.8528 4.7520
TCL: Running 100000 steps at 180 kelvin.
TCL: Setting parameter langevinTemp to 180
TCL: Running for 100000 steps
ETITLE: TS BOND ANGLE DIHED IMPRP ELECT VDW BOUNDARY MISC KINETIC TOTAL TEMP POTENTIAL TOTAL3 TEMPAVG PRESSURE GPRESSURE VOLUME PRESSAVG GPRESSAVG
ENERGY: 500000 0.3707 1.4111 0.9949 0.0000 -13488.9931 2347.7374 0.0000 0.0000 859.5746 -10278.9045 148.7475 -11138.4791 -10277.2997 148.7475 833.4985 885.9071 28524.4344 833.4985 885.9071
ENERGY: 600000 0.0267 1.3324 0.9344 0.0000 -12867.5708 2054.4903 0.0000 0.0000 1024.7556 -9786.0314 177.3317 -10810.7869 -9783.5307 180.2519 -167.2600 -89.3484 28519.3898 3.1839 3.1944
TCL: Running 100000 steps at 210 kelvin.
TCL: Setting parameter langevinTemp to 210
TCL: Running for 100000 steps
ETITLE: TS BOND ANGLE DIHED IMPRP ELECT VDW BOUNDARY MISC KINETIC TOTAL TEMP POTENTIAL TOTAL3 TEMPAVG PRESSURE GPRESSURE VOLUME PRESSAVG GPRESSAVG
ENERGY: 600000 0.0267 1.3324 0.9344 0.0000 -12867.5708 2054.4903 0.0000 0.0000 1024.2256 -9786.5613 177.2400 -10810.7869 -9783.9470 177.2400 -150.5816 -88.5098 28519.3898 -150.5816 -88.5098
ENERGY: 700000 0.3824 0.7501 2.9786 0.0000 -12267.9217 1932.7806 0.0000 0.0000 1175.4118 -9155.6182 203.4024 -10331.0299 -9154.3311 210.2284 796.0801 899.7847 28039.0797 3.4613 3.5843
TCL: Running 100000 steps at 240 kelvin.
TCL: Setting parameter langevinTemp to 240
TCL: Running for 100000 steps
ETITLE: TS BOND ANGLE DIHED IMPRP ELECT VDW BOUNDARY MISC KINETIC TOTAL TEMP POTENTIAL TOTAL3 TEMPAVG PRESSURE GPRESSURE VOLUME PRESSAVG GPRESSAVG
ENERGY: 700000 0.3824 0.7501 2.9786 0.0000 -12267.9217 1932.7806 0.0000 0.0000 1174.8224 -9156.2076 203.3004 -10331.0299 -9153.7505 203.3004 824.5309 898.8317 28039.0797 824.5309 898.8317
ENERGY: 800000 0.5352 3.1726 1.2410 0.0000 -11378.1841 1446.8183 0.0000 0.0000 1441.1457 -8485.2712 249.3870 -9926.4169 -8481.6464 239.6554 -1973.7727 -1924.9982 29004.3369 3.0071 3.0075
TCL: Running 100000 steps at 270 kelvin.
TCL: Setting parameter langevinTemp to 270
TCL: Running for 100000 steps
ETITLE: TS BOND ANGLE DIHED IMPRP ELECT VDW BOUNDARY MISC KINETIC TOTAL TEMP POTENTIAL TOTAL3 TEMPAVG PRESSURE GPRESSURE VOLUME PRESSAVG GPRESSAVG
ENERGY: 800000 0.5352 3.1726 1.2410 0.0000 -11378.1841 1446.8183 0.0000 0.0000 1440.4597 -8485.9572 249.2683 -9926.4169 -8483.1463 249.2683 -2012.2175 -1926.0306 29004.3369 -2012.2175 -1926.0306
ENERGY: 900000 0.1903 3.2031 1.0180 0.0000 -11001.8979 1501.7237 0.0000 0.0000 1561.0414 -7934.7214 270.1347 -9495.7628 -7933.2543 270.4959 -367.4974 -264.2046 29372.0652 3.8023 3.8233
TCL: Running 1000000 steps at 300 kelvin.
TCL: Setting parameter langevinTemp to 300
TCL: Running for 1000000 steps
ETITLE: TS BOND ANGLE DIHED IMPRP ELECT VDW BOUNDARY MISC KINETIC TOTAL TEMP POTENTIAL TOTAL3 TEMPAVG PRESSURE GPRESSURE VOLUME PRESSAVG GPRESSAVG
ENERGY: 900000 0.1903 3.2031 1.0180 0.0000 -11001.8979 1501.7237 0.0000 0.0000 1560.2674 -7935.4954 270.0008 -9495.7628 -7932.9445 270.0008 -349.9370 -265.7476 29372.0652 -349.9370 -265.7476
ENERGY: 1100000 0.1703 3.4251 2.3768 0.0000 -10586.3623 1463.0687 0.0000 0.0000 1778.4470 -7338.8745 307.7563 -9117.3215 -7338.6225 299.9478 267.1622 366.1244 30218.3152 4.6701 4.5661
ENERGY: 1300000 2.7970 3.8820 2.4603 0.0000 -10613.5604 1444.4681 0.0000 0.0000 1752.0906 -7407.8625 303.1954 -9159.9531 -7403.1508 300.2589 264.0946 327.2541 29608.2346 3.0358 2.9793
ENERGY: 1500000 0.5864 0.9547 1.3429 0.0000 -10456.1779 1376.6993 0.0000 0.0000 1715.4300 -7361.1646 296.8513 -9076.5946 -7358.5390 300.7809 -230.4442 -139.1510 29958.6450 2.4987 2.2813
ENERGY: 1700000 0.8668 2.3171 2.1348 0.0000 -10446.0420 1370.1444 0.0000 0.0000 1765.4433 -7305.1356 305.5060 -9070.5789 -7301.8185 299.8964 -247.5069 -156.6516 29976.3198 4.8302 4.6733
ENERGY: 1900000 3.7512 2.1446 1.5103 0.0000 -10618.2152 1434.1064 0.0000 0.0000 1772.5066 -7404.1961 306.7283 -9176.7027 -7401.2908 299.9948 -77.8689 -2.8845 29988.7895 4.0950 4.2309
TCL: Exiting due to exit command.
