Info: SIMULATION PARAMETERS:
Info: TIMESTEP               2
Info: NUMBER OF STEPS        0
Info: STEPS PER CYCLE        10
Info: PERIODIC CELL BASIS 1  36.592 0 0
Info: PERIODIC CELL BASIS 2  0 34.1 0
Info: PERIODIC CELL BASIS 3  0 0 34.954
Info: PERIODIC CELL CENTER   0 0 0
Info: WRAPPING WATERS AROUND PERIODIC BOUNDARIES ON OUTPUT.
Info: WRAPPING ALL CLUSTERS AROUND PERIODIC BOUNDARIES ON OUTPUT.
Info: FIRST LDB TIMESTEP     50
Info: LAST LDB TIMESTEP     -1
Info: HOM BACKGROUND SCALING 1
Info: PME BACKGROUND SCALING 1
Info: MIN ATOMS PER PATCH    40
Info: EMPTY PATCH LOAD       40 ATOMS
Info: INITIAL TEMPERATURE    300
Info: CENTER OF MASS MOVING INITIALLY? NO
Info: DIELECTRIC             1
Info: EXCLUDE                SCALED ONE-FOUR
Info: 1-4 ELECTROSTATICS SCALED BY 0.833333
Info: MODIFIED 1-4 VDW PARAMETERS WILL BE USED
Info: DCD FILENAME           mobley_9507933_equil.dcd
Info: DCD FREQUENCY          100000
Info: DCD FIRST STEP         100000
Info: DCD FILE WILL CONTAIN UNIT CELL DATA
Info: XST FILENAME           mobley_9507933_equil.xst
Info: XST FREQUENCY          100000
Info: NO VELOCITY DCD OUTPUT
Info: NO FORCE DCD OUTPUT
Info: OUTPUT FILENAME        mobley_9507933_equil
Info: BINARY OUTPUT FILES WILL BE USED
Info: RESTART FILENAME       mobley_9507933_equil.restart
Info: RESTART FREQUENCY      100000
Info: BINARY RESTART FILES WILL BE USED
Info: CUTOFF                 9
Info: PAIRLIST DISTANCE      11
Info: PAIRLIST SHRINK RATE   0.01
Info: PAIRLIST GROW RATE     0.01
Info: PAIRLIST TRIGGER       0.3
Info: PAIRLISTS PER CYCLE    2
Info: PAIRLISTS ENABLED
Info: MARGIN                 8
Info: HYDROGEN GROUP CUTOFF  2.5
Info: PATCH DIMENSION        21.5
Info: ENERGY OUTPUT STEPS    100000
Info: ENERGY EVALUATION STEPS    100000
Info: OUTPUT ENERGY PRECISION 4
Info: CROSSTERM ENERGY INCLUDED IN DIHEDRAL
Info: TIMING OUTPUT STEPS    1000000
Info: PRESSURE OUTPUT STEPS  100000
Info: LANGEVIN DYNAMICS ACTIVE
Info: LANGEVIN TEMPERATURE   30
Info: LANGEVIN USING BBK INTEGRATOR
Info: LANGEVIN DAMPING COEFFICIENT IS 1 INVERSE PS
Info: LANGEVIN DYNAMICS APPLIED TO HYDROGENS
Info: LANGEVIN PISTON PRESSURE CONTROL ACTIVE
Info:        TARGET PRESSURE IS 1.01325 BAR
Info:     OSCILLATION PERIOD IS 50 FS
Info:             DECAY TIME IS 25 FS
Info:     PISTON TEMPERATURE IS 300 K
Info:       PRESSURE CONTROL IS GROUP-BASED
Info:    INITIAL STRAIN RATE IS 0 0 0
Info:       CELL FLUCTUATION IS ISOTROPIC
Info: PARTICLE MESH EWALD (PME) ACTIVE
Info: PME TOLERANCE               1e-06
Info: PME EWALD COEFFICIENT       0.348832
Info: PME INTERPOLATION ORDER     4
Info: PME GRID DIMENSIONS         40 36 36
Info: PME MAXIMUM GRID SPACING    1
Info: FULL ELECTROSTATIC EVALUATION FREQUENCY      2
Info: USING VERLET I (r-RESPA) MTS SCHEME.
Info: C1 SPLITTING OF LONG RANGE ELECTROSTATICS
Info: PLACING ATOMS IN PATCHES BY HYDROGEN GROUPS
Info: RIGID BONDS TO HYDROGEN : ALL
Info:         ERROR TOLERANCE : 1e-08
Info:          MAX ITERATIONS : 100
Info: RIGID WATER USING SETTLE ALGORITHM
Info: RANDOM NUMBER SEED     1743215056
Info: USE HYDROGEN BONDS?    NO
Info: Using AMBER format force field!
Info: AMBER PARM FILE        mobley_9507933.prmtop
Info: COORDINATE PDB         mobley_9507933.pdb
Info: Exclusions will be read from PARM file!
Info: SCNB (VDW SCALING)     2
Info: USING ARITHMETIC MEAN TO COMBINE L-J SIGMA PARAMETERS
Info: BINARY COORDINATES     mobley_9507933_min.coor
Info: SUMMARY OF PARAMETERS:
Info: 8 BONDS
Info: 10 ANGLES
Info:   10 HARMONIC
Info:   0 COSINE-BASED
Info: 4 DIHEDRAL
Info: 0 IMPROPER
Info: 0 CROSSTERM
Info: 0 VDW
Info: 36 VDW_PAIRS
Info: 0 NBTHOLE_PAIRS
Info: STRUCTURE SUMMARY:
Info: 2909 ATOMS
Info: 2909 BONDS
Info: 28 ANGLES
Info: 37 DIHEDRALS
Info: 0 IMPROPERS
Info: 0 CROSSTERMS
Info: 2966 EXCLUSIONS
Info: 2901 RIGID BONDS
Info: 5826 DEGREES OF FREEDOM
Info: 972 HYDROGEN GROUPS
Info: 4 ATOMS IN LARGEST HYDROGEN GROUP
Info: 972 MIGRATION GROUPS
Info: 4 ATOMS IN LARGEST MIGRATION GROUP
Info: TOTAL MASS = 17474.6 amu
Info: TOTAL CHARGE = -1.86265e-09 e
Info: MASS DENSITY = 0.665317 g/cm^3
Info: ATOM DENSITY = 0.066697 atoms/A^3
Info: ADDED 0 IMPLICIT EXCLUSIONS
Info: NONBONDED TABLE R-SQUARED SPACING: 0.0625
Info: NONBONDED TABLE SIZE: 705 POINTS
Info: REMOVING COM VELOCITY -0.0140258 -0.148933 0.170667
TCL: Running for 100000 steps
ETITLE: TS BOND ANGLE DIHED IMPRP ELECT VDW BOUNDARY MISC KINETIC TOTAL TEMP POTENTIAL TOTAL3 TEMPAVG PRESSURE GPRESSURE VOLUME PRESSAVG GPRESSAVG
ENERGY: 0 0.2215 0.2209 0.0426 0.0000 -13433.4281 2372.1654 0.0000 0.0000 1768.5457 -9292.2320 305.5176 -11060.7777 -9291.8955 305.5176 357.7438 395.4091 43615.1538 357.7438 395.4091
ENERGY: 100000 0.1385 0.5643 0.3975 0.0000 -14140.9041 2563.0865 0.0000 0.0000 182.4586 -11394.2586 31.5199 -11576.7172 -11393.7685 30.9611 1118.0102 1183.3551 28266.5698 4.5886 4.6266
TCL: Running 100000 steps at 60 kelvin.
TCL: Setting parameter langevinTemp to 60
TCL: Running for 100000 steps
ETITLE: TS BOND ANGLE DIHED IMPRP ELECT VDW BOUNDARY MISC KINETIC TOTAL TEMP POTENTIAL TOTAL3 TEMPAVG PRESSURE GPRESSURE VOLUME PRESSAVG GPRESSAVG
ENERGY: 100000 0.1385 0.5643 0.3975 0.0000 -14140.9041 2563.0865 0.0000 0.0000 182.3730 -11394.3442 31.5051 -11576.7172 -11393.8922 31.5051 1113.9202 1183.4903 28266.5698 1113.9202 1183.4903
ENERGY: 200000 0.5501 1.6379 0.6695 0.0000 -13826.8779 2345.0548 0.0000 0.0000 349.6097 -11129.3559 60.3953 -11478.9656 -11128.5050 59.8573 -350.5742 -263.7493 28273.3115 4.1676 4.1046
TCL: Running 100000 steps at 90 kelvin.
TCL: Setting parameter langevinTemp to 90
TCL: Running for 100000 steps
ETITLE: TS BOND ANGLE DIHED IMPRP ELECT VDW BOUNDARY MISC KINETIC TOTAL TEMP POTENTIAL TOTAL3 TEMPAVG PRESSURE GPRESSURE VOLUME PRESSAVG GPRESSAVG
ENERGY: 200000 0.5501 1.6379 0.6695 0.0000 -13826.8779 2345.0548 0.0000 0.0000 349.4445 -11129.5211 60.3668 -11478.9656 -11128.8268 60.3668 -331.5080 -263.7934 28273.3115 -331.5080 -263.7934
ENERGY: 300000 0.9063 2.1398 1.4804 0.0000 -13589.1822 2179.6901 0.0000 0.0000 534.1917 -10870.7740 92.2820 -11404.9656 -10869.1238 89.8375 -1337.8457 -1303.7544 28338.3848 3.8206 3.8372
TCL: Running 100000 steps at 120 kelvin.
TCL: Setting parameter langevinTemp to 120
TCL: Running for 100000 steps
ETITLE: TS BOND ANGLE DIHED IMPRP ELECT VDW BOUNDARY MISC KINETIC TOTAL TEMP POTENTIAL TOTAL3 TEMPAVG PRESSURE GPRESSURE VOLUME PRESSAVG GPRESSAVG
ENERGY: 300000 0.9063 2.1398 1.4804 0.0000 -13589.1822 2179.6901 0.0000 0.0000 533.9358 -10871.0298 92.2378 -11404.9656 -10869.8182 92.2378 -1338.8344 -1303.9429 28338.3848 -1338.8344 -1303.9429
ENERGY: 400000 1.1832 2.1237 1.5470 0.0000 -13489.8126 2211.9166 0.0000 0.0000 696.8395 -10576.2026 120.3795 -11273.0421 -10574.6801 120.4509 -756.2901 -685.6207 28484.0032 3.3482 3.3434
TCL: Running 100000 steps at 150 kelvin.
TCL: Setting parameter langevinTemp to 150
TCL: Running for 100000 steps
ETITLE: TS BOND ANGLE DIHED IMPRP ELECT VDW BOUNDARY MISC KINETIC TOTAL TEMP POTENTIAL TOTAL3 TEMPAVG PRESSURE GPRESSURE VOLUME PRESSAVG GPRESSAVG
ENERGY: 400000 1.1832 2.1237 1.5470 0.0000 -13489.8126 2211.9166 0.0000 0.0000 696.4994 -10576.5427 120.3208 -11273.0421 -10575.1343 120.3208 -734.0059 -685.5354 28484.0032 -734.0059 -685.5354
ENERGY: 500000 2.9154 1.6427 2.1126 0.0000 -13325.5178 2171.9043 0.0000 0.0000 879.7037 -10267.2391 151.9695 -11146.9428 -10264.8845 150.3043 -555.6165 -498.4964 28267.2466 3.4669 3.4663
TCL: Running 100000 steps at 180 kelvin.
TCL: Setting parameter langevinTemp to 180
TCL: Running for 100000 steps
ETITLE: TS BOND ANGLE DIHED IMPRP ELECT VDW BOUNDARY MISC KINETIC TOTAL TEMP POTENTIAL TOTAL3 TEMPAVG PRESSURE GPRESSURE VOLUME PRESSAVG GPRESSAVG
ENERGY: 500000 2.9154 1.6427 2.1126 0.0000 -13325.5178 2171.9043 0.0000 0.0000 879.2534 -10267.6894 151.8917 -11146.9428 -10265.7296 151.8917 -556.9527 -497.7882 28267.2466 -556.9527 -497.7882
ENERGY: 600000 1.0685 3.4662 3.6381 0.0000 -13019.3426 2134.9036 0.0000 0.0000 1068.7326 -9807.5336 184.6243 -10876.2662 -9805.6430 180.0080 624.6269 697.0801 27938.7876 4.3941 4.6227
TCL: Running 100000 steps at 210 kelvin.
TCL: Setting parameter langevinTemp to 210
TCL: Running for 100000 steps
ETITLE: TS BOND ANGLE DIHED IMPRP ELECT VDW BOUNDARY MISC KINETIC TOTAL TEMP POTENTIAL TOTAL3 TEMPAVG PRESSURE GPRESSURE VOLUME PRESSAVG GPRESSAVG
ENERGY: 600000 1.0685 3.4662 3.6381 0.0000 -13019.3426 2134.9036 0.0000 0.0000 1068.2033 -9808.0629 184.5329 -10876.2662 -9806.2401 184.5329 638.9922 696.5684 27938.7876 638.9922 696.5684
ENERGY: 700000 1.3345 3.3070 0.7529 0.0000 -12011.7390 1702.8021 0.0000 0.0000 1202.1353 -9101.4072 207.6698 -10303.5425 -9097.6962 209.2611 -1290.7947 -1255.3816 28790.3040 5.1033 4.9265
TCL: Running 100000 steps at 240 kelvin.
TCL: Setting parameter langevinTemp to 240
TCL: Running for 100000 steps
ETITLE: TS BOND ANGLE DIHED IMPRP ELECT VDW BOUNDARY MISC KINETIC TOTAL TEMP POTENTIAL TOTAL3 TEMPAVG PRESSURE GPRESSURE VOLUME PRESSAVG GPRESSAVG
ENERGY: 700000 1.3345 3.3070 0.7529 0.0000 -12011.7390 1702.8021 0.0000 0.0000 1201.4983 -9102.0442 207.5597 -10303.5425 -9099.5308 207.5597 -1344.6211 -1254.3922 28790.3040 -1344.6211 -1254.3922
ENERGY: 800000 2.5793 6.1360 2.0278 0.0000 -11785.3263 1813.7372 0.0000 0.0000 1400.5228 -8560.3232 241.9413 -9960.8459 -8557.7661 240.2273 1161.9586 1298.3682 28421.6421 5.1465 5.1967
TCL: Running 100000 steps at 270 kelvin.
TCL: Setting parameter langevinTemp to 270
TCL: Running for 100000 steps
ETITLE: TS BOND ANGLE DIHED IMPRP ELECT VDW BOUNDARY MISC KINETIC TOTAL TEMP POTENTIAL TOTAL3 TEMPAVG PRESSURE GPRESSURE VOLUME PRESSAVG GPRESSAVG
ENERGY: 800000 2.5793 6.1360 2.0278 0.0000 -11785.3263 1813.7372 0.0000 0.0000 1399.7834 -8561.0625 241.8136 -9960.8459 -8558.7808 241.8136 1212.3500 1297.2776 28421.6421 1212.3500 1297.2776
ENERGY: 900000 1.5368 4.2847 2.5319 0.0000 -11013.9742 1464.9656 0.0000 0.0000 1613.7415 -7926.9137 278.7750 -9540.6552 -7924.1645 269.9984 -615.9283 -545.8123 29134.1997 3.4090 3.2168
TCL: Running 1000000 steps at 300 kelvin.
TCL: Setting parameter langevinTemp to 300
TCL: Running for 1000000 steps
ETITLE: TS BOND ANGLE DIHED IMPRP ELECT VDW BOUNDARY MISC KINETIC TOTAL TEMP POTENTIAL TOTAL3 TEMPAVG PRESSURE GPRESSURE VOLUME PRESSAVG GPRESSAVG
ENERGY: 900000 1.5368 4.2847 2.5319 0.0000 -11013.9742 1464.9656 0.0000 0.0000 1612.9647 -7927.6905 278.6408 -9540.6552 -7925.3925 278.6408 -621.1673 -544.3209 29134.1997 -621.1673 -544.3209
ENERGY: 1100000 0.9177 4.4447 0.9863 0.0000 -10453.2891 1331.2122 0.0000 0.0000 1765.2621 -7350.4661 304.9503 -9115.7282 -7346.8022 299.9254 -533.8868 -464.7920 30195.7218 2.1572 2.1440
ENERGY: 1300000 4.1221 5.9448 2.5495 0.0000 -10616.1636 1403.0503 0.0000 0.0000 1715.2176 -7485.2794 296.3051 -9200.4970 -7482.7259 300.1583 -451.4682 -331.8876 29832.8630 1.7183 1.6796
ENERGY: 1500000 2.7251 5.4317 2.5287 0.0000 -10624.6540 1480.9951 0.0000 0.0000 1769.3128 -7363.6605 305.6501 -9132.9733 -7360.8271 299.4099 893.6231 933.1427 29465.6407 2.3155 2.3404
ENERGY: 1700000 2.5042 3.7546 2.4136 0.0000 -10514.0710 1398.4290 0.0000 0.0000 1732.9910 -7373.9786 299.3755 -9106.9696 -7369.2180 300.3576 -161.7348 -66.4805 30112.9779 3.7899 3.6482
ENERGY: 1900000 2.0893 6.0166 3.5027 0.0000 -10579.1692 1432.2983 0.0000 0.0000 1729.7491 -7405.5132 298.8154 -9135.2623 -7401.3813 301.1513 164.9199 276.0859 29822.2892 4.3104 4.3065
TCL: Exiting due to exit command.
