Info: SIMULATION PARAMETERS:
Info: TIMESTEP               2
Info: NUMBER OF STEPS        0
Info: STEPS PER CYCLE        10
Info: PERIODIC CELL BASIS 1  36.005 0 0
Info: PERIODIC CELL BASIS 2  0 34.1 0
Info: PERIODIC CELL BASIS 3  0 0 36.488
Info: PERIODIC CELL CENTER   0 0 0
Info: WRAPPING WATERS AROUND PERIODIC BOUNDARIES ON OUTPUT.
Info: WRAPPING ALL CLUSTERS AROUND PERIODIC BOUNDARIES ON OUTPUT.
Info: FIRST LDB TIMESTEP     50
Info: LAST LDB TIMESTEP     -1
Info: HOM BACKGROUND SCALING 1
Info: PME BACKGROUND SCALING 1
Info: MIN ATOMS PER PATCH    40
Info: EMPTY PATCH LOAD       40 ATOMS
Info: INITIAL TEMPERATURE    300
Info: CENTER OF MASS MOVING INITIALLY? NO
Info: DIELECTRIC             1
Info: EXCLUDE                SCALED ONE-FOUR
Info: 1-4 ELECTROSTATICS SCALED BY 0.833333
Info: MODIFIED 1-4 VDW PARAMETERS WILL BE USED
Info: DCD FILENAME           mobley_3452749_equil.dcd
Info: DCD FREQUENCY          100000
Info: DCD FIRST STEP         100000
Info: DCD FILE WILL CONTAIN UNIT CELL DATA
Info: XST FILENAME           mobley_3452749_equil.xst
Info: XST FREQUENCY          100000
Info: NO VELOCITY DCD OUTPUT
Info: NO FORCE DCD OUTPUT
Info: OUTPUT FILENAME        mobley_3452749_equil
Info: BINARY OUTPUT FILES WILL BE USED
Info: RESTART FILENAME       mobley_3452749_equil.restart
Info: RESTART FREQUENCY      100000
Info: BINARY RESTART FILES WILL BE USED
Info: CUTOFF                 9
Info: PAIRLIST DISTANCE      11
Info: PAIRLIST SHRINK RATE   0.01
Info: PAIRLIST GROW RATE     0.01
Info: PAIRLIST TRIGGER       0.3
Info: PAIRLISTS PER CYCLE    2
Info: PAIRLISTS ENABLED
Info: MARGIN                 8
Info: HYDROGEN GROUP CUTOFF  2.5
Info: PATCH DIMENSION        21.5
Info: ENERGY OUTPUT STEPS    100000
Info: ENERGY EVALUATION STEPS    100000
Info: OUTPUT ENERGY PRECISION 4
Info: CROSSTERM ENERGY INCLUDED IN DIHEDRAL
Info: TIMING OUTPUT STEPS    1000000
Info: PRESSURE OUTPUT STEPS  100000
Info: LANGEVIN DYNAMICS ACTIVE
Info: LANGEVIN TEMPERATURE   30
Info: LANGEVIN USING BBK INTEGRATOR
Info: LANGEVIN DAMPING COEFFICIENT IS 1 INVERSE PS
Info: LANGEVIN DYNAMICS APPLIED TO HYDROGENS
Info: LANGEVIN PISTON PRESSURE CONTROL ACTIVE
Info:        TARGET PRESSURE IS 1.01325 BAR
Info:     OSCILLATION PERIOD IS 50 FS
Info:             DECAY TIME IS 25 FS
Info:     PISTON TEMPERATURE IS 300 K
Info:       PRESSURE CONTROL IS GROUP-BASED
Info:    INITIAL STRAIN RATE IS 0 0 0
Info:       CELL FLUCTUATION IS ISOTROPIC
Info: PARTICLE MESH EWALD (PME) ACTIVE
Info: PME TOLERANCE               1e-06
Info: PME EWALD COEFFICIENT       0.348832
Info: PME INTERPOLATION ORDER     4
Info: PME GRID DIMENSIONS         40 36 40
Info: PME MAXIMUM GRID SPACING    1
Info: FULL ELECTROSTATIC EVALUATION FREQUENCY      2
Info: USING VERLET I (r-RESPA) MTS SCHEME.
Info: C1 SPLITTING OF LONG RANGE ELECTROSTATICS
Info: PLACING ATOMS IN PATCHES BY HYDROGEN GROUPS
Info: RIGID BONDS TO HYDROGEN : ALL
Info:         ERROR TOLERANCE : 1e-08
Info:          MAX ITERATIONS : 100
Info: RIGID WATER USING SETTLE ALGORITHM
Info: RANDOM NUMBER SEED     1743219075
Info: USE HYDROGEN BONDS?    NO
Info: Using AMBER format force field!
Info: AMBER PARM FILE        mobley_3452749.prmtop
Info: COORDINATE PDB         mobley_3452749.pdb
Info: Exclusions will be read from PARM file!
Info: SCNB (VDW SCALING)     2
Info: USING ARITHMETIC MEAN TO COMBINE L-J SIGMA PARAMETERS
Info: BINARY COORDINATES     mobley_3452749_min.coor
Info: SUMMARY OF PARAMETERS:
Info: 6 BONDS
Info: 5 ANGLES
Info:   5 HARMONIC
Info:   0 COSINE-BASED
Info: 3 DIHEDRAL
Info: 0 IMPROPER
Info: 0 CROSSTERM
Info: 0 VDW
Info: 21 VDW_PAIRS
Info: 0 NBTHOLE_PAIRS
Info: STRUCTURE SUMMARY:
Info: 2985 ATOMS
Info: 2985 BONDS
Info: 36 ANGLES
Info: 48 DIHEDRALS
Info: 0 IMPROPERS
Info: 0 CROSSTERMS
Info: 3060 EXCLUSIONS
Info: 2976 RIGID BONDS
Info: 5979 DEGREES OF FREEDOM
Info: 997 HYDROGEN GROUPS
Info: 4 ATOMS IN LARGEST HYDROGEN GROUP
Info: 997 MIGRATION GROUPS
Info: 4 ATOMS IN LARGEST MIGRATION GROUP
Info: TOTAL MASS = 17920 amu
Info: TOTAL CHARGE = 0.00010002 e
Info: MASS DENSITY = 0.664247 g/cm^3
Info: ATOM DENSITY = 0.0666311 atoms/A^3
Info: ADDED 0 IMPLICIT EXCLUSIONS
Info: NONBONDED TABLE R-SQUARED SPACING: 0.0625
Info: NONBONDED TABLE SIZE: 705 POINTS
Info: REMOVING COM VELOCITY 0.020894 0.0587288 -0.0465945
TCL: Running for 100000 steps
ETITLE: TS BOND ANGLE DIHED IMPRP ELECT VDW BOUNDARY MISC KINETIC TOTAL TEMP POTENTIAL TOTAL3 TEMPAVG PRESSURE GPRESSURE VOLUME PRESSAVG GPRESSAVG
ENERGY: 0 0.5848 0.6168 0.0216 0.0000 -13761.2771 2428.8792 0.0000 0.0000 1739.4816 -9591.6933 292.8071 -11331.1748 -9591.3688 292.8071 509.9763 538.7570 44798.8900 509.9763 538.7570
ENERGY: 100000 1.8406 1.8232 0.5873 0.0000 -14197.6615 2382.8246 0.0000 0.0000 179.5466 -11631.0392 30.2231 -11810.5858 -11630.5021 30.8852 -1279.3876 -1241.4803 30573.9340 3.7294 3.7940
TCL: Running 100000 steps at 60 kelvin.
TCL: Setting parameter langevinTemp to 60
TCL: Running for 100000 steps
ETITLE: TS BOND ANGLE DIHED IMPRP ELECT VDW BOUNDARY MISC KINETIC TOTAL TEMP POTENTIAL TOTAL3 TEMPAVG PRESSURE GPRESSURE VOLUME PRESSAVG GPRESSAVG
ENERGY: 100000 1.8406 1.8232 0.5873 0.0000 -14197.6615 2382.8246 0.0000 0.0000 179.4555 -11631.1303 30.2078 -11810.5858 -11630.6394 30.2078 -1300.3699 -1241.5169 30573.9340 -1300.3699 -1241.5169
ENERGY: 200000 3.2515 1.8832 0.3294 0.0000 -14163.7724 2418.4381 0.0000 0.0000 351.8485 -11388.0216 59.2267 -11739.8702 -11387.2089 59.9749 -799.3586 -756.8790 30319.2930 3.4245 3.4071
TCL: Running 100000 steps at 90 kelvin.
TCL: Setting parameter langevinTemp to 90
TCL: Running for 100000 steps
ETITLE: TS BOND ANGLE DIHED IMPRP ELECT VDW BOUNDARY MISC KINETIC TOTAL TEMP POTENTIAL TOTAL3 TEMPAVG PRESSURE GPRESSURE VOLUME PRESSAVG GPRESSAVG
ENERGY: 200000 3.2515 1.8832 0.3294 0.0000 -14163.7724 2418.4381 0.0000 0.0000 351.6646 -11388.2056 59.1957 -11739.8702 -11387.4249 59.1957 -809.8111 -756.9453 30319.2930 -809.8111 -756.9453
ENERGY: 300000 1.9832 4.7185 0.9734 0.0000 -14052.9807 2423.1101 0.0000 0.0000 521.7344 -11100.4611 87.8236 -11622.1955 -11099.0749 89.9193 -75.8000 -29.8059 29831.5280 3.4962 3.6066
TCL: Running 100000 steps at 120 kelvin.
TCL: Setting parameter langevinTemp to 120
TCL: Running for 100000 steps
ETITLE: TS BOND ANGLE DIHED IMPRP ELECT VDW BOUNDARY MISC KINETIC TOTAL TEMP POTENTIAL TOTAL3 TEMPAVG PRESSURE GPRESSURE VOLUME PRESSAVG GPRESSAVG
ENERGY: 300000 1.9832 4.7185 0.9734 0.0000 -14052.9807 2423.1101 0.0000 0.0000 521.4678 -11100.7277 87.7787 -11622.1955 -11099.7622 87.7787 -74.4614 -29.0607 29831.5280 -74.4614 -29.0607
ENERGY: 400000 2.5553 4.8286 0.9834 0.0000 -13829.7887 2290.6610 0.0000 0.0000 713.8264 -10816.9340 120.1585 -11530.7604 -10814.4007 119.7989 -708.7836 -677.3149 29723.2090 4.9073 4.8969
TCL: Running 100000 steps at 150 kelvin.
TCL: Setting parameter langevinTemp to 150
TCL: Running for 100000 steps
ETITLE: TS BOND ANGLE DIHED IMPRP ELECT VDW BOUNDARY MISC KINETIC TOTAL TEMP POTENTIAL TOTAL3 TEMPAVG PRESSURE GPRESSURE VOLUME PRESSAVG GPRESSAVG
ENERGY: 400000 2.5553 4.8286 0.9834 0.0000 -13829.7887 2290.6610 0.0000 0.0000 713.4808 -10817.2796 120.1003 -11530.7604 -10815.7270 120.1003 -724.1499 -676.7767 29723.2090 -724.1499 -676.7767
ENERGY: 500000 2.5849 2.4844 0.7278 0.0000 -13776.7327 2352.7075 0.0000 0.0000 864.6089 -10553.6193 145.5397 -11418.2282 -10550.9407 149.7754 218.9195 236.5748 29484.7730 3.5077 3.2297
TCL: Running 100000 steps at 180 kelvin.
TCL: Setting parameter langevinTemp to 180
TCL: Running for 100000 steps
ETITLE: TS BOND ANGLE DIHED IMPRP ELECT VDW BOUNDARY MISC KINETIC TOTAL TEMP POTENTIAL TOTAL3 TEMPAVG PRESSURE GPRESSURE VOLUME PRESSAVG GPRESSAVG
ENERGY: 500000 2.5849 2.4844 0.7278 0.0000 -13776.7327 2352.7075 0.0000 0.0000 864.1688 -10554.0594 145.4656 -11418.2282 -10552.5297 145.4656 169.8735 236.4118 29484.7730 169.8735 236.4118
ENERGY: 600000 4.3204 2.9621 1.2857 0.0000 -13109.4752 2107.2998 0.0000 0.0000 1073.6015 -9920.0057 180.7195 -10993.6072 -9919.1826 180.0963 121.3736 241.5145 28840.1170 1.4581 1.3948
TCL: Running 100000 steps at 210 kelvin.
TCL: Setting parameter langevinTemp to 210
TCL: Running for 100000 steps
ETITLE: TS BOND ANGLE DIHED IMPRP ELECT VDW BOUNDARY MISC KINETIC TOTAL TEMP POTENTIAL TOTAL3 TEMPAVG PRESSURE GPRESSURE VOLUME PRESSAVG GPRESSAVG
ENERGY: 600000 4.3204 2.9621 1.2857 0.0000 -13109.4752 2107.2998 0.0000 0.0000 1073.0891 -9920.5181 180.6332 -10993.6072 -9918.4718 180.6332 166.2925 238.9568 28840.1170 166.2925 238.9568
ENERGY: 700000 1.1420 6.2246 1.7486 0.0000 -12459.8007 1864.9193 0.0000 0.0000 1229.9572 -9355.8089 207.0388 -10585.7660 -9350.6639 210.0676 -326.5895 -213.0859 29265.0506 4.1274 4.2509
TCL: Running 100000 steps at 240 kelvin.
TCL: Setting parameter langevinTemp to 240
TCL: Running for 100000 steps
ETITLE: TS BOND ANGLE DIHED IMPRP ELECT VDW BOUNDARY MISC KINETIC TOTAL TEMP POTENTIAL TOTAL3 TEMPAVG PRESSURE GPRESSURE VOLUME PRESSAVG GPRESSAVG
ENERGY: 700000 1.1420 6.2246 1.7486 0.0000 -12459.8007 1864.9193 0.0000 0.0000 1229.3039 -9356.4621 206.9289 -10585.7660 -9354.5093 206.9289 -293.1962 -211.2109 29265.0506 -293.1962 -211.2109
ENERGY: 800000 3.1714 3.6993 2.5534 0.0000 -11790.6006 1617.9059 0.0000 0.0000 1426.7122 -8736.5583 240.1586 -10163.2705 -8734.4146 240.2536 -901.0161 -828.9127 29342.2486 5.6716 5.6310
TCL: Running 100000 steps at 270 kelvin.
TCL: Setting parameter langevinTemp to 270
TCL: Running for 100000 steps
ETITLE: TS BOND ANGLE DIHED IMPRP ELECT VDW BOUNDARY MISC KINETIC TOTAL TEMP POTENTIAL TOTAL3 TEMPAVG PRESSURE GPRESSURE VOLUME PRESSAVG GPRESSAVG
ENERGY: 800000 3.1714 3.6993 2.5534 0.0000 -11790.6006 1617.9059 0.0000 0.0000 1425.9903 -8737.2802 240.0371 -10163.2705 -8735.0055 240.0371 -919.3232 -828.6632 29342.2486 -919.3232 -828.6632
ENERGY: 900000 2.1598 6.3983 3.7730 0.0000 -11306.7931 1538.2496 0.0000 0.0000 1635.4598 -8120.7525 275.2971 -9756.2123 -8117.9076 269.5677 -449.7843 -403.4642 30280.7678 3.8058 3.8536
TCL: Running 1000000 steps at 300 kelvin.
TCL: Setting parameter langevinTemp to 300
TCL: Running for 1000000 steps
ETITLE: TS BOND ANGLE DIHED IMPRP ELECT VDW BOUNDARY MISC KINETIC TOTAL TEMP POTENTIAL TOTAL3 TEMPAVG PRESSURE GPRESSURE VOLUME PRESSAVG GPRESSAVG
ENERGY: 900000 2.1598 6.3983 3.7730 0.0000 -11306.7931 1538.2496 0.0000 0.0000 1634.6263 -8121.5860 275.1568 -9756.2123 -8118.7023 275.1568 -486.3132 -403.8425 30280.7678 -486.3132 -403.8425
ENERGY: 1100000 5.2416 10.6899 5.9265 0.0000 -10744.3432 1368.5629 0.0000 0.0000 1767.1299 -7586.7923 297.4612 -9353.9222 -7581.3255 300.2083 -839.7467 -794.4121 30892.7603 5.2315 5.0977
ENERGY: 1300000 2.0704 10.9378 2.6695 0.0000 -10709.4523 1391.9463 0.0000 0.0000 1710.8613 -7590.9671 287.9895 -9301.8283 -7586.3020 300.0654 -320.1389 -292.4231 30805.5723 4.3493 4.2350
ENERGY: 1500000 1.4550 4.4264 1.6931 0.0000 -10761.7777 1413.7883 0.0000 0.0000 1782.1174 -7558.2975 299.9840 -9340.4149 -7554.8266 300.2844 -483.9957 -407.6389 31031.7322 2.9905 2.8390
ENERGY: 1700000 1.8257 10.9698 2.0330 0.0000 -10729.2128 1392.9663 0.0000 0.0000 1746.3303 -7575.0876 293.9600 -9321.4180 -7571.8768 299.9009 -592.1918 -522.3727 30993.9892 2.8154 3.0081
ENERGY: 1900000 2.3934 12.5150 1.8404 0.0000 -10838.9105 1456.2582 0.0000 0.0000 1771.6439 -7594.2594 298.2210 -9365.9034 -7587.8284 302.2404 60.2053 133.1662 30341.0678 3.3294 3.2354
TCL: Exiting due to exit command.
