Info: SIMULATION PARAMETERS:
Info: TIMESTEP               2
Info: NUMBER OF STEPS        0
Info: STEPS PER CYCLE        10
Info: PERIODIC CELL BASIS 1  35.89 0 0
Info: PERIODIC CELL BASIS 2  0 34.26 0
Info: PERIODIC CELL BASIS 3  0 0 36.583
Info: PERIODIC CELL CENTER   0 0 0
Info: WRAPPING WATERS AROUND PERIODIC BOUNDARIES ON OUTPUT.
Info: WRAPPING ALL CLUSTERS AROUND PERIODIC BOUNDARIES ON OUTPUT.
Info: FIRST LDB TIMESTEP     50
Info: LAST LDB TIMESTEP     -1
Info: HOM BACKGROUND SCALING 1
Info: PME BACKGROUND SCALING 1
Info: MIN ATOMS PER PATCH    40
Info: EMPTY PATCH LOAD       40 ATOMS
Info: INITIAL TEMPERATURE    300
Info: CENTER OF MASS MOVING INITIALLY? NO
Info: DIELECTRIC             1
Info: EXCLUDE                SCALED ONE-FOUR
Info: 1-4 ELECTROSTATICS SCALED BY 0.833333
Info: MODIFIED 1-4 VDW PARAMETERS WILL BE USED
Info: DCD FILENAME           mobley_2613240_equil.dcd
Info: DCD FREQUENCY          100000
Info: DCD FIRST STEP         100000
Info: DCD FILE WILL CONTAIN UNIT CELL DATA
Info: XST FILENAME           mobley_2613240_equil.xst
Info: XST FREQUENCY          100000
Info: NO VELOCITY DCD OUTPUT
Info: NO FORCE DCD OUTPUT
Info: OUTPUT FILENAME        mobley_2613240_equil
Info: BINARY OUTPUT FILES WILL BE USED
Info: RESTART FILENAME       mobley_2613240_equil.restart
Info: RESTART FREQUENCY      100000
Info: BINARY RESTART FILES WILL BE USED
Info: CUTOFF                 9
Info: PAIRLIST DISTANCE      11
Info: PAIRLIST SHRINK RATE   0.01
Info: PAIRLIST GROW RATE     0.01
Info: PAIRLIST TRIGGER       0.3
Info: PAIRLISTS PER CYCLE    2
Info: PAIRLISTS ENABLED
Info: MARGIN                 8
Info: HYDROGEN GROUP CUTOFF  2.5
Info: PATCH DIMENSION        21.5
Info: ENERGY OUTPUT STEPS    100000
Info: ENERGY EVALUATION STEPS    100000
Info: OUTPUT ENERGY PRECISION 4
Info: CROSSTERM ENERGY INCLUDED IN DIHEDRAL
Info: TIMING OUTPUT STEPS    1000000
Info: PRESSURE OUTPUT STEPS  100000
Info: LANGEVIN DYNAMICS ACTIVE
Info: LANGEVIN TEMPERATURE   30
Info: LANGEVIN USING BBK INTEGRATOR
Info: LANGEVIN DAMPING COEFFICIENT IS 1 INVERSE PS
Info: LANGEVIN DYNAMICS APPLIED TO HYDROGENS
Info: LANGEVIN PISTON PRESSURE CONTROL ACTIVE
Info:        TARGET PRESSURE IS 1.01325 BAR
Info:     OSCILLATION PERIOD IS 50 FS
Info:             DECAY TIME IS 25 FS
Info:     PISTON TEMPERATURE IS 300 K
Info:       PRESSURE CONTROL IS GROUP-BASED
Info:    INITIAL STRAIN RATE IS 0 0 0
Info:       CELL FLUCTUATION IS ISOTROPIC
Info: PARTICLE MESH EWALD (PME) ACTIVE
Info: PME TOLERANCE               1e-06
Info: PME EWALD COEFFICIENT       0.348832
Info: PME INTERPOLATION ORDER     4
Info: PME GRID DIMENSIONS         36 36 40
Info: PME MAXIMUM GRID SPACING    1
Info: FULL ELECTROSTATIC EVALUATION FREQUENCY      2
Info: USING VERLET I (r-RESPA) MTS SCHEME.
Info: C1 SPLITTING OF LONG RANGE ELECTROSTATICS
Info: PLACING ATOMS IN PATCHES BY HYDROGEN GROUPS
Info: RIGID BONDS TO HYDROGEN : ALL
Info:         ERROR TOLERANCE : 1e-08
Info:          MAX ITERATIONS : 100
Info: RIGID WATER USING SETTLE ALGORITHM
Info: RANDOM NUMBER SEED     1743242861
Info: USE HYDROGEN BONDS?    NO
Info: Using AMBER format force field!
Info: AMBER PARM FILE        mobley_2613240.prmtop
Info: COORDINATE PDB         mobley_2613240.pdb
Info: Exclusions will be read from PARM file!
Info: SCNB (VDW SCALING)     2
Info: USING ARITHMETIC MEAN TO COMBINE L-J SIGMA PARAMETERS
Info: BINARY COORDINATES     mobley_2613240_min.coor
Info: SUMMARY OF PARAMETERS:
Info: 7 BONDS
Info: 6 ANGLES
Info:   6 HARMONIC
Info:   0 COSINE-BASED
Info: 4 DIHEDRAL
Info: 0 IMPROPER
Info: 0 CROSSTERM
Info: 0 VDW
Info: 28 VDW_PAIRS
Info: 0 NBTHOLE_PAIRS
Info: STRUCTURE SUMMARY:
Info: 2978 ATOMS
Info: 2978 BONDS
Info: 32 ANGLES
Info: 40 DIHEDRALS
Info: 0 IMPROPERS
Info: 0 CROSSTERMS
Info: 3041 EXCLUSIONS
Info: 2968 RIGID BONDS
Info: 5966 DEGREES OF FREEDOM
Info: 996 HYDROGEN GROUPS
Info: 4 ATOMS IN LARGEST HYDROGEN GROUP
Info: 996 MIGRATION GROUPS
Info: 4 ATOMS IN LARGEST MIGRATION GROUP
Info: TOTAL MASS = 17901.9 amu
Info: TOTAL CHARGE = 0.000300035 e
Info: MASS DENSITY = 0.660875 g/cm^3
Info: ATOM DENSITY = 0.0662041 atoms/A^3
Info: ADDED 0 IMPLICIT EXCLUSIONS
Info: NONBONDED TABLE R-SQUARED SPACING: 0.0625
Info: NONBONDED TABLE SIZE: 705 POINTS
Info: REMOVING COM VELOCITY 0.0466648 0.0646009 -0.180824
TCL: Running for 100000 steps
ETITLE: TS BOND ANGLE DIHED IMPRP ELECT VDW BOUNDARY MISC KINETIC TOTAL TEMP POTENTIAL TOTAL3 TEMPAVG PRESSURE GPRESSURE VOLUME PRESSAVG GPRESSAVG
ENERGY: 0 0.3191 0.7533 4.0700 0.0000 -13747.1819 2421.8109 0.0000 0.0000 1731.7586 -9588.4700 292.1423 -11320.2286 -9588.1314 292.1423 502.1663 538.5412 44982.1422 502.1663 538.5412
ENERGY: 100000 1.1712 1.9705 3.4981 0.0000 -14192.3229 2426.0393 0.0000 0.0000 177.3043 -11582.3395 29.9107 -11759.6438 -11581.9368 30.8129 -472.1166 -425.7249 29711.0347 4.3355 4.2650
TCL: Running 100000 steps at 60 kelvin.
TCL: Setting parameter langevinTemp to 60
TCL: Running for 100000 steps
ETITLE: TS BOND ANGLE DIHED IMPRP ELECT VDW BOUNDARY MISC KINETIC TOTAL TEMP POTENTIAL TOTAL3 TEMPAVG PRESSURE GPRESSURE VOLUME PRESSAVG GPRESSAVG
ENERGY: 100000 1.1712 1.9705 3.4981 0.0000 -14192.3229 2426.0393 0.0000 0.0000 177.2165 -11582.4273 29.8959 -11759.6438 -11582.0321 29.8959 -473.0119 -425.7761 29711.0347 -473.0119 -425.7761
ENERGY: 200000 1.3629 1.5828 6.1549 0.0000 -14064.7986 2322.2263 0.0000 0.0000 340.8561 -11392.6157 57.5014 -11733.4718 -11391.4052 60.0101 -1149.9056 -1112.8135 29247.4636 4.6653 4.7164
TCL: Running 100000 steps at 90 kelvin.
TCL: Setting parameter langevinTemp to 90
TCL: Running for 100000 steps
ETITLE: TS BOND ANGLE DIHED IMPRP ELECT VDW BOUNDARY MISC KINETIC TOTAL TEMP POTENTIAL TOTAL3 TEMPAVG PRESSURE GPRESSURE VOLUME PRESSAVG GPRESSAVG
ENERGY: 200000 1.3629 1.5828 6.1549 0.0000 -14064.7986 2322.2263 0.0000 0.0000 340.6746 -11392.7971 57.4708 -11733.4718 -11392.0269 57.4708 -1160.7486 -1112.7492 29247.4636 -1160.7486 -1112.7492
ENERGY: 300000 2.5827 1.4473 4.6713 0.0000 -13962.0482 2304.4523 0.0000 0.0000 528.7364 -11120.1582 89.1962 -11648.8946 -11118.5879 90.0424 -876.5963 -830.4220 28999.3746 4.5683 4.4349
TCL: Running 100000 steps at 120 kelvin.
TCL: Setting parameter langevinTemp to 120
TCL: Running for 100000 steps
ETITLE: TS BOND ANGLE DIHED IMPRP ELECT VDW BOUNDARY MISC KINETIC TOTAL TEMP POTENTIAL TOTAL3 TEMPAVG PRESSURE GPRESSURE VOLUME PRESSAVG GPRESSAVG
ENERGY: 300000 2.5827 1.4473 4.6713 0.0000 -13962.0482 2304.4523 0.0000 0.0000 528.4783 -11120.4163 89.1527 -11648.8946 -11119.2052 89.1527 -882.1984 -829.9477 28999.3746 -882.1984 -829.9477
ENERGY: 400000 1.3134 4.3369 1.7672 0.0000 -14045.0050 2472.9168 0.0000 0.0000 704.3407 -10860.3299 118.8201 -11564.6707 -10857.3019 120.0227 982.7395 1016.6100 28773.1652 4.0120 3.9727
TCL: Running 100000 steps at 150 kelvin.
TCL: Setting parameter langevinTemp to 150
TCL: Running for 100000 steps
ETITLE: TS BOND ANGLE DIHED IMPRP ELECT VDW BOUNDARY MISC KINETIC TOTAL TEMP POTENTIAL TOTAL3 TEMPAVG PRESSURE GPRESSURE VOLUME PRESSAVG GPRESSAVG
ENERGY: 400000 1.3134 4.3369 1.7672 0.0000 -14045.0050 2472.9168 0.0000 0.0000 703.9720 -10860.6986 118.7579 -11564.6707 -10859.2930 118.7579 967.4645 1017.2986 28773.1652 967.4645 1017.2986
ENERGY: 500000 0.8693 1.6372 4.8557 0.0000 -13573.6502 2202.3464 0.0000 0.0000 891.5695 -10472.3721 150.4050 -11363.9416 -10469.5946 150.0774 -456.7963 -430.1060 29297.3475 3.9757 3.8694
TCL: Running 100000 steps at 180 kelvin.
TCL: Setting parameter langevinTemp to 180
TCL: Running for 100000 steps
ETITLE: TS BOND ANGLE DIHED IMPRP ELECT VDW BOUNDARY MISC KINETIC TOTAL TEMP POTENTIAL TOTAL3 TEMPAVG PRESSURE GPRESSURE VOLUME PRESSAVG GPRESSAVG
ENERGY: 500000 0.8693 1.6372 4.8557 0.0000 -13573.6502 2202.3464 0.0000 0.0000 891.1336 -10472.8080 150.3315 -11363.9416 -10471.1028 150.3315 -485.3406 -429.4165 29297.3475 -485.3406 -429.4165
ENERGY: 600000 3.1765 6.0935 3.8598 0.0000 -13135.2786 2093.3002 0.0000 0.0000 1070.1827 -9958.6660 180.5365 -11028.8488 -9957.0180 179.7815 -185.3814 -84.0431 28887.3430 4.0890 3.9230
TCL: Running 100000 steps at 210 kelvin.
TCL: Setting parameter langevinTemp to 210
TCL: Running for 100000 steps
ETITLE: TS BOND ANGLE DIHED IMPRP ELECT VDW BOUNDARY MISC KINETIC TOTAL TEMP POTENTIAL TOTAL3 TEMPAVG PRESSURE GPRESSURE VOLUME PRESSAVG GPRESSAVG
ENERGY: 600000 3.1765 6.0935 3.8598 0.0000 -13135.2786 2093.3002 0.0000 0.0000 1069.6694 -9959.1794 180.4499 -11028.8488 -9957.2299 180.4499 -144.2489 -84.6032 28887.3430 -144.2489 -84.6032
ENERGY: 700000 3.9005 7.0000 2.9521 0.0000 -12484.5814 1906.1223 0.0000 0.0000 1250.7904 -9313.8160 211.0045 -10564.6064 -9310.2699 209.6710 -317.4606 -182.9182 29252.5054 2.6194 2.6805
TCL: Running 100000 steps at 240 kelvin.
TCL: Setting parameter langevinTemp to 240
TCL: Running for 100000 steps
ETITLE: TS BOND ANGLE DIHED IMPRP ELECT VDW BOUNDARY MISC KINETIC TOTAL TEMP POTENTIAL TOTAL3 TEMPAVG PRESSURE GPRESSURE VOLUME PRESSAVG GPRESSAVG
ENERGY: 700000 3.9005 7.0000 2.9521 0.0000 -12484.5813 1906.1223 0.0000 0.0000 1250.1624 -9314.4439 210.8985 -10564.6064 -9312.0812 210.8985 -256.8556 -181.7473 29252.5054 -256.8556 -181.7473
ENERGY: 800000 1.7840 5.4982 5.0796 0.0000 -11791.6833 1710.3121 0.0000 0.0000 1412.9761 -8656.0334 238.3647 -10069.0094 -8652.9639 239.4242 168.3599 179.4743 29212.7652 4.6328 4.6249
TCL: Running 100000 steps at 270 kelvin.
TCL: Setting parameter langevinTemp to 270
TCL: Running for 100000 steps
ETITLE: TS BOND ANGLE DIHED IMPRP ELECT VDW BOUNDARY MISC KINETIC TOTAL TEMP POTENTIAL TOTAL3 TEMPAVG PRESSURE GPRESSURE VOLUME PRESSAVG GPRESSAVG
ENERGY: 800000 1.7840 5.4982 5.0796 0.0000 -11791.6833 1710.3121 0.0000 0.0000 1412.2420 -8656.7674 238.2409 -10069.0094 -8654.5511 238.2409 92.7026 178.6229 29212.7652 92.7026 178.6229
ENERGY: 900000 3.5834 7.3077 7.1885 0.0000 -11178.2020 1468.7577 0.0000 0.0000 1656.1894 -8035.1752 279.3940 -9691.3647 -8030.9738 270.4043 -1005.2982 -958.8580 30208.4393 4.2103 4.1213
TCL: Running 1000000 steps at 300 kelvin.
TCL: Setting parameter langevinTemp to 300
TCL: Running for 1000000 steps
ETITLE: TS BOND ANGLE DIHED IMPRP ELECT VDW BOUNDARY MISC KINETIC TOTAL TEMP POTENTIAL TOTAL3 TEMPAVG PRESSURE GPRESSURE VOLUME PRESSAVG GPRESSAVG
ENERGY: 900000 3.5834 7.3077 7.1885 0.0000 -11178.2020 1468.7577 0.0000 0.0000 1655.3612 -8036.0035 279.2543 -9691.3647 -8033.5392 279.2543 -1037.3719 -957.8379 30208.4393 -1037.3719 -957.8379
ENERGY: 1100000 4.3820 8.6021 13.7994 0.0000 -10679.2538 1401.1861 0.0000 0.0000 1820.6028 -7430.6813 307.1301 -9251.2841 -7426.2988 299.8874 -151.4037 -64.3449 30708.3609 2.0292 1.9320
ENERGY: 1300000 4.9167 8.0039 3.7626 0.0000 -10693.8816 1389.2681 0.0000 0.0000 1760.6105 -7527.3198 297.0096 -9287.9303 -7523.3090 300.4015 -612.6068 -439.4179 30837.9764 3.5214 3.3954
ENERGY: 1500000 3.5557 7.6686 2.8546 0.0000 -10974.1045 1579.6550 0.0000 0.0000 1755.6284 -7624.7421 296.1691 -9380.3705 -7620.2191 299.4034 896.5764 892.0387 30486.8197 3.0147 2.9744
ENERGY: 1700000 2.0801 6.1816 4.1136 0.0000 -10651.4408 1365.7903 0.0000 0.0000 1762.3032 -7510.9720 297.2951 -9273.2752 -7508.4474 299.4164 -236.3509 -165.6035 30517.2235 1.7839 2.0475
ENERGY: 1900000 5.1847 4.5074 7.2449 0.0000 -10760.1065 1482.3316 0.0000 0.0000 1769.3297 -7491.5081 298.4805 -9260.8378 -7490.4071 299.8027 450.3755 507.3080 30561.8809 1.8607 2.0511
TCL: Exiting due to exit command.
