Info: SIMULATION PARAMETERS:
Info: TIMESTEP               2
Info: NUMBER OF STEPS        0
Info: STEPS PER CYCLE        10
Info: PERIODIC CELL BASIS 1  37.38 0 0
Info: PERIODIC CELL BASIS 2  0 34.26 0
Info: PERIODIC CELL BASIS 3  0 0 34.471
Info: PERIODIC CELL CENTER   0 0 0
Info: WRAPPING WATERS AROUND PERIODIC BOUNDARIES ON OUTPUT.
Info: WRAPPING ALL CLUSTERS AROUND PERIODIC BOUNDARIES ON OUTPUT.
Info: FIRST LDB TIMESTEP     50
Info: LAST LDB TIMESTEP     -1
Info: HOM BACKGROUND SCALING 1
Info: PME BACKGROUND SCALING 1
Info: MIN ATOMS PER PATCH    40
Info: EMPTY PATCH LOAD       40 ATOMS
Info: INITIAL TEMPERATURE    300
Info: CENTER OF MASS MOVING INITIALLY? NO
Info: DIELECTRIC             1
Info: EXCLUDE                SCALED ONE-FOUR
Info: 1-4 ELECTROSTATICS SCALED BY 0.833333
Info: MODIFIED 1-4 VDW PARAMETERS WILL BE USED
Info: DCD FILENAME           mobley_8052240_equil.dcd
Info: DCD FREQUENCY          100000
Info: DCD FIRST STEP         100000
Info: DCD FILE WILL CONTAIN UNIT CELL DATA
Info: XST FILENAME           mobley_8052240_equil.xst
Info: XST FREQUENCY          100000
Info: NO VELOCITY DCD OUTPUT
Info: NO FORCE DCD OUTPUT
Info: OUTPUT FILENAME        mobley_8052240_equil
Info: BINARY OUTPUT FILES WILL BE USED
Info: RESTART FILENAME       mobley_8052240_equil.restart
Info: RESTART FREQUENCY      100000
Info: BINARY RESTART FILES WILL BE USED
Info: CUTOFF                 9
Info: PAIRLIST DISTANCE      11
Info: PAIRLIST SHRINK RATE   0.01
Info: PAIRLIST GROW RATE     0.01
Info: PAIRLIST TRIGGER       0.3
Info: PAIRLISTS PER CYCLE    2
Info: PAIRLISTS ENABLED
Info: MARGIN                 8
Info: HYDROGEN GROUP CUTOFF  2.5
Info: PATCH DIMENSION        21.5
Info: ENERGY OUTPUT STEPS    100000
Info: ENERGY EVALUATION STEPS    100000
Info: OUTPUT ENERGY PRECISION 4
Info: CROSSTERM ENERGY INCLUDED IN DIHEDRAL
Info: TIMING OUTPUT STEPS    1000000
Info: PRESSURE OUTPUT STEPS  100000
Info: LANGEVIN DYNAMICS ACTIVE
Info: LANGEVIN TEMPERATURE   30
Info: LANGEVIN USING BBK INTEGRATOR
Info: LANGEVIN DAMPING COEFFICIENT IS 1 INVERSE PS
Info: LANGEVIN DYNAMICS APPLIED TO HYDROGENS
Info: LANGEVIN PISTON PRESSURE CONTROL ACTIVE
Info:        TARGET PRESSURE IS 1.01325 BAR
Info:     OSCILLATION PERIOD IS 50 FS
Info:             DECAY TIME IS 25 FS
Info:     PISTON TEMPERATURE IS 300 K
Info:       PRESSURE CONTROL IS GROUP-BASED
Info:    INITIAL STRAIN RATE IS 0 0 0
Info:       CELL FLUCTUATION IS ISOTROPIC
Info: PARTICLE MESH EWALD (PME) ACTIVE
Info: PME TOLERANCE               1e-06
Info: PME EWALD COEFFICIENT       0.348832
Info: PME INTERPOLATION ORDER     4
Info: PME GRID DIMENSIONS         40 36 36
Info: PME MAXIMUM GRID SPACING    1
Info: FULL ELECTROSTATIC EVALUATION FREQUENCY      2
Info: USING VERLET I (r-RESPA) MTS SCHEME.
Info: C1 SPLITTING OF LONG RANGE ELECTROSTATICS
Info: PLACING ATOMS IN PATCHES BY HYDROGEN GROUPS
Info: RIGID BONDS TO HYDROGEN : ALL
Info:         ERROR TOLERANCE : 1e-08
Info:          MAX ITERATIONS : 100
Info: RIGID WATER USING SETTLE ALGORITHM
Info: RANDOM NUMBER SEED     1743222897
Info: USE HYDROGEN BONDS?    NO
Info: Using AMBER format force field!
Info: AMBER PARM FILE        mobley_8052240.prmtop
Info: COORDINATE PDB         mobley_8052240.pdb
Info: Exclusions will be read from PARM file!
Info: SCNB (VDW SCALING)     2
Info: USING ARITHMETIC MEAN TO COMBINE L-J SIGMA PARAMETERS
Info: BINARY COORDINATES     mobley_8052240_min.coor
Info: SUMMARY OF PARAMETERS:
Info: 8 BONDS
Info: 8 ANGLES
Info: 5 DIHEDRAL
Info: 0 IMPROPER
Info: 0 CROSSTERM
Info: 0 VDW
Info: 28 VDW_PAIRS
Info: 0 NBTHOLE_PAIRS
Info: STRUCTURE SUMMARY:
Info: 2945 ATOMS
Info: 2947 BONDS
Info: 45 ANGLES
Info: 83 DIHEDRALS
Info: 0 IMPROPERS
Info: 0 CROSSTERMS
Info: 3051 EXCLUSIONS
Info: 2928 RIGID BONDS
Info: 5907 DEGREES OF FREEDOM
Info: 990 HYDROGEN GROUPS
Info: 3 ATOMS IN LARGEST HYDROGEN GROUP
Info: 990 MIGRATION GROUPS
Info: 3 ATOMS IN LARGEST MIGRATION GROUP
Info: TOTAL MASS = 17752.8 amu
Info: TOTAL CHARGE = 2.23517e-08 e
Info: MASS DENSITY = 0.667798 g/cm^3
Info: ATOM DENSITY = 0.0667121 atoms/A^3
Info: ADDED 0 IMPLICIT EXCLUSIONS
Info: NONBONDED TABLE R-SQUARED SPACING: 0.0625
Info: NONBONDED TABLE SIZE: 705 POINTS
Info: REMOVING COM VELOCITY 0.137841 0.0240087 -0.0145877
TCL: Running for 100000 steps
ETITLE: TS BOND ANGLE DIHED IMPRP ELECT VDW BOUNDARY MISC KINETIC TOTAL TEMP POTENTIAL TOTAL3 TEMPAVG PRESSURE GPRESSURE VOLUME PRESSAVG GPRESSAVG
ENERGY: 0 1.2398 1.3169 2.3311 0.0000 -13533.9091 2360.3391 0.0000 0.0000 1753.0337 -9415.6486 298.6852 -11168.6823 -9415.3031 298.6852 256.7867 297.7477 44144.9001 256.7867 297.7477
ENERGY: 100000 1.6333 2.7422 2.3555 0.0000 -14233.6542 2551.4207 0.0000 0.0000 180.7382 -11494.7642 30.7945 -11675.5025 -11494.3520 30.9728 963.1268 1022.9223 28604.2327 3.1270 3.1232
TCL: Running 100000 steps at 60 kelvin.
TCL: Setting parameter langevinTemp to 60
TCL: Running for 100000 steps
ETITLE: TS BOND ANGLE DIHED IMPRP ELECT VDW BOUNDARY MISC KINETIC TOTAL TEMP POTENTIAL TOTAL3 TEMPAVG PRESSURE GPRESSURE VOLUME PRESSAVG GPRESSAVG
ENERGY: 100000 1.6333 2.7422 2.3555 0.0000 -14233.6542 2551.4207 0.0000 0.0000 180.6500 -11494.8525 30.7795 -11675.5025 -11494.4907 30.7795 963.4960 1022.7769 28604.2327 963.4960 1022.7769
ENERGY: 200000 1.5283 3.3071 3.4985 0.0000 -14132.5039 2521.3949 0.0000 0.0000 350.5975 -11252.1775 59.7355 -11602.7751 -11250.8987 60.0264 982.5252 1078.8832 28529.3923 4.7168 4.5960
TCL: Running 100000 steps at 90 kelvin.
TCL: Setting parameter langevinTemp to 90
TCL: Running for 100000 steps
ETITLE: TS BOND ANGLE DIHED IMPRP ELECT VDW BOUNDARY MISC KINETIC TOTAL TEMP POTENTIAL TOTAL3 TEMPAVG PRESSURE GPRESSURE VOLUME PRESSAVG GPRESSAVG
ENERGY: 200000 1.5283 3.3071 3.4985 0.0000 -14132.5039 2521.3949 0.0000 0.0000 350.4158 -11252.3593 59.7045 -11602.7751 -11251.8067 59.7045 1007.9318 1079.5486 28529.3923 1007.9318 1079.5486
ENERGY: 300000 1.7004 2.1220 8.9880 0.0000 -13956.4049 2453.6967 0.0000 0.0000 523.6466 -10966.2512 89.2199 -11489.8978 -10964.6502 90.0505 980.5179 1041.8201 28337.1671 2.9993 2.8917
TCL: Running 100000 steps at 120 kelvin.
TCL: Setting parameter langevinTemp to 120
TCL: Running for 100000 steps
ETITLE: TS BOND ANGLE DIHED IMPRP ELECT VDW BOUNDARY MISC KINETIC TOTAL TEMP POTENTIAL TOTAL3 TEMPAVG PRESSURE GPRESSURE VOLUME PRESSAVG GPRESSAVG
ENERGY: 300000 1.7004 2.1220 8.9880 0.0000 -13956.4049 2453.6967 0.0000 0.0000 523.3753 -10966.5225 89.1737 -11489.8978 -10965.5854 89.1737 990.6099 1042.2154 28337.1671 990.6099 1042.2154
ENERGY: 400000 3.7226 3.0123 9.0478 0.0000 -13751.3000 2326.1352 0.0000 0.0000 697.3576 -10712.0246 118.8171 -11409.3822 -10710.5565 120.0663 95.7610 176.9566 28535.1215 3.9122 3.8534
TCL: Running 100000 steps at 150 kelvin.
TCL: Setting parameter langevinTemp to 150
TCL: Running for 100000 steps
ETITLE: TS BOND ANGLE DIHED IMPRP ELECT VDW BOUNDARY MISC KINETIC TOTAL TEMP POTENTIAL TOTAL3 TEMPAVG PRESSURE GPRESSURE VOLUME PRESSAVG GPRESSAVG
ENERGY: 400000 3.7226 3.0123 9.0478 0.0000 -13751.3000 2326.1352 0.0000 0.0000 697.0020 -10712.3802 118.7565 -11409.3822 -10710.5969 118.7565 129.3654 176.4779 28535.1215 129.3654 176.4779
ENERGY: 500000 2.3776 4.0932 6.0936 0.0000 -13360.3578 2151.7010 0.0000 0.0000 883.2970 -10312.7955 150.4978 -11196.0925 -10310.2757 149.9227 -766.1897 -701.4419 29039.9726 5.1366 5.1156
TCL: Running 100000 steps at 180 kelvin.
TCL: Setting parameter langevinTemp to 180
TCL: Running for 100000 steps
ETITLE: TS BOND ANGLE DIHED IMPRP ELECT VDW BOUNDARY MISC KINETIC TOTAL TEMP POTENTIAL TOTAL3 TEMPAVG PRESSURE GPRESSURE VOLUME PRESSAVG GPRESSAVG
ENERGY: 500000 2.3776 4.0932 6.0936 0.0000 -13360.3578 2151.7010 0.0000 0.0000 882.8584 -10313.2340 150.4231 -11196.0925 -10310.9934 150.4231 -773.6849 -701.6968 29039.9726 -773.6849 -701.6968
ENERGY: 600000 3.4761 5.0505 4.8765 0.0000 -12890.8141 1970.7069 0.0000 0.0000 1057.9283 -9848.7758 180.2518 -10906.7041 -9845.4293 179.7320 -1122.3260 -1037.1491 28801.2403 4.0107 4.1729
TCL: Running 100000 steps at 210 kelvin.
TCL: Setting parameter langevinTemp to 210
TCL: Running for 100000 steps
ETITLE: TS BOND ANGLE DIHED IMPRP ELECT VDW BOUNDARY MISC KINETIC TOTAL TEMP POTENTIAL TOTAL3 TEMPAVG PRESSURE GPRESSURE VOLUME PRESSAVG GPRESSAVG
ENERGY: 600000 3.4761 5.0505 4.8765 0.0000 -12890.8141 1970.7069 0.0000 0.0000 1057.4064 -9849.2977 180.1629 -10906.7041 -9846.5813 180.1629 -1111.7011 -1037.2797 28801.2403 -1111.7011 -1037.2797
ENERGY: 700000 3.9525 4.9594 9.3368 0.0000 -12161.0734 1763.3033 0.0000 0.0000 1223.0817 -9156.4397 208.3910 -10379.5214 -9153.9219 209.8218 -408.6649 -395.7785 28572.8794 3.0195 3.0954
TCL: Running 100000 steps at 240 kelvin.
TCL: Setting parameter langevinTemp to 240
TCL: Running for 100000 steps
ETITLE: TS BOND ANGLE DIHED IMPRP ELECT VDW BOUNDARY MISC KINETIC TOTAL TEMP POTENTIAL TOTAL3 TEMPAVG PRESSURE GPRESSURE VOLUME PRESSAVG GPRESSAVG
ENERGY: 700000 3.9525 4.9594 9.3368 0.0000 -12161.0734 1763.3033 0.0000 0.0000 1222.4411 -9157.0803 208.2818 -10379.5214 -9155.1501 208.2818 -471.3264 -396.0221 28572.8794 -471.3264 -396.0221
ENERGY: 800000 5.2645 5.9111 5.9940 0.0000 -11537.9947 1623.6983 0.0000 0.0000 1447.4252 -8449.7017 246.6150 -9897.1269 -8447.4258 239.8492 -489.0444 -351.0848 29243.0850 3.9676 3.8997
TCL: Running 100000 steps at 270 kelvin.
TCL: Setting parameter langevinTemp to 270
TCL: Running for 100000 steps
ETITLE: TS BOND ANGLE DIHED IMPRP ELECT VDW BOUNDARY MISC KINETIC TOTAL TEMP POTENTIAL TOTAL3 TEMPAVG PRESSURE GPRESSURE VOLUME PRESSAVG GPRESSAVG
ENERGY: 800000 5.2645 5.9111 5.9940 0.0000 -11537.9947 1623.6983 0.0000 0.0000 1446.6958 -8450.4311 246.4908 -9897.1269 -8448.2903 246.4908 -446.6117 -351.5598 29243.0850 -446.6117 -351.5598
ENERGY: 900000 6.8443 3.6156 10.7354 0.0000 -11117.9723 1515.0201 0.0000 0.0000 1569.5849 -8012.1720 267.4288 -9581.7569 -8009.2724 269.9053 -429.6925 -376.4314 29512.7463 3.5698 3.4108
TCL: Running 1000000 steps at 300 kelvin.
TCL: Setting parameter langevinTemp to 300
TCL: Running for 1000000 steps
ETITLE: TS BOND ANGLE DIHED IMPRP ELECT VDW BOUNDARY MISC KINETIC TOTAL TEMP POTENTIAL TOTAL3 TEMPAVG PRESSURE GPRESSURE VOLUME PRESSAVG GPRESSAVG
ENERGY: 900000 6.8443 3.6156 10.7354 0.0000 -11117.9723 1515.0201 0.0000 0.0000 1568.8095 -8012.9474 267.2967 -9581.7569 -8009.3862 267.2967 -474.0924 -377.4128 29512.7463 -474.0924 -377.4128
ENERGY: 1100000 5.7737 7.8463 7.1765 0.0000 -10422.5003 1287.5978 0.0000 0.0000 1786.1604 -7327.9457 304.3294 -9114.1061 -7325.2527 300.5866 -661.2322 -573.8751 30440.4375 2.5205 2.4446
ENERGY: 1300000 5.7625 7.0696 11.1609 0.0000 -10476.7117 1336.5630 0.0000 0.0000 1781.5749 -7334.5809 303.5481 -9116.1558 -7330.3707 300.1745 -832.1653 -744.4974 30995.0966 2.8466 2.8533
ENERGY: 1500000 6.5603 8.2453 6.8109 0.0000 -10666.3954 1460.7829 0.0000 0.0000 1735.5738 -7448.4221 295.7103 -9183.9959 -7445.8598 300.6548 404.9820 489.2882 30583.8233 2.7964 2.5910
ENERGY: 1700000 10.8830 6.6730 6.8360 0.0000 -10737.5207 1454.5421 0.0000 0.0000 1793.0226 -7465.5640 305.4986 -9258.5866 -7460.3217 300.5747 51.1745 178.3319 30060.1231 3.9230 4.0771
ENERGY: 1900000 5.3781 5.4272 6.8983 0.0000 -10580.8773 1394.8415 0.0000 0.0000 1799.4591 -7368.8731 306.5952 -9168.3322 -7368.1489 299.7908 52.3127 109.7889 30265.4488 3.2948 3.2833
TCL: Exiting due to exit command.
