Info: SIMULATION PARAMETERS:
Info: TIMESTEP               2
Info: NUMBER OF STEPS        0
Info: STEPS PER CYCLE        10
Info: PERIODIC CELL BASIS 1  36.592 0 0
Info: PERIODIC CELL BASIS 2  0 33.399 0
Info: PERIODIC CELL BASIS 3  0 0 35.723
Info: PERIODIC CELL CENTER   0 0 0
Info: WRAPPING WATERS AROUND PERIODIC BOUNDARIES ON OUTPUT.
Info: WRAPPING ALL CLUSTERS AROUND PERIODIC BOUNDARIES ON OUTPUT.
Info: FIRST LDB TIMESTEP     50
Info: LAST LDB TIMESTEP     -1
Info: HOM BACKGROUND SCALING 1
Info: PME BACKGROUND SCALING 1
Info: MIN ATOMS PER PATCH    40
Info: EMPTY PATCH LOAD       40 ATOMS
Info: INITIAL TEMPERATURE    300
Info: CENTER OF MASS MOVING INITIALLY? NO
Info: DIELECTRIC             1
Info: EXCLUDE                SCALED ONE-FOUR
Info: 1-4 ELECTROSTATICS SCALED BY 0.833333
Info: MODIFIED 1-4 VDW PARAMETERS WILL BE USED
Info: DCD FILENAME           mobley_4043987_equil.dcd
Info: DCD FREQUENCY          100000
Info: DCD FIRST STEP         100000
Info: DCD FILE WILL CONTAIN UNIT CELL DATA
Info: XST FILENAME           mobley_4043987_equil.xst
Info: XST FREQUENCY          100000
Info: NO VELOCITY DCD OUTPUT
Info: NO FORCE DCD OUTPUT
Info: OUTPUT FILENAME        mobley_4043987_equil
Info: BINARY OUTPUT FILES WILL BE USED
Info: RESTART FILENAME       mobley_4043987_equil.restart
Info: RESTART FREQUENCY      100000
Info: BINARY RESTART FILES WILL BE USED
Info: CUTOFF                 9
Info: PAIRLIST DISTANCE      11
Info: PAIRLIST SHRINK RATE   0.01
Info: PAIRLIST GROW RATE     0.01
Info: PAIRLIST TRIGGER       0.3
Info: PAIRLISTS PER CYCLE    2
Info: PAIRLISTS ENABLED
Info: MARGIN                 8
Info: HYDROGEN GROUP CUTOFF  2.5
Info: PATCH DIMENSION        21.5
Info: ENERGY OUTPUT STEPS    100000
Info: ENERGY EVALUATION STEPS    100000
Info: OUTPUT ENERGY PRECISION 4
Info: CROSSTERM ENERGY INCLUDED IN DIHEDRAL
Info: TIMING OUTPUT STEPS    1000000
Info: PRESSURE OUTPUT STEPS  100000
Info: LANGEVIN DYNAMICS ACTIVE
Info: LANGEVIN TEMPERATURE   30
Info: LANGEVIN USING BBK INTEGRATOR
Info: LANGEVIN DAMPING COEFFICIENT IS 1 INVERSE PS
Info: LANGEVIN DYNAMICS APPLIED TO HYDROGENS
Info: LANGEVIN PISTON PRESSURE CONTROL ACTIVE
Info:        TARGET PRESSURE IS 1.01325 BAR
Info:     OSCILLATION PERIOD IS 50 FS
Info:             DECAY TIME IS 25 FS
Info:     PISTON TEMPERATURE IS 300 K
Info:       PRESSURE CONTROL IS GROUP-BASED
Info:    INITIAL STRAIN RATE IS 0 0 0
Info:       CELL FLUCTUATION IS ISOTROPIC
Info: PARTICLE MESH EWALD (PME) ACTIVE
Info: PME TOLERANCE               1e-06
Info: PME EWALD COEFFICIENT       0.348832
Info: PME INTERPOLATION ORDER     4
Info: PME GRID DIMENSIONS         40 36 36
Info: PME MAXIMUM GRID SPACING    1
Info: FULL ELECTROSTATIC EVALUATION FREQUENCY      2
Info: USING VERLET I (r-RESPA) MTS SCHEME.
Info: C1 SPLITTING OF LONG RANGE ELECTROSTATICS
Info: PLACING ATOMS IN PATCHES BY HYDROGEN GROUPS
Info: RIGID BONDS TO HYDROGEN : ALL
Info:         ERROR TOLERANCE : 1e-08
Info:          MAX ITERATIONS : 100
Info: RIGID WATER USING SETTLE ALGORITHM
Info: RANDOM NUMBER SEED     1743251586
Info: USE HYDROGEN BONDS?    NO
Info: Using AMBER format force field!
Info: AMBER PARM FILE        mobley_4043987.prmtop
Info: COORDINATE PDB         mobley_4043987.pdb
Info: Exclusions will be read from PARM file!
Info: SCNB (VDW SCALING)     2
Info: USING ARITHMETIC MEAN TO COMBINE L-J SIGMA PARAMETERS
Info: BINARY COORDINATES     mobley_4043987_min.coor
Info: SUMMARY OF PARAMETERS:
Info: 4 BONDS
Info: 3 ANGLES
Info:   3 HARMONIC
Info:   0 COSINE-BASED
Info: 5 DIHEDRAL
Info: 0 IMPROPER
Info: 0 CROSSTERM
Info: 0 VDW
Info: 10 VDW_PAIRS
Info: 0 NBTHOLE_PAIRS
Info: STRUCTURE SUMMARY:
Info: 2942 ATOMS
Info: 2941 BONDS
Info: 42 ANGLES
Info: 62 DIHEDRALS
Info: 0 IMPROPERS
Info: 0 CROSSTERMS
Info: 3037 EXCLUSIONS
Info: 2935 RIGID BONDS
Info: 5891 DEGREES OF FREEDOM
Info: 980 HYDROGEN GROUPS
Info: 4 ATOMS IN LARGEST HYDROGEN GROUP
Info: 980 MIGRATION GROUPS
Info: 4 ATOMS IN LARGEST MIGRATION GROUP
Info: TOTAL MASS = 17629.8 amu
Info: TOTAL CHARGE = 0.0002 e
Info: MASS DENSITY = 0.670561 g/cm^3
Info: ATOM DENSITY = 0.0673868 atoms/A^3
Info: ADDED 0 IMPLICIT EXCLUSIONS
Info: NONBONDED TABLE R-SQUARED SPACING: 0.0625
Info: NONBONDED TABLE SIZE: 705 POINTS
Info: REMOVING COM VELOCITY -0.169008 0.143692 -0.0401234
TCL: Running for 100000 steps
ETITLE: TS BOND ANGLE DIHED IMPRP ELECT VDW BOUNDARY MISC KINETIC TOTAL TEMP POTENTIAL TOTAL3 TEMPAVG PRESSURE GPRESSURE VOLUME PRESSAVG GPRESSAVG
ENERGY: 0 0.1697 0.6694 2.1432 0.0000 -13529.6181 2360.8303 0.0000 0.0000 1769.3428 -9396.4627 302.2827 -11165.8055 -9396.0880 302.2827 335.1211 362.0010 43658.3718 335.1211 362.0010
ENERGY: 100000 0.8428 2.2214 2.3066 0.0000 -14056.9887 2426.4546 0.0000 0.0000 172.6300 -11452.5333 29.4929 -11625.1632 -11451.9314 30.8689 -245.8028 -203.5706 28922.6900 4.0074 4.0299
TCL: Running 100000 steps at 60 kelvin.
TCL: Setting parameter langevinTemp to 60
TCL: Running for 100000 steps
ETITLE: TS BOND ANGLE DIHED IMPRP ELECT VDW BOUNDARY MISC KINETIC TOTAL TEMP POTENTIAL TOTAL3 TEMPAVG PRESSURE GPRESSURE VOLUME PRESSAVG GPRESSAVG
ENERGY: 100000 0.8428 2.2214 2.3066 0.0000 -14056.9887 2426.4546 0.0000 0.0000 172.5421 -11452.6212 29.4779 -11625.1632 -11452.2253 29.4779 -260.5229 -203.4050 28922.6900 -260.5229 -203.4050
ENERGY: 200000 0.6139 2.8206 1.8068 0.0000 -14124.3646 2534.0312 0.0000 0.0000 356.3138 -11228.7782 60.8743 -11585.0921 -11227.9339 60.0932 1166.6444 1210.7522 28279.5876 1.9966 1.9920
TCL: Running 100000 steps at 90 kelvin.
TCL: Setting parameter langevinTemp to 90
TCL: Running for 100000 steps
ETITLE: TS BOND ANGLE DIHED IMPRP ELECT VDW BOUNDARY MISC KINETIC TOTAL TEMP POTENTIAL TOTAL3 TEMPAVG PRESSURE GPRESSURE VOLUME PRESSAVG GPRESSAVG
ENERGY: 200000 0.6139 2.8206 1.8068 0.0000 -14124.3646 2534.0312 0.0000 0.0000 356.1334 -11228.9586 60.8435 -11585.0921 -11228.4088 60.8435 1168.8685 1210.7422 28279.5876 1168.8685 1210.7422
ENERGY: 300000 0.5918 2.7242 2.2893 0.0000 -13848.9533 2335.1149 0.0000 0.0000 526.5008 -10981.7324 89.9498 -11508.2332 -10980.3927 89.8127 -385.2224 -304.9034 28683.7585 5.2964 5.3683
TCL: Running 100000 steps at 120 kelvin.
TCL: Setting parameter langevinTemp to 120
TCL: Running for 100000 steps
ETITLE: TS BOND ANGLE DIHED IMPRP ELECT VDW BOUNDARY MISC KINETIC TOTAL TEMP POTENTIAL TOTAL3 TEMPAVG PRESSURE GPRESSURE VOLUME PRESSAVG GPRESSAVG
ENERGY: 300000 0.5918 2.7242 2.2893 0.0000 -13848.9533 2335.1149 0.0000 0.0000 526.2315 -10982.0017 89.9038 -11508.2332 -10980.5683 89.9038 -370.1522 -304.8104 28683.7585 -370.1522 -304.8104
ENERGY: 400000 1.2399 3.6840 2.2151 0.0000 -13591.9210 2240.7056 0.0000 0.0000 705.7416 -10638.3349 120.5722 -11344.0765 -10636.2005 120.0509 -544.3977 -517.6891 28944.9527 3.5899 3.5871
TCL: Running 100000 steps at 150 kelvin.
TCL: Setting parameter langevinTemp to 150
TCL: Running for 100000 steps
ETITLE: TS BOND ANGLE DIHED IMPRP ELECT VDW BOUNDARY MISC KINETIC TOTAL TEMP POTENTIAL TOTAL3 TEMPAVG PRESSURE GPRESSURE VOLUME PRESSAVG GPRESSAVG
ENERGY: 400000 1.2399 3.6840 2.2151 0.0000 -13591.9210 2240.7056 0.0000 0.0000 705.3967 -10638.6799 120.5132 -11344.0765 -10636.6932 120.5132 -581.2666 -517.3276 28944.9527 -581.2666 -517.3276
ENERGY: 500000 0.3875 4.2448 3.2811 0.0000 -13372.4169 2183.8585 0.0000 0.0000 878.6565 -10301.9884 150.1138 -11180.6449 -10300.1989 149.7166 -530.5547 -442.9955 28991.6935 4.1770 4.1748
TCL: Running 100000 steps at 180 kelvin.
TCL: Setting parameter langevinTemp to 180
TCL: Running for 100000 steps
ETITLE: TS BOND ANGLE DIHED IMPRP ELECT VDW BOUNDARY MISC KINETIC TOTAL TEMP POTENTIAL TOTAL3 TEMPAVG PRESSURE GPRESSURE VOLUME PRESSAVG GPRESSAVG
ENERGY: 500000 0.3875 4.2448 3.2811 0.0000 -13372.4169 2183.8585 0.0000 0.0000 878.2228 -10302.4221 150.0397 -11180.6449 -10300.6613 150.0397 -497.5747 -443.0725 28991.6935 -497.5747 -443.0725
ENERGY: 600000 0.7324 9.5897 2.9664 0.0000 -13006.2150 2074.3737 0.0000 0.0000 1048.1333 -9870.4195 179.0680 -10918.5528 -9867.9531 179.9024 -506.3660 -460.8302 29144.8247 3.8803 3.8910
TCL: Running 100000 steps at 210 kelvin.
TCL: Setting parameter langevinTemp to 210
TCL: Running for 100000 steps
ETITLE: TS BOND ANGLE DIHED IMPRP ELECT VDW BOUNDARY MISC KINETIC TOTAL TEMP POTENTIAL TOTAL3 TEMPAVG PRESSURE GPRESSURE VOLUME PRESSAVG GPRESSAVG
ENERGY: 600000 0.7324 9.5897 2.9664 0.0000 -13006.2150 2074.3737 0.0000 0.0000 1047.6393 -9870.9135 178.9836 -10918.5528 -9868.9193 178.9836 -534.7344 -461.5272 29144.8247 -534.7344 -461.5272
ENERGY: 700000 1.7313 7.6384 3.1896 0.0000 -12206.1003 1837.8466 0.0000 0.0000 1242.6188 -9113.0757 212.2948 -10355.6944 -9110.4142 210.3660 -60.8200 7.1495 28524.1355 3.6100 3.4220
TCL: Running 100000 steps at 240 kelvin.
TCL: Setting parameter langevinTemp to 240
TCL: Running for 100000 steps
ETITLE: TS BOND ANGLE DIHED IMPRP ELECT VDW BOUNDARY MISC KINETIC TOTAL TEMP POTENTIAL TOTAL3 TEMPAVG PRESSURE GPRESSURE VOLUME PRESSAVG GPRESSAVG
ENERGY: 700000 1.7313 7.6384 3.1896 0.0000 -12206.1003 1837.8466 0.0000 0.0000 1242.0060 -9113.6884 212.1901 -10355.6944 -9111.7290 212.1901 -68.5958 7.3975 28524.1355 -68.5958 7.3975
ENERGY: 800000 2.3041 5.3890 2.4784 0.0000 -11639.2100 1635.8748 0.0000 0.0000 1396.6991 -8596.4646 238.6186 -9993.1637 -8590.7935 239.8477 -566.4321 -524.9889 29193.4445 3.3551 3.5365
TCL: Running 100000 steps at 270 kelvin.
TCL: Setting parameter langevinTemp to 270
TCL: Running for 100000 steps
ETITLE: TS BOND ANGLE DIHED IMPRP ELECT VDW BOUNDARY MISC KINETIC TOTAL TEMP POTENTIAL TOTAL3 TEMPAVG PRESSURE GPRESSURE VOLUME PRESSAVG GPRESSAVG
ENERGY: 800000 2.3041 5.3890 2.4784 0.0000 -11639.2100 1635.8748 0.0000 0.0000 1395.9920 -8597.1718 238.4977 -9993.1637 -8594.6580 238.4977 -608.8857 -522.4321 29193.4445 -608.8857 -522.4321
ENERGY: 900000 0.7994 8.6882 2.6346 0.0000 -11116.9853 1569.3177 0.0000 0.0000 1572.9383 -7962.6071 268.7281 -9535.5454 -7960.0337 270.1810 82.0335 130.2642 29677.7676 3.5448 3.6392
TCL: Running 1000000 steps at 300 kelvin.
TCL: Setting parameter langevinTemp to 300
TCL: Running for 1000000 steps
ETITLE: TS BOND ANGLE DIHED IMPRP ELECT VDW BOUNDARY MISC KINETIC TOTAL TEMP POTENTIAL TOTAL3 TEMPAVG PRESSURE GPRESSURE VOLUME PRESSAVG GPRESSAVG
ENERGY: 900000 0.7994 8.6882 2.6346 0.0000 -11116.9853 1569.3177 0.0000 0.0000 1572.1627 -7963.3827 268.5956 -9535.5454 -7959.8151 268.5956 54.7473 128.2456 29677.7676 54.7473 128.2456
ENERGY: 1100000 1.1518 9.8222 3.4662 0.0000 -10857.4559 1520.3375 0.0000 0.0000 1708.6796 -7613.9986 291.9188 -9322.6782 -7607.2514 300.2216 425.9061 509.7726 29788.8277 3.0219 3.2385
ENERGY: 1300000 0.5053 13.2196 4.3745 0.0000 -10632.4857 1491.8007 0.0000 0.0000 1784.3020 -7338.2836 304.8384 -9122.5856 -7335.3599 300.3903 732.5315 759.5369 30501.8185 3.6599 3.3174
ENERGY: 1500000 2.4694 15.0467 2.6896 0.0000 -10667.9183 1534.2709 0.0000 0.0000 1722.1350 -7391.3067 294.2175 -9113.4417 -7387.9030 300.2252 1476.5680 1598.4675 29669.6653 2.0990 2.3590
ENERGY: 1700000 1.7815 13.4050 4.4878 0.0000 -10591.1191 1402.6491 0.0000 0.0000 1783.2141 -7385.5817 304.6526 -9168.7958 -7383.8761 300.9155 -424.9413 -339.5004 30637.5063 3.3438 3.3165
ENERGY: 1900000 1.2204 16.0167 2.9262 0.0000 -10673.2938 1464.2032 0.0000 0.0000 1818.1333 -7370.7940 310.6183 -9188.9273 -7370.3513 299.8809 608.7520 711.5632 29729.9332 5.4864 5.3408
TCL: Exiting due to exit command.
