Info: SIMULATION PARAMETERS:
Info: TIMESTEP               2
Info: NUMBER OF STEPS        0
Info: STEPS PER CYCLE        10
Info: PERIODIC CELL BASIS 1  31.0046 0 0
Info: PERIODIC CELL BASIS 2  0 31.3597 0
Info: PERIODIC CELL BASIS 3  0 0 31.566
Info: PERIODIC CELL CENTER   0 0 0
Info: WRAPPING WATERS AROUND PERIODIC BOUNDARIES ON OUTPUT.
Info: WRAPPING ALL CLUSTERS AROUND PERIODIC BOUNDARIES ON OUTPUT.
Info: FIRST LDB TIMESTEP     50
Info: LAST LDB TIMESTEP     -1
Info: HOM BACKGROUND SCALING 1
Info: PME BACKGROUND SCALING 1
Info: MIN ATOMS PER PATCH    40
Info: EMPTY PATCH LOAD       40 ATOMS
Info: VELOCITY FILE          mobley_9029594_equil.vel
Info: CENTER OF MASS MOVING INITIALLY? NO
Info: DIELECTRIC             1
Info: EXCLUDE                SCALED ONE-FOUR
Info: 1-4 ELECTROSTATICS SCALED BY 0.833333
Info: MODIFIED 1-4 VDW PARAMETERS WILL BE USED
Info: DCD FILENAME           mobley_9029594_prod.dcd
Info: DCD FREQUENCY          100000
Info: DCD FIRST STEP         100000
Info: DCD FILE WILL CONTAIN UNIT CELL DATA
Info: XST FILENAME           mobley_9029594_prod.xst
Info: XST FREQUENCY          100000
Info: NO VELOCITY DCD OUTPUT
Info: NO FORCE DCD OUTPUT
Info: OUTPUT FILENAME        mobley_9029594_prod
Info: BINARY OUTPUT FILES WILL BE USED
Info: RESTART FILENAME       mobley_9029594_prod.restart
Info: RESTART FREQUENCY      100000
Info: BINARY RESTART FILES WILL BE USED
Info: CUTOFF                 9
Info: PAIRLIST DISTANCE      11
Info: PAIRLIST SHRINK RATE   0.01
Info: PAIRLIST GROW RATE     0.01
Info: PAIRLIST TRIGGER       0.3
Info: PAIRLISTS PER CYCLE    2
Info: PAIRLISTS ENABLED
Info: MARGIN                 2
Info: HYDROGEN GROUP CUTOFF  2.5
Info: PATCH DIMENSION        15.5
Info: ENERGY OUTPUT STEPS    100000
Info: ENERGY EVALUATION STEPS    100000
Info: OUTPUT ENERGY PRECISION 4
Info: CROSSTERM ENERGY INCLUDED IN DIHEDRAL
Info: TIMING OUTPUT STEPS    1000000
Info: PRESSURE OUTPUT STEPS  100000
Info: ALCHEMICAL FEP ON
Info: FEP CURRENT LAMBDA VALUE     1
Info: FEP COMPARISON LAMBDA VALUE  0.95
Info: FEP INTRA-ALCHEMICAL NON-BONDED INTERACTIONS WILL BE RETAINED
Info: FEP INTRA-ALCHEMICAL BONDED INTERACTIONS WILL BE RETAINED
Info: FEP VDW SHIFTING COEFFICIENT 5
Info: FEP ELEC. ACTIVE FOR ANNIHILATED PARTICLES BETWEEN LAMBDA = 0 AND LAMBDA = 0.5
Info: FEP ELEC. ACTIVE FOR EXNIHILATED PARTICLES BETWEEN LAMBDA = 0.5 AND LAMBDA = 1
Info: FEP VDW ACTIVE FOR ANNIHILATED PARTICLES BETWEEN LAMBDA = 0 AND LAMBDA = 1
Info: FEP VDW ACTIVE FOR EXNIHILATED PARTICLES BETWEEN LAMBDA = 0 AND LAMBDA = 1
Info: FEP BOND ACTIVE FOR ANNIHILATED PARTICLES BETWEEN LAMBDA = 1 AND LAMBDA = 1
Info: FEP BOND ACTIVE FOR EXNIHILATED PARTICLES BETWEEN LAMBDA = 0 AND LAMBDA = 0
Info: LANGEVIN DYNAMICS ACTIVE
Info: LANGEVIN TEMPERATURE   300
Info: LANGEVIN USING BBK INTEGRATOR
Info: LANGEVIN DAMPING COEFFICIENT IS 1 INVERSE PS
Info: LANGEVIN DYNAMICS APPLIED TO HYDROGENS
Info: LANGEVIN PISTON PRESSURE CONTROL ACTIVE
Info:        TARGET PRESSURE IS 1.01325 BAR
Info:     OSCILLATION PERIOD IS 50 FS
Info:             DECAY TIME IS 25 FS
Info:     PISTON TEMPERATURE IS 300 K
Info:       PRESSURE CONTROL IS GROUP-BASED
Info:    INITIAL STRAIN RATE IS -0.00035852 -0.00035852 -0.00035852
Info:       CELL FLUCTUATION IS ISOTROPIC
Info: PARTICLE MESH EWALD (PME) ACTIVE
Info: PME TOLERANCE               1e-06
Info: PME EWALD COEFFICIENT       0.348832
Info: PME INTERPOLATION ORDER     4
Info: PME GRID DIMENSIONS         32 32 32
Info: PME MAXIMUM GRID SPACING    1
Info: PME CALCULATION WILL BE PERFORMED ON GPU
Info: FULL ELECTROSTATIC EVALUATION FREQUENCY      2
Info: USING VERLET I (r-RESPA) MTS SCHEME.
Info: C1 SPLITTING OF LONG RANGE ELECTROSTATICS
Info: PLACING ATOMS IN PATCHES BY HYDROGEN GROUPS
Info: RIGID BONDS TO HYDROGEN : ALL
Info:         ERROR TOLERANCE : 1e-08
Info:          MAX ITERATIONS : 100
Info: RIGID WATER USING SETTLE ALGORITHM
Info: RANDOM NUMBER SEED     1743478901
Info: USE HYDROGEN BONDS?    NO
Info: Using AMBER format force field!
Info: AMBER PARM FILE        mobley_9029594.prmtop
Info: COORDINATE PDB         mobley_9029594.pdb
Info: Exclusions will be read from PARM file!
Info: SCNB (VDW SCALING)     2
Info: USING ARITHMETIC MEAN TO COMBINE L-J SIGMA PARAMETERS
Info: BINARY COORDINATES     mobley_9029594_equil.coor
Info: SUMMARY OF PARAMETERS:
Info: 4 BONDS
Info: 2 ANGLES
Info:   2 HARMONIC
Info:   0 COSINE-BASED
Info: 0 DIHEDRAL
Info: 0 IMPROPER
Info: 0 CROSSTERM
Info: 0 VDW
Info: 15 VDW_PAIRS
Info: 0 NBTHOLE_PAIRS
Info: To read alchdata from file: mobley_9029594.pdb
Info: To read alchflag data from column: 5
Info: STRUCTURE SUMMARY:
Info: 2975 ATOMS
Info: 2974 BONDS
Info: 6 ANGLES
Info: 0 DIHEDRALS
Info: 0 IMPROPERS
Info: 0 CROSSTERMS
Info: 2980 EXCLUSIONS
Info: 2973 RIGID BONDS
Info: ALCH: 0 ATOMS TO DISAPPEAR IN FINAL STATE
Info: ALCH: 5 ATOMS TO APPEAR IN FINAL STATE
Info: 5952 DEGREES OF FREEDOM
Info: 992 HYDROGEN GROUPS
Info: 4 ATOMS IN LARGEST HYDROGEN GROUP
Info: 992 MIGRATION GROUPS
Info: 4 ATOMS IN LARGEST MIGRATION GROUP
Info: TOTAL MASS = 17869.9 amu
Info: TOTAL CHARGE = 7.45058e-09 e
Info: MASS DENSITY = 0.966858 g/cm^3
Info: ATOM DENSITY = 0.0969324 atoms/A^3
Info: ADDED 0 IMPLICIT EXCLUSIONS
Info: NONBONDED TABLE R-SQUARED SPACING: 0.0625
Info: NONBONDED TABLE SIZE: 705 POINTS
Info: REDUCING NUMBER OF PATCHES TO IMPROVE LOAD BALANCE
Info: REMOVING COM VELOCITY 0.0361045 -0.0880735 -0.0472856
Info: Use 3D box decompostion in PME FFT.
Info: Updated CUDA force table with 4096 elements.
Info: Updated CUDA LJ table with 5 x 5 elements.
Info: Found 8 unique exclusion lists needing 8 bytes
TCL: Running for 1500000 steps
ETITLE: TS BOND ANGLE DIHED IMPRP ELECT VDW BOUNDARY MISC KINETIC TOTAL TEMP POTENTIAL TOTALAVG TEMPAVG PRESSURE GPRESSURE VOLUME PRESSAVG GPRESSAVG
ENERGY: 0 0.0829 3.4917 0.0000 0.0000 -10914.6803 1477.3091 0.0000 0.0000 1789.5038 -7644.2928 302.5938 -9433.7966 -7644.2928 302.5938 -8.3300 67.4788 30691.4894 -8.3300 67.4788
ENERGY: 300000 0.9731 1.5468 0.0000 0.0000 -10783.5958 1472.8251 0.0000 0.0000 1805.3663 -7502.8845 305.2761 -9308.2508 -7568.1622 301.0741 553.6692 586.5332 30281.2603 -261.0042 -182.4457
ENERGY: 600000 0.2992 1.2845 0.0000 0.0000 -10750.7998 1408.9030 0.0000 0.0000 1725.2882 -7615.0249 291.7354 -9340.3131 -7565.0133 298.5784 -443.3372 -361.9167 30869.8506 -185.6479 -104.9180
ENERGY: 900000 0.1938 1.2025 0.0000 0.0000 -10918.7142 1530.8535 0.0000 0.0000 1802.5372 -7583.9270 304.7977 -9386.4643 -7561.9977 300.3272 600.9019 668.0825 30370.4896 -141.1833 -64.9970
ENERGY: 1200000 0.1542 0.7259 0.0000 0.0000 -10661.3120 1403.4388 0.0000 0.0000 1804.2882 -7452.7049 305.0938 -9256.9931 -7560.1170 300.9983 -40.8404 37.3243 30588.7991 -158.7829 -78.2718
ENERGY: 1500000 0.0710 1.0078 0.0000 0.0000 -10868.8131 1516.5177 0.0000 0.0000 1823.6330 -7527.5837 308.3649 -9351.2166 -7563.1512 301.4933 586.5018 657.6566 30311.1099 -137.9820 -62.1497
TCL: Running FEP window   2: Lambda1 0.95   Lambda2 0.8999999999999999 [dLambda -0.050000000000000044]
TCL: Setting parameter firsttimestep to 0
TCL: Setting parameter alchLambda to 0.95
Info: NONBONDED TABLE R-SQUARED SPACING: 0.0625
Info: NONBONDED TABLE SIZE: 705 POINTS
TCL: Setting parameter alchLambda2 to 0.8999999999999999
Info: NONBONDED TABLE R-SQUARED SPACING: 0.0625
Info: NONBONDED TABLE SIZE: 705 POINTS
TCL: Running for 1500000 steps
ETITLE: TS BOND ANGLE DIHED IMPRP ELECT VDW BOUNDARY MISC KINETIC TOTAL TEMP POTENTIAL TOTALAVG TEMPAVG PRESSURE GPRESSURE VOLUME PRESSAVG GPRESSAVG
ENERGY: 0 0.0710 1.0078 0.0000 0.0000 -10868.6259 1516.2947 0.0000 0.0000 1822.7576 -7528.4948 308.2168 -9351.2524 -7528.4948 308.2168 550.8193 647.8431 30311.1099 550.8193 647.8431
ENERGY: 300000 0.0675 0.6019 0.0000 0.0000 -10762.5143 1490.1018 0.0000 0.0000 1792.5248 -7479.2183 303.1047 -9271.7431 -7547.7928 302.5621 443.9054 538.7736 30726.8155 204.8288 274.7074
ENERGY: 600000 1.9408 1.4721 0.0000 0.0000 -10833.4585 1449.5820 0.0000 0.0000 1694.4639 -7685.9998 286.5232 -9380.4637 -7569.9111 299.9241 84.2533 99.9454 30237.5497 21.3206 78.6104
ENERGY: 900000 0.0015 0.9175 0.0000 0.0000 -10834.7810 1447.2133 0.0000 0.0000 1824.3693 -7562.2794 308.4894 -9386.6487 -7580.0605 300.7904 -41.9867 46.1545 30512.9284 -49.5342 15.5577
ENERGY: 1200000 0.1702 2.1858 0.0000 0.0000 -10765.7255 1475.3459 0.0000 0.0000 1808.4050 -7479.6185 305.7899 -9288.0235 -7572.0038 301.0478 245.2574 327.3885 30912.1549 9.4163 69.9866
ENERGY: 1500000 0.0034 1.8625 0.0000 0.0000 -10969.4494 1521.1112 0.0000 0.0000 1763.5523 -7682.9199 298.2056 -9446.4723 -7586.6090 300.5081 593.9096 666.5398 29877.6025 15.4873 74.2401
TCL: Running FEP window   3: Lambda1 0.8999999999999999 Lambda2 0.8499999999999999 [dLambda -0.050000000000000044]
TCL: Setting parameter firsttimestep to 0
TCL: Setting parameter alchLambda to 0.8999999999999999
Info: NONBONDED TABLE R-SQUARED SPACING: 0.0625
Info: NONBONDED TABLE SIZE: 705 POINTS
TCL: Setting parameter alchLambda2 to 0.8499999999999999
Info: NONBONDED TABLE R-SQUARED SPACING: 0.0625
Info: NONBONDED TABLE SIZE: 705 POINTS
TCL: Running for 1500000 steps
ETITLE: TS BOND ANGLE DIHED IMPRP ELECT VDW BOUNDARY MISC KINETIC TOTAL TEMP POTENTIAL TOTALAVG TEMPAVG PRESSURE GPRESSURE VOLUME PRESSAVG GPRESSAVG
ENERGY: 0 0.0034 1.8625 0.0000 0.0000 -10969.2637 1521.2912 0.0000 0.0000 1762.6710 -7683.4357 298.0566 -9446.1066 -7683.4357 298.0566 588.0921 665.9612 29877.6025 588.0921 665.9612
ENERGY: 300000 0.0039 3.7410 0.0000 0.0000 -10759.8101 1408.9812 0.0000 0.0000 1776.3803 -7570.7038 300.3747 -9347.0841 -7589.9581 299.6535 -413.7424 -406.3639 31045.2526 243.6600 271.2480
ENERGY: 600000 0.0051 1.6303 0.0000 0.0000 -10860.3944 1478.5491 0.0000 0.0000 1766.5708 -7613.6392 298.7160 -9380.2099 -7606.2106 297.3471 -34.0017 56.9843 30824.2984 -108.3511 -55.9901
ENERGY: 900000 0.9303 1.3631 0.0000 0.0000 -10842.6216 1483.6031 0.0000 0.0000 1786.6870 -7570.0383 302.1175 -9356.7252 -7606.7418 297.3769 255.0997 363.3968 30456.9057 -89.6057 -29.5162
ENERGY: 1200000 0.0026 2.2724 0.0000 0.0000 -10756.7076 1426.9151 0.0000 0.0000 1756.2149 -7571.3025 296.9649 -9327.5175 -7609.7585 297.7941 -392.3104 -320.1694 31138.9288 -86.9535 -22.0223
ENERGY: 1500000 0.3166 1.5339 0.0000 0.0000 -10969.4514 1549.4338 0.0000 0.0000 1818.0966 -7600.0705 307.4287 -9418.1672 -7600.0267 299.9934 721.8839 754.4227 30098.4702 -69.0824 -8.8028
TCL: Running FEP window   4: Lambda1 0.8499999999999999 Lambda2 0.7999999999999998 [dLambda -0.050000000000000044]
TCL: Setting parameter firsttimestep to 0
TCL: Setting parameter alchLambda to 0.8499999999999999
Info: NONBONDED TABLE R-SQUARED SPACING: 0.0625
Info: NONBONDED TABLE SIZE: 705 POINTS
TCL: Setting parameter alchLambda2 to 0.7999999999999998
Info: NONBONDED TABLE R-SQUARED SPACING: 0.0625
Info: NONBONDED TABLE SIZE: 705 POINTS
TCL: Running for 1500000 steps
ETITLE: TS BOND ANGLE DIHED IMPRP ELECT VDW BOUNDARY MISC KINETIC TOTAL TEMP POTENTIAL TOTALAVG TEMPAVG PRESSURE GPRESSURE VOLUME PRESSAVG GPRESSAVG
ENERGY: 0 0.3166 1.5339 0.0000 0.0000 -10969.0269 1549.4651 0.0000 0.0000 1817.2242 -7600.4870 307.2812 -9417.7112 -7600.4870 307.2812 671.7298 753.5100 30098.4702 671.7298 753.5100
ENERGY: 300000 0.1963 2.0613 0.0000 0.0000 -10693.3051 1444.8491 0.0000 0.0000 1761.6846 -7484.5139 297.8898 -9246.1985 -7545.0115 303.0156 23.0306 50.6732 31231.6710 136.5703 169.9411
ENERGY: 600000 0.9165 4.0078 0.0000 0.0000 -10759.1546 1465.5128 0.0000 0.0000 1822.3449 -7466.3725 308.1471 -9288.7175 -7546.9380 303.8264 470.8208 542.8303 30281.1819 86.8440 135.7971
ENERGY: 900000 0.0244 2.6501 0.0000 0.0000 -10818.2119 1445.6250 0.0000 0.0000 1758.5655 -7611.3468 297.3624 -9369.9123 -7556.0210 302.6104 -234.5618 -204.9762 30879.3043 15.9989 62.7259
ENERGY: 1200000 0.0007 1.7481 0.0000 0.0000 -10758.9694 1445.6101 0.0000 0.0000 1760.7167 -7550.8938 297.7261 -9311.6105 -7561.3795 300.3211 70.1547 151.9172 30457.3945 -10.9499 43.3136
ENERGY: 1500000 0.1321 1.0582 0.0000 0.0000 -10686.1603 1373.3901 0.0000 0.0000 1849.2737 -7462.3062 312.7006 -9311.5799 -7562.8760 300.6623 -567.5915 -487.6406 30929.1082 -77.2125 -17.6576
TCL: Running FEP window   5: Lambda1 0.7999999999999998 Lambda2 0.7499999999999998 [dLambda -0.050000000000000044]
TCL: Setting parameter firsttimestep to 0
TCL: Setting parameter alchLambda to 0.7999999999999998
Info: NONBONDED TABLE R-SQUARED SPACING: 0.0625
Info: NONBONDED TABLE SIZE: 705 POINTS
TCL: Setting parameter alchLambda2 to 0.7499999999999998
Info: NONBONDED TABLE R-SQUARED SPACING: 0.0625
Info: NONBONDED TABLE SIZE: 705 POINTS
TCL: Running for 1500000 steps
ETITLE: TS BOND ANGLE DIHED IMPRP ELECT VDW BOUNDARY MISC KINETIC TOTAL TEMP POTENTIAL TOTALAVG TEMPAVG PRESSURE GPRESSURE VOLUME PRESSAVG GPRESSAVG
ENERGY: 0 0.1321 1.0582 0.0000 0.0000 -10685.8942 1373.3641 0.0000 0.0000 1848.4134 -7462.9264 312.5551 -9311.3398 -7462.9264 312.5551 -565.0484 -489.2108 30929.1082 -565.0484 -489.2108
ENERGY: 300000 0.2256 3.4366 0.0000 0.0000 -10867.0659 1472.6508 0.0000 0.0000 1787.6232 -7603.1297 302.2758 -9390.7529 -7593.7089 302.4856 110.6384 163.3615 30381.1588 -396.1413 -320.8384
ENERGY: 600000 0.4872 2.5766 0.0000 0.0000 -10721.7750 1371.6100 0.0000 0.0000 1759.6291 -7587.4720 297.5422 -9347.1011 -7576.4410 302.8237 -1059.5511 -872.7631 31236.6276 -466.9951 -373.3081
ENERGY: 900000 1.7458 5.3899 0.0000 0.0000 -10764.8697 1452.7575 0.0000 0.0000 1719.3669 -7585.6097 290.7341 -9304.9765 -7577.3256 302.1242 -143.6394 -48.1286 30922.7766 -355.5153 -265.7589
ENERGY: 1200000 0.9569 0.9611 0.0000 0.0000 -10766.6164 1451.6575 0.0000 0.0000 1819.3146 -7493.7263 307.6347 -9313.0409 -7577.7884 301.6088 262.2343 360.7505 30501.1123 -280.4351 -201.0471
ENERGY: 1500000 0.3456 0.5074 0.0000 0.0000 -10801.5452 1385.2818 0.0000 0.0000 1760.8083 -7654.6021 297.7416 -9415.4105 -7583.6640 301.2367 -587.8124 -525.1376 30411.1683 -235.7018 -159.0842
TCL: Running FEP window   6: Lambda1 0.7499999999999998 Lambda2 0.6999999999999997 [dLambda -0.050000000000000044]
TCL: Setting parameter firsttimestep to 0
TCL: Setting parameter alchLambda to 0.7499999999999998
Info: NONBONDED TABLE R-SQUARED SPACING: 0.0625
Info: NONBONDED TABLE SIZE: 705 POINTS
TCL: Setting parameter alchLambda2 to 0.6999999999999997
Info: NONBONDED TABLE R-SQUARED SPACING: 0.0625
Info: NONBONDED TABLE SIZE: 705 POINTS
TCL: Running for 1500000 steps
ETITLE: TS BOND ANGLE DIHED IMPRP ELECT VDW BOUNDARY MISC KINETIC TOTAL TEMP POTENTIAL TOTALAVG TEMPAVG PRESSURE GPRESSURE VOLUME PRESSAVG GPRESSAVG
ENERGY: 0 0.3456 0.5074 0.0000 0.0000 -10801.4894 1385.3118 0.0000 0.0000 1759.9303 -7655.3944 297.5932 -9415.3247 -7655.3944 297.5932 -615.7431 -530.3783 30411.1683 -615.7431 -530.3783
ENERGY: 300000 0.3313 0.9761 0.0000 0.0000 -10725.1591 1417.4096 0.0000 0.0000 1818.9396 -7487.5025 307.5713 -9306.4421 -7588.8305 303.8300 -38.9524 40.8417 30483.1112 -295.4600 -216.2740
ENERGY: 600000 0.0092 3.2995 0.0000 0.0000 -10902.4615 1471.6702 0.0000 0.0000 1748.5381 -7678.9444 295.6668 -9427.4825 -7593.9778 301.7874 -193.2558 -74.7889 30733.0775 -197.7698 -121.9319
ENERGY: 900000 0.4380 2.7650 0.0000 0.0000 -10985.7641 1520.7997 0.0000 0.0000 1820.3868 -7641.3745 307.8160 -9461.7613 -7607.9572 301.3491 302.8193 361.8886 30400.2977 -142.4393 -66.7327
ENERGY: 1200000 0.2788 1.6456 0.0000 0.0000 -10859.3641 1402.7185 0.0000 0.0000 1792.3678 -7662.3534 303.0781 -9454.7212 -7603.8424 301.4106 -621.1659 -503.7890 30537.4222 -127.7897 -56.0376
ENERGY: 1500000 0.2274 1.4474 0.0000 0.0000 -10750.1038 1411.0493 0.0000 0.0000 1776.8334 -7560.5463 300.4514 -9337.3797 -7594.6652 301.1634 -100.7780 -40.8173 30396.6284 -151.3633 -78.7469
TCL: Running FEP window   7: Lambda1 0.6999999999999997 Lambda2 0.6499999999999997 [dLambda -0.050000000000000044]
TCL: Setting parameter firsttimestep to 0
TCL: Setting parameter alchLambda to 0.6999999999999997
Info: NONBONDED TABLE R-SQUARED SPACING: 0.0625
Info: NONBONDED TABLE SIZE: 705 POINTS
TCL: Setting parameter alchLambda2 to 0.6499999999999997
Info: NONBONDED TABLE R-SQUARED SPACING: 0.0625
Info: NONBONDED TABLE SIZE: 705 POINTS
TCL: Running for 1500000 steps
ETITLE: TS BOND ANGLE DIHED IMPRP ELECT VDW BOUNDARY MISC KINETIC TOTAL TEMP POTENTIAL TOTALAVG TEMPAVG PRESSURE GPRESSURE VOLUME PRESSAVG GPRESSAVG
ENERGY: 0 0.2274 1.4474 0.0000 0.0000 -10749.5820 1410.7599 0.0000 0.0000 1775.9503 -7561.1970 300.3020 -9337.1473 -7561.1970 300.3020 -127.9161 -47.4307 30396.6284 -127.9161 -47.4307
ENERGY: 300000 0.4853 1.8975 0.0000 0.0000 -10883.8381 1451.9719 0.0000 0.0000 1759.7515 -7669.7319 297.5629 -9429.4834 -7599.7036 299.2577 -125.8568 -139.7461 30238.7497 -394.5078 -366.5061
ENERGY: 600000 0.0030 1.4440 0.0000 0.0000 -10961.5987 1563.1316 0.0000 0.0000 1783.5025 -7613.5175 301.5791 -9397.0200 -7607.5569 299.1417 731.6651 777.6394 30435.6660 -31.8629 16.5000
ENERGY: 900000 0.1807 1.7256 0.0000 0.0000 -10949.4509 1544.6957 0.0000 0.0000 1791.9134 -7610.9355 303.0013 -9402.8489 -7604.1575 299.4699 385.1082 486.3957 30954.1527 -35.3157 26.4476
ENERGY: 1200000 0.1480 1.7172 0.0000 0.0000 -10878.8623 1543.4969 0.0000 0.0000 1774.1223 -7559.3778 299.9929 -9333.5002 -7602.2967 298.8296 575.7732 665.4962 30651.1301 52.4844 117.5500
ENERGY: 1500000 0.1808 0.4167 0.0000 0.0000 -10760.3054 1383.1052 0.0000 0.0000 1810.9838 -7565.6188 306.2260 -9376.6027 -7591.6718 300.1640 -588.0565 -540.5271 30737.8195 -13.2753 56.3806
TCL: Running FEP window   8: Lambda1 0.6499999999999997 Lambda2 0.5999999999999996 [dLambda -0.050000000000000044]
TCL: Setting parameter firsttimestep to 0
TCL: Setting parameter alchLambda to 0.6499999999999997
Info: NONBONDED TABLE R-SQUARED SPACING: 0.0625
Info: NONBONDED TABLE SIZE: 705 POINTS
TCL: Setting parameter alchLambda2 to 0.5999999999999996
Info: NONBONDED TABLE R-SQUARED SPACING: 0.0625
Info: NONBONDED TABLE SIZE: 705 POINTS
TCL: Running for 1500000 steps
ETITLE: TS BOND ANGLE DIHED IMPRP ELECT VDW BOUNDARY MISC KINETIC TOTAL TEMP POTENTIAL TOTALAVG TEMPAVG PRESSURE GPRESSURE VOLUME PRESSAVG GPRESSAVG
ENERGY: 0 0.1808 0.4167 0.0000 0.0000 -10760.2541 1382.9154 0.0000 0.0000 1810.0762 -7566.6650 306.0725 -9376.7412 -7566.6650 306.0725 -636.0912 -547.8251 30737.8195 -636.0912 -547.8251
ENERGY: 300000 0.0298 3.4787 0.0000 0.0000 -10770.0873 1406.5219 0.0000 0.0000 1772.6811 -7587.3759 299.7492 -9360.0570 -7573.9220 301.6847 -428.5031 -376.7328 30606.4257 -505.5072 -429.9898
ENERGY: 600000 0.0360 1.4499 0.0000 0.0000 -10817.1017 1445.8542 0.0000 0.0000 1783.3918 -7586.3698 301.5603 -9369.7616 -7574.1749 300.2071 146.1083 225.8073 29998.2468 -442.3353 -368.5776
ENERGY: 900000 0.6287 0.6651 0.0000 0.0000 -10890.7555 1437.8496 0.0000 0.0000 1871.4614 -7580.1506 316.4524 -9451.6120 -7577.9791 300.5078 -364.9914 -260.0447 30270.6147 -352.4443 -284.7672
ENERGY: 1200000 0.0576 1.6184 0.0000 0.0000 -10711.7284 1400.0378 0.0000 0.0000 1704.9755 -7605.0392 288.3006 -9310.0146 -7587.0381 299.4695 -404.6443 -446.8011 30983.5634 -323.6750 -269.2779
ENERGY: 1500000 0.0043 0.5688 0.0000 0.0000 -10909.5659 1537.8565 0.0000 0.0000 1810.8920 -7560.2443 306.2105 -9371.1363 -7580.5086 300.1428 720.7092 693.2777 30574.9998 -239.3468 -187.3757
TCL: Running FEP window   9: Lambda1 0.5999999999999996 Lambda2 0.5499999999999996 [dLambda -0.050000000000000044]
TCL: Setting parameter firsttimestep to 0
TCL: Setting parameter alchLambda to 0.5999999999999996
Info: NONBONDED TABLE R-SQUARED SPACING: 0.0625
Info: NONBONDED TABLE SIZE: 705 POINTS
TCL: Setting parameter alchLambda2 to 0.5499999999999996
Info: NONBONDED TABLE R-SQUARED SPACING: 0.0625
Info: NONBONDED TABLE SIZE: 705 POINTS
TCL: Running for 1500000 steps
ETITLE: TS BOND ANGLE DIHED IMPRP ELECT VDW BOUNDARY MISC KINETIC TOTAL TEMP POTENTIAL TOTALAVG TEMPAVG PRESSURE GPRESSURE VOLUME PRESSAVG GPRESSAVG
ENERGY: 0 0.0043 0.5688 0.0000 0.0000 -10909.4625 1537.8050 0.0000 0.0000 1809.9823 -7561.1021 306.0566 -9371.0845 -7561.1021 306.0566 596.9488 689.1358 30574.9998 596.9488 689.1358
ENERGY: 300000 0.1475 1.6891 0.0000 0.0000 -10747.0195 1406.1213 0.0000 0.0000 1768.2993 -7570.7623 299.0083 -9339.0616 -7615.1617 301.1046 -381.2769 -335.1717 30673.2031 160.7667 240.1961
ENERGY: 600000 0.2422 3.1239 0.0000 0.0000 -11023.0974 1605.4222 0.0000 0.0000 1792.5395 -7621.7697 303.1072 -9414.3091 -7607.7925 301.6519 1105.8891 1114.5668 30380.7062 390.2158 444.5501
ENERGY: 900000 0.0307 2.1105 0.0000 0.0000 -11059.7005 1581.0905 0.0000 0.0000 1799.2186 -7677.2502 304.2366 -9476.4688 -7598.8182 302.0346 907.0708 964.4671 29987.7843 296.5915 352.7239
ENERGY: 1200000 1.2537 1.3713 0.0000 0.0000 -10676.2679 1398.5246 0.0000 0.0000 1793.9968 -7481.1215 303.3536 -9275.1183 -7584.0230 302.0648 -385.8929 -348.4028 31023.2359 149.8375 211.9928
ENERGY: 1500000 1.3274 1.8678 0.0000 0.0000 -10810.0171 1480.9970 0.0000 0.0000 1788.2658 -7537.5592 302.3845 -9325.8250 -7579.0027 301.6840 465.2271 503.2714 30509.2673 128.7249 181.3822
TCL: Running FEP window  10: Lambda1 0.5499999999999996 Lambda2 0.4999999999999996 [dLambda -0.04999999999999999]
TCL: Setting parameter firsttimestep to 0
TCL: Setting parameter alchLambda to 0.5499999999999996
Info: NONBONDED TABLE R-SQUARED SPACING: 0.0625
Info: NONBONDED TABLE SIZE: 705 POINTS
TCL: Setting parameter alchLambda2 to 0.4999999999999996
Info: NONBONDED TABLE R-SQUARED SPACING: 0.0625
Info: NONBONDED TABLE SIZE: 705 POINTS
TCL: Running for 1500000 steps
ETITLE: TS BOND ANGLE DIHED IMPRP ELECT VDW BOUNDARY MISC KINETIC TOTAL TEMP POTENTIAL TOTALAVG TEMPAVG PRESSURE GPRESSURE VOLUME PRESSAVG GPRESSAVG
ENERGY: 0 1.3274 1.8678 0.0000 0.0000 -10809.6139 1481.1822 0.0000 0.0000 1787.4479 -7537.7887 302.2462 -9325.2365 -7537.7887 302.2462 410.6562 504.2885 30509.2673 410.6562 504.2885
ENERGY: 300000 0.0004 1.1813 0.0000 0.0000 -10757.9420 1436.7664 0.0000 0.0000 1780.0144 -7539.9795 300.9892 -9319.9939 -7552.7157 301.6093 -411.8807 -387.4342 31353.2568 61.1805 99.3292
ENERGY: 600000 0.0218 0.5099 0.0000 0.0000 -10719.4996 1398.7104 0.0000 0.0000 1656.7093 -7663.5482 280.1391 -9320.2575 -7580.0453 297.1483 -728.0074 -606.5399 30921.4224 13.1143 81.2028
ENERGY: 900000 0.2272 1.3313 0.0000 0.0000 -10878.7646 1502.4285 0.0000 0.0000 1805.9324 -7568.8452 305.3718 -9374.7776 -7590.8607 297.5197 185.0928 206.3500 30868.5942 -110.7056 -44.0448
ENERGY: 1200000 1.1328 0.8828 0.0000 0.0000 -10881.6935 1525.9430 0.0000 0.0000 1797.4273 -7556.3077 303.9337 -9353.7349 -7583.3753 299.1044 391.1425 524.5047 30816.5373 12.7488 87.6990
ENERGY: 1500000 0.0410 0.9405 0.0000 0.0000 -10768.6795 1403.5813 0.0000 0.0000 1768.0729 -7596.0438 298.9700 -9364.1167 -7584.2653 299.0820 -300.7166 -198.8121 30494.0525 50.8410 123.2500
TCL: Running FEP window  11: Lambda1 0.4999999999999996 Lambda2 0.4499999999999996 [dLambda -0.04999999999999999]
TCL: Setting parameter firsttimestep to 0
TCL: Setting parameter alchLambda to 0.4999999999999996
Info: NONBONDED TABLE R-SQUARED SPACING: 0.0625
Info: NONBONDED TABLE SIZE: 705 POINTS
TCL: Setting parameter alchLambda2 to 0.4499999999999996
Info: NONBONDED TABLE R-SQUARED SPACING: 0.0625
Info: NONBONDED TABLE SIZE: 705 POINTS
TCL: Running for 1500000 steps
ETITLE: TS BOND ANGLE DIHED IMPRP ELECT VDW BOUNDARY MISC KINETIC TOTAL TEMP POTENTIAL TOTALAVG TEMPAVG PRESSURE GPRESSURE VOLUME PRESSAVG GPRESSAVG
ENERGY: 0 0.0410 0.9405 0.0000 0.0000 -10768.4299 1402.7530 0.0000 0.0000 1767.1890 -7597.5065 298.8206 -9364.6955 -7597.5065 298.8206 -294.9661 -209.7192 30494.0525 -294.9661 -209.7192
ENERGY: 300000 0.0866 1.3942 0.0000 0.0000 -10870.4763 1537.4344 0.0000 0.0000 1809.9828 -7521.5784 306.0567 -9331.5612 -7545.5030 301.1222 494.9503 640.1759 30954.8123 31.9391 127.5413
ENERGY: 600000 0.0014 2.4367 0.0000 0.0000 -10922.9133 1509.9446 0.0000 0.0000 1784.1963 -7626.3343 301.6964 -9410.5306 -7556.0663 301.4578 326.0753 340.6882 30601.8186 31.2746 103.0698
ENERGY: 900000 0.0004 1.0207 0.0000 0.0000 -10830.4609 1456.9266 0.0000 0.0000 1776.6683 -7595.8449 300.4234 -9372.5132 -7560.3651 300.5078 -223.0204 -150.1904 31084.7408 2.7353 70.8723
ENERGY: 1200000 1.1202 1.1024 0.0000 0.0000 -10719.6940 1368.3237 0.0000 0.0000 1730.4557 -7618.6920 292.6092 -9349.1477 -7567.9407 300.2562 -896.3715 -853.0588 31244.0001 -40.5891 25.4250
ENERGY: 1500000 0.0181 2.6136 0.0000 0.0000 -10720.6109 1411.8749 0.0000 0.0000 1800.6212 -7505.4831 304.4737 -9306.1043 -7570.3965 300.2574 -267.6590 -231.3944 31019.7983 -3.9515 58.9928
TCL: Running FEP window  12: Lambda1 0.4499999999999996 Lambda2 0.39999999999999963 [dLambda -0.04999999999999999]
TCL: Setting parameter firsttimestep to 0
TCL: Setting parameter alchLambda to 0.4499999999999996
Info: NONBONDED TABLE R-SQUARED SPACING: 0.0625
Info: NONBONDED TABLE SIZE: 705 POINTS
TCL: Setting parameter alchLambda2 to 0.39999999999999963
Info: NONBONDED TABLE R-SQUARED SPACING: 0.0625
Info: NONBONDED TABLE SIZE: 705 POINTS
TCL: Running for 1500000 steps
ETITLE: TS BOND ANGLE DIHED IMPRP ELECT VDW BOUNDARY MISC KINETIC TOTAL TEMP POTENTIAL TOTALAVG TEMPAVG PRESSURE GPRESSURE VOLUME PRESSAVG GPRESSAVG
ENERGY: 0 0.0181 2.6136 0.0000 0.0000 -10720.6100 1411.9259 0.0000 0.0000 1799.7731 -7506.2793 304.3303 -9306.0524 -7506.2793 304.3303 -308.2467 -231.3821 31019.7983 -308.2467 -231.3821
ENERGY: 300000 0.0141 4.8176 0.0000 0.0000 -10733.0714 1420.6133 0.0000 0.0000 1725.3530 -7582.2734 291.7463 -9307.6264 -7548.5579 300.5877 149.0727 227.7078 30148.8133 -16.1435 59.6447
ENERGY: 600000 0.0734 1.5314 0.0000 0.0000 -10894.4347 1497.8774 0.0000 0.0000 1800.7660 -7594.1866 304.4982 -9394.9525 -7565.7990 300.3150 136.8377 279.2879 30627.8169 63.0964 139.3377
ENERGY: 900000 0.1058 3.0436 0.0000 0.0000 -10770.3923 1433.4564 0.0000 0.0000 1793.7370 -7540.0495 303.3097 -9333.7865 -7564.7756 301.3346 -74.2524 13.9473 30635.6671 45.8173 115.1999
ENERGY: 1200000 0.1013 1.9606 0.0000 0.0000 -10942.0941 1526.6081 0.0000 0.0000 1742.6751 -7670.7490 294.6754 -9413.4241 -7583.7150 300.8026 347.4043 427.5209 30134.6118 5.1686 78.4397
ENERGY: 1500000 0.0733 1.7269 0.0000 0.0000 -10743.4271 1456.1690 0.0000 0.0000 1768.8338 -7516.6241 299.0987 -9285.4579 -7576.4012 300.5878 119.7237 199.4114 30817.2628 36.7070 108.6347
TCL: Running FEP window  13: Lambda1 0.39999999999999963 Lambda2 0.34999999999999964 [dLambda -0.04999999999999999]
TCL: Setting parameter firsttimestep to 0
TCL: Setting parameter alchLambda to 0.39999999999999963
Info: NONBONDED TABLE R-SQUARED SPACING: 0.0625
Info: NONBONDED TABLE SIZE: 705 POINTS
TCL: Setting parameter alchLambda2 to 0.34999999999999964
Info: NONBONDED TABLE R-SQUARED SPACING: 0.0625
Info: NONBONDED TABLE SIZE: 705 POINTS
TCL: Running for 1500000 steps
ETITLE: TS BOND ANGLE DIHED IMPRP ELECT VDW BOUNDARY MISC KINETIC TOTAL TEMP POTENTIAL TOTALAVG TEMPAVG PRESSURE GPRESSURE VOLUME PRESSAVG GPRESSAVG
ENERGY: 0 0.0733 1.7269 0.0000 0.0000 -10743.4275 1454.2804 0.0000 0.0000 1767.9429 -7519.4040 298.9480 -9287.3469 -7519.4040 298.9480 94.5628 187.1456 30817.2628 94.5628 187.1456
ENERGY: 300000 0.5806 1.9895 0.0000 0.0000 -10653.5747 1354.1490 0.0000 0.0000 1807.0751 -7489.7804 305.5650 -9296.8555 -7537.1161 302.5868 -739.7549 -684.4057 30893.8559 -297.1687 -205.2143
ENERGY: 600000 0.1546 1.5748 0.0000 0.0000 -10874.8941 1518.4601 0.0000 0.0000 1785.3791 -7569.3255 301.8964 -9354.7046 -7568.7486 300.8714 505.0255 596.4175 30560.5900 -116.0501 -32.3814
ENERGY: 900000 0.0314 0.7858 0.0000 0.0000 -10779.5517 1380.5658 0.0000 0.0000 1737.8782 -7660.2905 293.8643 -9398.1686 -7574.9402 300.5822 -781.2574 -720.5903 30567.6780 -178.4490 -91.0426
ENERGY: 1200000 0.0576 2.7755 0.0000 0.0000 -10848.6426 1436.8592 0.0000 0.0000 1796.0510 -7612.8992 303.7009 -9408.9502 -7576.5829 301.3091 -279.2107 -195.5401 30398.9678 -93.4146 -15.1676
ENERGY: 1500000 0.0121 2.3777 0.0000 0.0000 -10891.0172 1506.1586 0.0000 0.0000 1773.0001 -7609.4686 299.8032 -9382.4688 -7580.4088 299.9766 357.4554 362.9104 30359.4180 -80.3293 -11.3960
TCL: Running FEP window  14: Lambda1 0.34999999999999964 Lambda2 0.29999999999999966 [dLambda -0.04999999999999999]
TCL: Setting parameter firsttimestep to 0
TCL: Setting parameter alchLambda to 0.34999999999999964
Info: NONBONDED TABLE R-SQUARED SPACING: 0.0625
Info: NONBONDED TABLE SIZE: 705 POINTS
TCL: Setting parameter alchLambda2 to 0.29999999999999966
Info: NONBONDED TABLE R-SQUARED SPACING: 0.0625
Info: NONBONDED TABLE SIZE: 705 POINTS
TCL: Running for 1500000 steps
ETITLE: TS BOND ANGLE DIHED IMPRP ELECT VDW BOUNDARY MISC KINETIC TOTAL TEMP POTENTIAL TOTALAVG TEMPAVG PRESSURE GPRESSURE VOLUME PRESSAVG GPRESSAVG
ENERGY: 0 0.0121 2.3777 0.0000 0.0000 -10891.0173 1506.1634 0.0000 0.0000 1772.1055 -7610.3586 299.6519 -9382.4641 -7610.3586 299.6519 286.1293 360.1302 30359.4180 286.1293 360.1302
ENERGY: 300000 0.5496 1.4311 0.0000 0.0000 -10769.6625 1452.2794 0.0000 0.0000 1761.7540 -7553.6484 297.9015 -9315.4024 -7576.6029 298.5277 245.3635 369.6011 30415.9007 183.8557 265.4133
ENERGY: 600000 0.2117 0.4500 0.0000 0.0000 -10826.1987 1437.2552 0.0000 0.0000 1828.4049 -7559.8770 309.1718 -9388.2819 -7573.3137 300.6481 -373.2465 -274.4312 30636.7114 -48.6451 30.1986
ENERGY: 900000 0.0151 1.4242 0.0000 0.0000 -10726.3903 1331.7997 0.0000 0.0000 1817.4007 -7575.7506 307.3110 -9393.1513 -7577.2701 301.9980 -1029.4570 -937.2100 30469.1150 -147.7046 -67.2578
ENERGY: 1200000 0.0501 1.8845 0.0000 0.0000 -10645.9616 1332.7028 0.0000 0.0000 1799.2750 -7512.0491 304.2461 -9311.3241 -7569.9943 301.5895 -821.9640 -805.3472 30833.4149 -109.7427 -38.2681
ENERGY: 1500000 0.6036 1.7992 0.0000 0.0000 -10842.8991 1439.3086 0.0000 0.0000 1748.1636 -7653.0241 295.6035 -9401.1876 -7575.2314 301.5218 -291.9658 -216.6254 30595.0092 -91.9895 -22.5964
TCL: Running FEP window  15: Lambda1 0.29999999999999966 Lambda2 0.24999999999999967 [dLambda -0.04999999999999999]
TCL: Setting parameter firsttimestep to 0
TCL: Setting parameter alchLambda to 0.29999999999999966
Info: NONBONDED TABLE R-SQUARED SPACING: 0.0625
Info: NONBONDED TABLE SIZE: 705 POINTS
TCL: Setting parameter alchLambda2 to 0.24999999999999967
Info: NONBONDED TABLE R-SQUARED SPACING: 0.0625
Info: NONBONDED TABLE SIZE: 705 POINTS
TCL: Running for 1500000 steps
ETITLE: TS BOND ANGLE DIHED IMPRP ELECT VDW BOUNDARY MISC KINETIC TOTAL TEMP POTENTIAL TOTALAVG TEMPAVG PRESSURE GPRESSURE VOLUME PRESSAVG GPRESSAVG
ENERGY: 0 0.6036 1.7992 0.0000 0.0000 -10842.8999 1439.4012 0.0000 0.0000 1747.2752 -7653.8207 295.4533 -9401.0959 -7653.8207 295.4533 -293.4698 -218.3296 30595.0092 -293.4698 -218.3296
ENERGY: 300000 0.3488 0.9830 0.0000 0.0000 -10849.7418 1429.4397 0.0000 0.0000 1802.0699 -7616.9004 304.7187 -9418.9703 -7599.7234 302.2997 -517.2032 -462.1008 30669.0158 -405.3761 -328.0212
ENERGY: 600000 0.2708 1.5338 0.0000 0.0000 -10798.7022 1419.8678 0.0000 0.0000 1788.0459 -7588.9838 302.3473 -9377.0297 -7570.0056 303.7754 -350.5036 -296.7729 30414.6186 -211.7616 -153.1078
ENERGY: 900000 0.4202 1.0052 0.0000 0.0000 -10743.6066 1424.1730 0.0000 0.0000 1828.9091 -7489.0992 309.2570 -9318.0083 -7580.5448 302.8356 -112.3041 -63.0834 30551.6274 -121.1905 -60.1658
ENERGY: 1200000 0.5610 3.2031 0.0000 0.0000 -10737.8931 1409.2180 0.0000 0.0000 1798.4334 -7526.4775 304.1038 -9324.9110 -7569.7959 303.0217 -640.7333 -602.1036 31243.3142 -169.2087 -111.5750
ENERGY: 1500000 0.0600 2.1579 0.0000 0.0000 -10816.9022 1514.8020 0.0000 0.0000 1779.3201 -7520.5622 300.8718 -9299.8823 -7565.5829 301.8532 627.8225 662.1334 30488.6759 -173.4552 -117.1944
TCL: Running FEP window  16: Lambda1 0.24999999999999967 Lambda2 0.19999999999999968 [dLambda -0.04999999999999999]
TCL: Setting parameter firsttimestep to 0
TCL: Setting parameter alchLambda to 0.24999999999999967
Info: NONBONDED TABLE R-SQUARED SPACING: 0.0625
Info: NONBONDED TABLE SIZE: 705 POINTS
TCL: Setting parameter alchLambda2 to 0.19999999999999968
Info: NONBONDED TABLE R-SQUARED SPACING: 0.0625
Info: NONBONDED TABLE SIZE: 705 POINTS
TCL: Running for 1500000 steps
ETITLE: TS BOND ANGLE DIHED IMPRP ELECT VDW BOUNDARY MISC KINETIC TOTAL TEMP POTENTIAL TOTALAVG TEMPAVG PRESSURE GPRESSURE VOLUME PRESSAVG GPRESSAVG
ENERGY: 0 0.0600 2.1579 0.0000 0.0000 -10816.9017 1514.7144 0.0000 0.0000 1778.4069 -7521.5625 300.7174 -9299.9694 -7521.5625 300.7174 590.5725 660.1026 30488.6759 590.5725 660.1026
ENERGY: 300000 0.0035 1.2131 0.0000 0.0000 -10911.4329 1498.9031 0.0000 0.0000 1802.6377 -7608.6755 304.8147 -9411.3132 -7549.7563 302.7236 469.6753 433.6494 30442.9168 66.9637 115.0488
ENERGY: 600000 0.0440 0.5563 0.0000 0.0000 -10769.5763 1464.0902 0.0000 0.0000 1810.9739 -7493.9119 306.2243 -9304.8858 -7538.2738 303.5780 74.0939 82.2170 31050.1590 99.5665 149.0361
ENERGY: 900000 0.0689 0.9680 0.0000 0.0000 -10835.3993 1439.3757 0.0000 0.0000 1815.1753 -7579.8114 306.9347 -9394.9867 -7557.9479 303.6144 -288.9152 -198.1202 30480.4167 46.9575 97.3763
ENERGY: 1200000 0.2746 0.6574 0.0000 0.0000 -10933.3441 1500.1637 0.0000 0.0000 1738.4300 -7693.8184 293.9576 -9432.2484 -7567.0392 303.1242 242.8004 338.8981 30080.3244 145.5292 201.6868
ENERGY: 1500000 0.5485 0.5767 0.0000 0.0000 -10737.7106 1498.8165 0.0000 0.0000 1758.7448 -7479.0241 297.3927 -9237.7689 -7562.2167 302.2833 399.1341 531.5685 30975.1564 148.6691 213.7084
TCL: Running FEP window  17: Lambda1 0.19999999999999968 Lambda2 0.1499999999999997 [dLambda -0.04999999999999999]
TCL: Setting parameter firsttimestep to 0
TCL: Setting parameter alchLambda to 0.19999999999999968
Info: NONBONDED TABLE R-SQUARED SPACING: 0.0625
Info: NONBONDED TABLE SIZE: 705 POINTS
TCL: Setting parameter alchLambda2 to 0.1499999999999997
Info: NONBONDED TABLE R-SQUARED SPACING: 0.0625
Info: NONBONDED TABLE SIZE: 705 POINTS
TCL: Running for 1500000 steps
ETITLE: TS BOND ANGLE DIHED IMPRP ELECT VDW BOUNDARY MISC KINETIC TOTAL TEMP POTENTIAL TOTALAVG TEMPAVG PRESSURE GPRESSURE VOLUME PRESSAVG GPRESSAVG
ENERGY: 0 0.5485 0.5767 0.0000 0.0000 -10737.7106 1498.8521 0.0000 0.0000 1757.8665 -7479.8668 297.2442 -9237.7333 -7479.8668 297.2442 437.6531 528.8232 30975.1564 437.6531 528.8232
ENERGY: 300000 0.0383 0.7596 0.0000 0.0000 -10755.9740 1369.0959 0.0000 0.0000 1775.1977 -7610.8826 300.1748 -9386.0803 -7520.6600 303.9339 -588.9999 -580.3059 30428.7015 78.8460 124.3138
ENERGY: 600000 0.3567 1.4212 0.0000 0.0000 -10842.9537 1473.3373 0.0000 0.0000 1813.8120 -7554.0264 306.7042 -9367.8384 -7564.8006 302.3561 231.5066 288.3875 30309.0088 194.4656 234.8434
ENERGY: 900000 0.2208 2.3689 0.0000 0.0000 -10867.6800 1449.9837 0.0000 0.0000 1748.5202 -7666.5864 295.6638 -9415.1066 -7562.3073 302.4513 -335.1347 -175.2519 30464.1250 -20.1935 26.3590
ENERGY: 1200000 0.2363 1.4644 0.0000 0.0000 -10775.9842 1396.7500 0.0000 0.0000 1771.0242 -7606.5094 299.4691 -9377.5336 -7568.2829 301.3237 -558.7774 -443.6385 30647.7888 -70.7406 -23.9034
ENERGY: 1500000 0.0839 1.9066 0.0000 0.0000 -10820.4665 1453.9699 0.0000 0.0000 1803.8471 -7560.6591 305.0192 -9364.5062 -7567.7221 301.5692 -17.5975 39.5655 30455.8895 -80.6765 -29.2728
TCL: Running FEP window  18: Lambda1 0.1499999999999997 Lambda2 0.09999999999999969 [dLambda -0.05 ]
TCL: Setting parameter firsttimestep to 0
TCL: Setting parameter alchLambda to 0.1499999999999997
Info: NONBONDED TABLE R-SQUARED SPACING: 0.0625
Info: NONBONDED TABLE SIZE: 705 POINTS
TCL: Setting parameter alchLambda2 to 0.09999999999999969
Info: NONBONDED TABLE R-SQUARED SPACING: 0.0625
Info: NONBONDED TABLE SIZE: 705 POINTS
TCL: Running for 1500000 steps
ETITLE: TS BOND ANGLE DIHED IMPRP ELECT VDW BOUNDARY MISC KINETIC TOTAL TEMP POTENTIAL TOTALAVG TEMPAVG PRESSURE GPRESSURE VOLUME PRESSAVG GPRESSAVG
ENERGY: 0 0.0839 1.9066 0.0000 0.0000 -10820.4661 1454.0119 0.0000 0.0000 1802.9439 -7561.5199 304.8665 -9364.4638 -7561.5199 304.8665 -32.8541 39.5429 30455.8895 -32.8541 39.5429
ENERGY: 300000 0.1196 1.7939 0.0000 0.0000 -10656.0734 1396.9400 0.0000 0.0000 1730.4416 -7526.7783 292.6068 -9257.2199 -7546.0238 303.8517 -390.2999 -331.4700 30909.5381 -145.7993 -80.6431
ENERGY: 600000 0.0039 1.0095 0.0000 0.0000 -10869.6439 1525.3225 0.0000 0.0000 1751.5009 -7591.8072 296.1678 -9343.3081 -7559.1492 303.1273 306.1559 370.9865 30887.8819 5.2647 67.9334
ENERGY: 900000 0.2067 1.2052 0.0000 0.0000 -10738.7323 1411.6252 0.0000 0.0000 1734.1163 -7591.5790 293.2282 -9325.6953 -7567.9502 302.2823 -384.0188 -360.2198 30763.3834 -93.0165 -32.4768
ENERGY: 1200000 0.2899 0.9667 0.0000 0.0000 -10952.5911 1511.5654 0.0000 0.0000 1805.2396 -7634.5294 305.2547 -9439.7690 -7584.4912 301.5923 301.1004 326.7719 30519.2907 -24.0388 39.2862
ENERGY: 1500000 0.0154 1.3505 0.0000 0.0000 -10767.4347 1421.4464 0.0000 0.0000 1772.1887 -7572.4337 299.6660 -9344.6224 -7587.8324 301.2442 -241.7006 -204.6333 30529.1757 -31.3271 29.6485
TCL: Running FEP window  19: Lambda1 0.09999999999999969 Lambda2 0.049999999999999684 [dLambda -0.05 ]
TCL: Setting parameter firsttimestep to 0
TCL: Setting parameter alchLambda to 0.09999999999999969
Info: NONBONDED TABLE R-SQUARED SPACING: 0.0625
Info: NONBONDED TABLE SIZE: 705 POINTS
TCL: Setting parameter alchLambda2 to 0.049999999999999684
Info: NONBONDED TABLE R-SQUARED SPACING: 0.0625
Info: NONBONDED TABLE SIZE: 705 POINTS
TCL: Running for 1500000 steps
ETITLE: TS BOND ANGLE DIHED IMPRP ELECT VDW BOUNDARY MISC KINETIC TOTAL TEMP POTENTIAL TOTALAVG TEMPAVG PRESSURE GPRESSURE VOLUME PRESSAVG GPRESSAVG
ENERGY: 0 0.0154 1.3505 0.0000 0.0000 -10767.4346 1421.5972 0.0000 0.0000 1771.3395 -7573.1320 299.5224 -9344.4715 -7573.1320 299.5224 -295.4646 -207.3691 30529.1757 -295.4646 -207.3691
ENERGY: 300000 0.5543 0.4048 0.0000 0.0000 -10813.6758 1481.9538 0.0000 0.0000 1720.7240 -7610.0388 290.9636 -9330.7628 -7585.3909 301.7127 295.3592 340.4528 30249.1330 153.4932 205.5102
ENERGY: 600000 0.4146 1.1982 0.0000 0.0000 -10767.0441 1407.6188 0.0000 0.0000 1745.3685 -7612.4440 295.1308 -9357.8125 -7589.6873 300.3099 -587.6635 -435.7950 30693.8056 -55.8419 25.4121
ENERGY: 900000 0.0788 2.3272 0.0000 0.0000 -10814.0717 1464.7730 0.0000 0.0000 1794.0746 -7552.8181 303.3667 -9346.8928 -7590.8049 299.3768 -122.3350 -46.5168 30843.0568 -113.6844 -26.1767
ENERGY: 1200000 0.0147 0.9728 0.0000 0.0000 -10912.2790 1521.7261 0.0000 0.0000 1794.6890 -7594.8764 303.4706 -9389.5654 -7595.2801 299.4283 359.8673 440.0002 30374.6535 -62.3169 23.0711
ENERGY: 1500000 0.9036 2.4635 0.0000 0.0000 -10896.8712 1519.4647 0.0000 0.0000 1737.9356 -7636.1038 293.8740 -9374.0394 -7604.5689 299.1568 399.3685 523.7799 30297.8919 -21.9459 65.1153
TCL: Running FEP window  20: Lambda1 0.049999999999999684 Lambda2 0.0    [dLambda -0.049999999999999684]
TCL: Setting parameter firsttimestep to 0
TCL: Setting parameter alchLambda to 0.049999999999999684
Info: NONBONDED TABLE R-SQUARED SPACING: 0.0625
Info: NONBONDED TABLE SIZE: 705 POINTS
TCL: Setting parameter alchLambda2 to 0.0
Info: NONBONDED TABLE R-SQUARED SPACING: 0.0625
Info: NONBONDED TABLE SIZE: 705 POINTS
TCL: Running for 1500000 steps
ETITLE: TS BOND ANGLE DIHED IMPRP ELECT VDW BOUNDARY MISC KINETIC TOTAL TEMP POTENTIAL TOTALAVG TEMPAVG PRESSURE GPRESSURE VOLUME PRESSAVG GPRESSAVG
ENERGY: 0 0.9036 2.4635 0.0000 0.0000 -10896.8699 1518.8435 0.0000 0.0000 1737.0737 -7637.5855 293.7282 -9374.6593 -7637.5855 293.7282 431.9942 523.3766 30297.8919 431.9942 523.3766
ENERGY: 300000 0.1099 1.9922 0.0000 0.0000 -10784.1240 1418.4494 0.0000 0.0000 1767.9792 -7595.5932 298.9542 -9363.5724 -7574.8335 299.2825 -406.4862 -398.9528 30831.9568 -447.3830 -383.6079
ENERGY: 600000 0.2023 2.1333 0.0000 0.0000 -10968.4120 1553.1471 0.0000 0.0000 1798.9490 -7613.9802 304.1910 -9412.9293 -7587.6256 299.5527 654.9408 662.0558 30310.3019 -260.3454 -213.6301
ENERGY: 900000 0.4088 2.5585 0.0000 0.0000 -10781.2081 1424.1380 0.0000 0.0000 1785.0379 -7569.0650 301.8387 -9354.1029 -7575.6711 300.9622 -163.3083 -66.4019 30367.8275 -106.7134 -49.6672
ENERGY: 1200000 0.3652 0.4704 0.0000 0.0000 -10740.4814 1393.6999 0.0000 0.0000 1754.4219 -7591.5240 296.6617 -9345.9459 -7572.3918 301.1653 -633.7619 -633.7009 30906.6328 -188.4508 -133.5940
ENERGY: 1500000 0.0006 1.2545 0.0000 0.0000 -10816.3915 1472.6185 0.0000 0.0000 1795.8391 -7546.6789 303.6651 -9342.5180 -7573.1630 300.6832 150.5511 255.3931 30465.3715 -181.4500 -121.0845
TCL: Exiting due to exit command.
