Info: SIMULATION PARAMETERS:
Info: TIMESTEP               2
Info: NUMBER OF STEPS        0
Info: STEPS PER CYCLE        10
Info: PERIODIC CELL BASIS 1  41.545 0 0
Info: PERIODIC CELL BASIS 2  0 33.404 0
Info: PERIODIC CELL BASIS 3  0 0 31.349
Info: PERIODIC CELL CENTER   0 0 0
Info: WRAPPING WATERS AROUND PERIODIC BOUNDARIES ON OUTPUT.
Info: WRAPPING ALL CLUSTERS AROUND PERIODIC BOUNDARIES ON OUTPUT.
Info: FIRST LDB TIMESTEP     50
Info: LAST LDB TIMESTEP     -1
Info: HOM BACKGROUND SCALING 1
Info: PME BACKGROUND SCALING 1
Info: MIN ATOMS PER PATCH    40
Info: EMPTY PATCH LOAD       40 ATOMS
Info: INITIAL TEMPERATURE    300
Info: CENTER OF MASS MOVING INITIALLY? NO
Info: DIELECTRIC             1
Info: EXCLUDE                SCALED ONE-FOUR
Info: 1-4 ELECTROSTATICS SCALED BY 0.833333
Info: MODIFIED 1-4 VDW PARAMETERS WILL BE USED
Info: DCD FILENAME           mobley_7375018_equil.dcd
Info: DCD FREQUENCY          100000
Info: DCD FIRST STEP         100000
Info: DCD FILE WILL CONTAIN UNIT CELL DATA
Info: XST FILENAME           mobley_7375018_equil.xst
Info: XST FREQUENCY          100000
Info: NO VELOCITY DCD OUTPUT
Info: NO FORCE DCD OUTPUT
Info: OUTPUT FILENAME        mobley_7375018_equil
Info: BINARY OUTPUT FILES WILL BE USED
Info: RESTART FILENAME       mobley_7375018_equil.restart
Info: RESTART FREQUENCY      100000
Info: BINARY RESTART FILES WILL BE USED
Info: CUTOFF                 9
Info: PAIRLIST DISTANCE      11
Info: PAIRLIST SHRINK RATE   0.01
Info: PAIRLIST GROW RATE     0.01
Info: PAIRLIST TRIGGER       0.3
Info: PAIRLISTS PER CYCLE    2
Info: PAIRLISTS ENABLED
Info: MARGIN                 8
Info: HYDROGEN GROUP CUTOFF  2.5
Info: PATCH DIMENSION        21.5
Info: ENERGY OUTPUT STEPS    100000
Info: ENERGY EVALUATION STEPS    100000
Info: OUTPUT ENERGY PRECISION 4
Info: CROSSTERM ENERGY INCLUDED IN DIHEDRAL
Info: TIMING OUTPUT STEPS    1000000
Info: PRESSURE OUTPUT STEPS  100000
Info: LANGEVIN DYNAMICS ACTIVE
Info: LANGEVIN TEMPERATURE   30
Info: LANGEVIN USING BBK INTEGRATOR
Info: LANGEVIN DAMPING COEFFICIENT IS 1 INVERSE PS
Info: LANGEVIN DYNAMICS APPLIED TO HYDROGENS
Info: LANGEVIN PISTON PRESSURE CONTROL ACTIVE
Info:        TARGET PRESSURE IS 1.01325 BAR
Info:     OSCILLATION PERIOD IS 50 FS
Info:             DECAY TIME IS 25 FS
Info:     PISTON TEMPERATURE IS 300 K
Info:       PRESSURE CONTROL IS GROUP-BASED
Info:    INITIAL STRAIN RATE IS 0 0 0
Info:       CELL FLUCTUATION IS ISOTROPIC
Info: PARTICLE MESH EWALD (PME) ACTIVE
Info: PME TOLERANCE               1e-06
Info: PME EWALD COEFFICIENT       0.348832
Info: PME INTERPOLATION ORDER     4
Info: PME GRID DIMENSIONS         44 36 32
Info: PME MAXIMUM GRID SPACING    1
Info: FULL ELECTROSTATIC EVALUATION FREQUENCY      2
Info: USING VERLET I (r-RESPA) MTS SCHEME.
Info: C1 SPLITTING OF LONG RANGE ELECTROSTATICS
Info: PLACING ATOMS IN PATCHES BY HYDROGEN GROUPS
Info: RIGID BONDS TO HYDROGEN : ALL
Info:         ERROR TOLERANCE : 1e-08
Info:          MAX ITERATIONS : 100
Info: RIGID WATER USING SETTLE ALGORITHM
Info: RANDOM NUMBER SEED     1743264893
Info: USE HYDROGEN BONDS?    NO
Info: Using AMBER format force field!
Info: AMBER PARM FILE        mobley_7375018.prmtop
Info: COORDINATE PDB         mobley_7375018.pdb
Info: Exclusions will be read from PARM file!
Info: SCNB (VDW SCALING)     2
Info: USING ARITHMETIC MEAN TO COMBINE L-J SIGMA PARAMETERS
Info: BINARY COORDINATES     mobley_7375018_min.coor
Info: SUMMARY OF PARAMETERS:
Info: 6 BONDS
Info: 7 ANGLES
Info:   7 HARMONIC
Info:   0 COSINE-BASED
Info: 11 DIHEDRAL
Info: 0 IMPROPER
Info: 0 CROSSTERM
Info: 0 VDW
Info: 21 VDW_PAIRS
Info: 0 NBTHOLE_PAIRS
Info: STRUCTURE SUMMARY:
Info: 2923 ATOMS
Info: 2922 BONDS
Info: 63 ANGLES
Info: 107 DIHEDRALS
Info: 0 IMPROPERS
Info: 0 CROSSTERMS
Info: 3069 EXCLUSIONS
Info: 2911 RIGID BONDS
Info: 5858 DEGREES OF FREEDOM
Info: 975 HYDROGEN GROUPS
Info: 4 ATOMS IN LARGEST HYDROGEN GROUP
Info: 975 MIGRATION GROUPS
Info: 4 ATOMS IN LARGEST MIGRATION GROUP
Info: TOTAL MASS = 17519.7 amu
Info: TOTAL CHARGE = -0.000299994 e
Info: MASS DENSITY = 0.668721 g/cm^3
Info: ATOM DENSITY = 0.0671874 atoms/A^3
Info: ADDED 0 IMPLICIT EXCLUSIONS
Info: NONBONDED TABLE R-SQUARED SPACING: 0.0625
Info: NONBONDED TABLE SIZE: 705 POINTS
Info: REMOVING COM VELOCITY -0.0485788 -0.107297 -0.166114
TCL: Running for 100000 steps
ETITLE: TS BOND ANGLE DIHED IMPRP ELECT VDW BOUNDARY MISC KINETIC TOTAL TEMP POTENTIAL TOTAL3 TEMPAVG PRESSURE GPRESSURE VOLUME PRESSAVG GPRESSAVG
ENERGY: 0 0.1194 0.6237 6.6081 0.0000 -13402.5759 2325.0896 0.0000 0.0000 1793.4171 -9276.7179 308.1217 -11070.1350 -9276.3537 308.1217 186.3250 221.4751 43505.1760 186.3250 221.4751
ENERGY: 100000 0.5433 2.5808 6.1405 0.0000 -13994.1942 2461.7986 0.0000 0.0000 176.0491 -11347.0820 30.2465 -11523.1311 -11346.4125 30.9323 105.8792 160.8192 29762.0496 4.0275 3.9547
TCL: Running 100000 steps at 60 kelvin.
TCL: Setting parameter langevinTemp to 60
TCL: Running for 100000 steps
ETITLE: TS BOND ANGLE DIHED IMPRP ELECT VDW BOUNDARY MISC KINETIC TOTAL TEMP POTENTIAL TOTAL3 TEMPAVG PRESSURE GPRESSURE VOLUME PRESSAVG GPRESSAVG
ENERGY: 100000 0.5433 2.5808 6.1405 0.0000 -13994.1942 2461.7986 0.0000 0.0000 175.9643 -11347.1668 30.2319 -11523.1311 -11346.6331 30.2319 104.7402 160.9800 29762.0496 104.7402 160.9800
ENERGY: 200000 0.7807 3.7348 7.1574 0.0000 -13839.0229 2374.3813 0.0000 0.0000 358.4243 -11094.5445 61.5798 -11452.9688 -11093.5101 60.1298 -172.1317 -117.1154 29568.1159 5.2219 5.1943
TCL: Running 100000 steps at 90 kelvin.
TCL: Setting parameter langevinTemp to 90
TCL: Running for 100000 steps
ETITLE: TS BOND ANGLE DIHED IMPRP ELECT VDW BOUNDARY MISC KINETIC TOTAL TEMP POTENTIAL TOTAL3 TEMPAVG PRESSURE GPRESSURE VOLUME PRESSAVG GPRESSAVG
ENERGY: 200000 0.7807 3.7348 7.1574 0.0000 -13839.0229 2374.3813 0.0000 0.0000 358.2543 -11094.7145 61.5506 -11452.9688 -11093.6999 61.5506 -162.2602 -117.2476 29568.1159 -162.2602 -117.2476
ENERGY: 300000 1.3046 7.6212 7.7666 0.0000 -13614.6299 2283.4958 0.0000 0.0000 530.3139 -10784.1277 91.1117 -11314.4416 -10782.8525 89.9568 -342.2118 -282.5746 29252.4101 3.0947 3.1519
TCL: Running 100000 steps at 120 kelvin.
TCL: Setting parameter langevinTemp to 120
TCL: Running for 100000 steps
ETITLE: TS BOND ANGLE DIHED IMPRP ELECT VDW BOUNDARY MISC KINETIC TOTAL TEMP POTENTIAL TOTAL3 TEMPAVG PRESSURE GPRESSURE VOLUME PRESSAVG GPRESSAVG
ENERGY: 300000 1.3046 7.6212 7.7666 0.0000 -13614.6299 2283.4958 0.0000 0.0000 530.0572 -10784.3844 91.0676 -11314.4416 -10783.1817 91.0676 -341.9584 -282.9280 29252.4101 -341.9584 -282.9280
ENERGY: 400000 0.3157 5.5273 8.1654 0.0000 -13514.9171 2260.8741 0.0000 0.0000 716.6025 -10523.4320 123.1174 -11240.0345 -10521.7843 119.7851 -128.6993 -131.1506 29223.6542 4.9890 4.9002
TCL: Running 100000 steps at 150 kelvin.
TCL: Setting parameter langevinTemp to 150
TCL: Running for 100000 steps
ETITLE: TS BOND ANGLE DIHED IMPRP ELECT VDW BOUNDARY MISC KINETIC TOTAL TEMP POTENTIAL TOTAL3 TEMPAVG PRESSURE GPRESSURE VOLUME PRESSAVG GPRESSAVG
ENERGY: 400000 0.3157 5.5273 8.1654 0.0000 -13514.9171 2260.8741 0.0000 0.0000 716.2632 -10523.7713 123.0591 -11240.0345 -10521.9142 123.0591 -179.5342 -132.3901 29223.6542 -179.5342 -132.3901
ENERGY: 500000 1.8199 10.0203 8.1045 0.0000 -13163.1175 2080.0481 0.0000 0.0000 877.4283 -10185.6964 150.7484 -11063.1247 -10182.8293 149.7968 -984.8761 -909.9883 28808.1613 3.9300 3.8435
TCL: Running 100000 steps at 180 kelvin.
TCL: Setting parameter langevinTemp to 180
TCL: Running for 100000 steps
ETITLE: TS BOND ANGLE DIHED IMPRP ELECT VDW BOUNDARY MISC KINETIC TOTAL TEMP POTENTIAL TOTAL3 TEMPAVG PRESSURE GPRESSURE VOLUME PRESSAVG GPRESSAVG
ENERGY: 500000 1.8199 10.0203 8.1045 0.0000 -13163.1175 2080.0481 0.0000 0.0000 876.9963 -10186.1284 150.6742 -11063.1247 -10183.9019 150.6742 -959.0926 -910.2141 28808.1613 -959.0926 -910.2141
ENERGY: 600000 2.2488 7.5048 9.1561 0.0000 -12940.1192 2102.0200 0.0000 0.0000 1057.9153 -9761.2741 181.7573 -10819.1895 -9758.9351 180.3562 105.9105 255.7589 28386.7555 4.9271 4.8917
TCL: Running 100000 steps at 210 kelvin.
TCL: Setting parameter langevinTemp to 210
TCL: Running for 100000 steps
ETITLE: TS BOND ANGLE DIHED IMPRP ELECT VDW BOUNDARY MISC KINETIC TOTAL TEMP POTENTIAL TOTAL3 TEMPAVG PRESSURE GPRESSURE VOLUME PRESSAVG GPRESSAVG
ENERGY: 600000 2.2488 7.5048 9.1561 0.0000 -12940.1192 2102.0200 0.0000 0.0000 1057.3953 -9761.7941 181.6680 -10819.1895 -9760.1570 181.6680 197.1978 256.3827 28386.7555 197.1978 256.3827
ENERGY: 700000 2.9092 14.2984 7.7823 0.0000 -12158.5140 1876.4062 0.0000 0.0000 1225.6680 -9031.4499 210.5784 -10257.1180 -9028.5548 209.8596 419.6341 527.9116 28529.2540 3.6129 3.6056
TCL: Running 100000 steps at 240 kelvin.
TCL: Setting parameter langevinTemp to 240
TCL: Running for 100000 steps
ETITLE: TS BOND ANGLE DIHED IMPRP ELECT VDW BOUNDARY MISC KINETIC TOTAL TEMP POTENTIAL TOTAL3 TEMPAVG PRESSURE GPRESSURE VOLUME PRESSAVG GPRESSAVG
ENERGY: 700000 2.9092 14.2984 7.7823 0.0000 -12158.5140 1876.4062 0.0000 0.0000 1225.0762 -9032.0417 210.4768 -10257.1180 -9030.1085 210.4768 445.9886 528.7563 28529.2540 445.9886 528.7563
ENERGY: 800000 5.1274 13.3088 7.7735 0.0000 -11597.3532 1669.6741 0.0000 0.0000 1471.8217 -8429.6477 252.8694 -9901.4694 -8428.5749 240.0091 -252.9165 -169.7714 28879.9765 4.8900 4.9589
TCL: Running 100000 steps at 270 kelvin.
TCL: Setting parameter langevinTemp to 270
TCL: Running for 100000 steps
ETITLE: TS BOND ANGLE DIHED IMPRP ELECT VDW BOUNDARY MISC KINETIC TOTAL TEMP POTENTIAL TOTAL3 TEMPAVG PRESSURE GPRESSURE VOLUME PRESSAVG GPRESSAVG
ENERGY: 800000 5.1274 13.3088 7.7735 0.0000 -11597.3532 1669.6741 0.0000 0.0000 1471.1299 -8430.3395 252.7505 -9901.4694 -8427.8652 252.7505 -260.2827 -171.7934 28879.9765 -260.2827 -171.7934
ENERGY: 900000 4.1960 20.9708 7.9961 0.0000 -11115.0911 1589.2891 0.0000 0.0000 1585.3618 -7907.2773 272.3764 -9492.6391 -7904.4979 269.4658 579.0624 647.8373 29301.3743 3.4450 3.7125
TCL: Running 1000000 steps at 300 kelvin.
TCL: Setting parameter langevinTemp to 300
TCL: Running for 1000000 steps
ETITLE: TS BOND ANGLE DIHED IMPRP ELECT VDW BOUNDARY MISC KINETIC TOTAL TEMP POTENTIAL TOTAL3 TEMPAVG PRESSURE GPRESSURE VOLUME PRESSAVG GPRESSAVG
ENERGY: 900000 4.1960 20.9708 7.9961 0.0000 -11115.0911 1589.2891 0.0000 0.0000 1584.5829 -7908.0562 272.2425 -9492.6391 -7906.4667 272.2425 567.6184 648.2685 29301.3743 567.6184 648.2685
ENERGY: 1100000 2.4334 17.7138 8.3601 0.0000 -10504.2751 1393.9369 0.0000 0.0000 1824.0848 -7257.7460 313.3906 -9081.8308 -7253.3420 300.2020 268.1516 321.3094 29631.8280 2.5689 2.6311
ENERGY: 1300000 2.2915 13.3939 8.9924 0.0000 -10568.4028 1485.0687 0.0000 0.0000 1745.1004 -7313.5559 299.8206 -9058.6563 -7309.7903 300.4907 780.4042 877.3694 30158.3143 3.2504 3.2186
ENERGY: 1500000 3.4606 18.7190 9.4394 0.0000 -10484.5127 1394.4099 0.0000 0.0000 1745.9368 -7312.5470 299.9643 -9058.4839 -7308.8027 300.4725 -22.9037 42.9607 30106.2355 2.2153 2.1841
ENERGY: 1700000 4.1189 14.6887 8.5489 0.0000 -10396.4255 1401.2637 0.0000 0.0000 1769.1684 -7198.6370 303.9556 -8967.8053 -7196.1111 300.4689 -129.9316 -34.8213 31116.6540 3.1752 3.0699
ENERGY: 1900000 3.7799 16.9328 12.4499 0.0000 -10508.9443 1362.1120 0.0000 0.0000 1744.8327 -7368.8370 299.7746 -9113.6697 -7364.8940 299.3596 -627.2276 -588.4679 30558.6417 3.2171 3.4119
TCL: Exiting due to exit command.
