Info: SIMULATION PARAMETERS:
Info: TIMESTEP               2
Info: NUMBER OF STEPS        0
Info: STEPS PER CYCLE        10
Info: PERIODIC CELL BASIS 1  32.853 0 0
Info: PERIODIC CELL BASIS 2  0 39.303 0
Info: PERIODIC CELL BASIS 3  0 0 34.471
Info: PERIODIC CELL CENTER   0 0 0
Info: WRAPPING WATERS AROUND PERIODIC BOUNDARIES ON OUTPUT.
Info: WRAPPING ALL CLUSTERS AROUND PERIODIC BOUNDARIES ON OUTPUT.
Info: FIRST LDB TIMESTEP     50
Info: LAST LDB TIMESTEP     -1
Info: HOM BACKGROUND SCALING 1
Info: PME BACKGROUND SCALING 1
Info: MIN ATOMS PER PATCH    40
Info: EMPTY PATCH LOAD       40 ATOMS
Info: INITIAL TEMPERATURE    300
Info: CENTER OF MASS MOVING INITIALLY? NO
Info: DIELECTRIC             1
Info: EXCLUDE                SCALED ONE-FOUR
Info: 1-4 ELECTROSTATICS SCALED BY 0.833333
Info: MODIFIED 1-4 VDW PARAMETERS WILL BE USED
Info: DCD FILENAME           mobley_2636578_equil.dcd
Info: DCD FREQUENCY          100000
Info: DCD FIRST STEP         100000
Info: DCD FILE WILL CONTAIN UNIT CELL DATA
Info: XST FILENAME           mobley_2636578_equil.xst
Info: XST FREQUENCY          100000
Info: NO VELOCITY DCD OUTPUT
Info: NO FORCE DCD OUTPUT
Info: OUTPUT FILENAME        mobley_2636578_equil
Info: BINARY OUTPUT FILES WILL BE USED
Info: RESTART FILENAME       mobley_2636578_equil.restart
Info: RESTART FREQUENCY      100000
Info: BINARY RESTART FILES WILL BE USED
Info: CUTOFF                 9
Info: PAIRLIST DISTANCE      11
Info: PAIRLIST SHRINK RATE   0.01
Info: PAIRLIST GROW RATE     0.01
Info: PAIRLIST TRIGGER       0.3
Info: PAIRLISTS PER CYCLE    2
Info: PAIRLISTS ENABLED
Info: MARGIN                 8
Info: HYDROGEN GROUP CUTOFF  2.5
Info: PATCH DIMENSION        21.5
Info: ENERGY OUTPUT STEPS    100000
Info: ENERGY EVALUATION STEPS    100000
Info: OUTPUT ENERGY PRECISION 4
Info: CROSSTERM ENERGY INCLUDED IN DIHEDRAL
Info: TIMING OUTPUT STEPS    1000000
Info: PRESSURE OUTPUT STEPS  100000
Info: LANGEVIN DYNAMICS ACTIVE
Info: LANGEVIN TEMPERATURE   30
Info: LANGEVIN USING BBK INTEGRATOR
Info: LANGEVIN DAMPING COEFFICIENT IS 1 INVERSE PS
Info: LANGEVIN DYNAMICS APPLIED TO HYDROGENS
Info: LANGEVIN PISTON PRESSURE CONTROL ACTIVE
Info:        TARGET PRESSURE IS 1.01325 BAR
Info:     OSCILLATION PERIOD IS 50 FS
Info:             DECAY TIME IS 25 FS
Info:     PISTON TEMPERATURE IS 300 K
Info:       PRESSURE CONTROL IS GROUP-BASED
Info:    INITIAL STRAIN RATE IS 0 0 0
Info:       CELL FLUCTUATION IS ISOTROPIC
Info: PARTICLE MESH EWALD (PME) ACTIVE
Info: PME TOLERANCE               1e-06
Info: PME EWALD COEFFICIENT       0.348832
Info: PME INTERPOLATION ORDER     4
Info: PME GRID DIMENSIONS         36 40 36
Info: PME MAXIMUM GRID SPACING    1
Info: FULL ELECTROSTATIC EVALUATION FREQUENCY      2
Info: USING VERLET I (r-RESPA) MTS SCHEME.
Info: C1 SPLITTING OF LONG RANGE ELECTROSTATICS
Info: PLACING ATOMS IN PATCHES BY HYDROGEN GROUPS
Info: RIGID BONDS TO HYDROGEN : ALL
Info:         ERROR TOLERANCE : 1e-08
Info:          MAX ITERATIONS : 100
Info: RIGID WATER USING SETTLE ALGORITHM
Info: RANDOM NUMBER SEED     1743260877
Info: USE HYDROGEN BONDS?    NO
Info: Using AMBER format force field!
Info: AMBER PARM FILE        mobley_2636578.prmtop
Info: COORDINATE PDB         mobley_2636578.pdb
Info: Exclusions will be read from PARM file!
Info: SCNB (VDW SCALING)     2
Info: USING ARITHMETIC MEAN TO COMBINE L-J SIGMA PARAMETERS
Info: BINARY COORDINATES     mobley_2636578_min.coor
Info: SUMMARY OF PARAMETERS:
Info: 8 BONDS
Info: 10 ANGLES
Info: 5 DIHEDRAL
Info: 0 IMPROPER
Info: 0 CROSSTERM
Info: 0 VDW
Info: 36 VDW_PAIRS
Info: 0 NBTHOLE_PAIRS
Info: STRUCTURE SUMMARY:
Info: 2927 ATOMS
Info: 2926 BONDS
Info: 26 ANGLES
Info: 32 DIHEDRALS
Info: 0 IMPROPERS
Info: 0 CROSSTERMS
Info: 2980 EXCLUSIONS
Info: 2916 RIGID BONDS
Info: 5865 DEGREES OF FREEDOM
Info: 981 HYDROGEN GROUPS
Info: 3 ATOMS IN LARGEST HYDROGEN GROUP
Info: 981 MIGRATION GROUPS
Info: 3 ATOMS IN LARGEST MIGRATION GROUP
Info: TOTAL MASS = 17641.6 amu
Info: TOTAL CHARGE = -3.72529e-08 e
Info: MASS DENSITY = 0.658178 g/cm^3
Info: ATOM DENSITY = 0.065761 atoms/A^3
Info: ADDED 0 IMPLICIT EXCLUSIONS
Info: NONBONDED TABLE R-SQUARED SPACING: 0.0625
Info: NONBONDED TABLE SIZE: 705 POINTS
Info: REMOVING COM VELOCITY 0.00550207 0.105948 -0.153382
TCL: Running for 100000 steps
ETITLE: TS BOND ANGLE DIHED IMPRP ELECT VDW BOUNDARY MISC KINETIC TOTAL TEMP POTENTIAL TOTAL3 TEMPAVG PRESSURE GPRESSURE VOLUME PRESSAVG GPRESSAVG
ENERGY: 0 0.1596 1.3569 1.7135 0.0000 -13522.0995 2386.4508 0.0000 0.0000 1667.8080 -9464.6108 286.1992 -11132.4187 -9464.2848 286.1992 318.3687 348.8040 44509.6949 318.3687 348.8040
ENERGY: 100000 0.6071 2.4962 2.2205 0.0000 -14013.4502 2372.6905 0.0000 0.0000 175.2957 -11460.1403 30.0811 -11635.4360 -11459.7312 31.0293 -850.6398 -797.3264 28925.0731 4.0975 4.0753
TCL: Running 100000 steps at 60 kelvin.
TCL: Setting parameter langevinTemp to 60
TCL: Running for 100000 steps
ETITLE: TS BOND ANGLE DIHED IMPRP ELECT VDW BOUNDARY MISC KINETIC TOTAL TEMP POTENTIAL TOTAL3 TEMPAVG PRESSURE GPRESSURE VOLUME PRESSAVG GPRESSAVG
ENERGY: 100000 0.6071 2.4962 2.2205 0.0000 -14013.4502 2372.6905 0.0000 0.0000 175.2107 -11460.2253 30.0665 -11635.4360 -11459.8067 30.0665 -845.7718 -797.6526 28925.0731 -845.7718 -797.6526
ENERGY: 200000 0.7986 2.8945 2.5340 0.0000 -14004.5011 2402.5487 0.0000 0.0000 343.9338 -11251.7916 59.0197 -11595.7253 -11250.8674 60.1393 -344.3415 -314.9115 28806.7790 3.6000 3.5403
TCL: Running 100000 steps at 90 kelvin.
TCL: Setting parameter langevinTemp to 90
TCL: Running for 100000 steps
ETITLE: TS BOND ANGLE DIHED IMPRP ELECT VDW BOUNDARY MISC KINETIC TOTAL TEMP POTENTIAL TOTAL3 TEMPAVG PRESSURE GPRESSURE VOLUME PRESSAVG GPRESSAVG
ENERGY: 200000 0.7986 2.8945 2.5340 0.0000 -14004.5011 2402.5487 0.0000 0.0000 343.7719 -11251.9535 58.9919 -11595.7253 -11251.0905 58.9919 -350.3323 -315.1853 28806.7790 -350.3323 -315.1853
ENERGY: 300000 1.3105 3.3719 2.1355 0.0000 -13759.0306 2295.1003 0.0000 0.0000 524.1532 -10932.9592 89.9457 -11457.1124 -10931.6417 90.0579 -803.2430 -811.9405 29161.9948 4.5502 4.5340
TCL: Running 100000 steps at 120 kelvin.
TCL: Setting parameter langevinTemp to 120
TCL: Running for 100000 steps
ETITLE: TS BOND ANGLE DIHED IMPRP ELECT VDW BOUNDARY MISC KINETIC TOTAL TEMP POTENTIAL TOTAL3 TEMPAVG PRESSURE GPRESSURE VOLUME PRESSAVG GPRESSAVG
ENERGY: 300000 1.3105 3.3719 2.1355 0.0000 -13759.0306 2295.1003 0.0000 0.0000 523.8967 -10933.2157 89.9017 -11457.1124 -10931.9633 89.9017 -856.7473 -812.1129 29161.9948 -856.7473 -812.1129
ENERGY: 400000 0.9204 6.1907 2.5505 0.0000 -13692.7368 2314.2901 0.0000 0.0000 688.5359 -10680.2492 118.1541 -11368.7851 -10678.9609 119.9965 -82.8998 -50.2382 28812.7738 4.3787 4.4012
TCL: Running 100000 steps at 150 kelvin.
TCL: Setting parameter langevinTemp to 150
TCL: Running for 100000 steps
ETITLE: TS BOND ANGLE DIHED IMPRP ELECT VDW BOUNDARY MISC KINETIC TOTAL TEMP POTENTIAL TOTAL3 TEMPAVG PRESSURE GPRESSURE VOLUME PRESSAVG GPRESSAVG
ENERGY: 400000 0.9204 6.1907 2.5505 0.0000 -13692.7368 2314.2901 0.0000 0.0000 688.2012 -10680.5839 118.0967 -11368.7851 -10679.3834 118.0967 -107.5400 -50.2573 28812.7738 -107.5400 -50.2573
ENERGY: 500000 2.1043 5.5324 1.6755 0.0000 -13345.7742 2173.0087 0.0000 0.0000 874.6055 -10288.8477 150.0841 -11163.4532 -10288.1661 149.7855 -629.6835 -596.7555 29210.3045 4.7911 4.7576
TCL: Running 100000 steps at 180 kelvin.
TCL: Setting parameter langevinTemp to 180
TCL: Running for 100000 steps
ETITLE: TS BOND ANGLE DIHED IMPRP ELECT VDW BOUNDARY MISC KINETIC TOTAL TEMP POTENTIAL TOTAL3 TEMPAVG PRESSURE GPRESSURE VOLUME PRESSAVG GPRESSAVG
ENERGY: 500000 2.1043 5.5324 1.6755 0.0000 -13345.7742 2173.0087 0.0000 0.0000 874.1748 -10289.2784 150.0102 -11163.4532 -10287.6726 150.0102 -640.5271 -598.7345 29210.3045 -640.5271 -598.7345
ENERGY: 600000 1.7908 6.7815 3.2223 0.0000 -13018.0944 2086.9669 0.0000 0.0000 1055.2792 -9864.0537 181.0880 -10919.3328 -9862.8711 179.6659 234.1530 320.9720 28203.5592 4.3094 4.2881
TCL: Running 100000 steps at 210 kelvin.
TCL: Setting parameter langevinTemp to 210
TCL: Running for 100000 steps
ETITLE: TS BOND ANGLE DIHED IMPRP ELECT VDW BOUNDARY MISC KINETIC TOTAL TEMP POTENTIAL TOTAL3 TEMPAVG PRESSURE GPRESSURE VOLUME PRESSAVG GPRESSAVG
ENERGY: 600000 1.7908 6.7815 3.2223 0.0000 -13018.0944 2086.9669 0.0000 0.0000 1054.7435 -9864.5893 180.9961 -10919.3328 -9863.0425 180.9961 256.9549 320.5101 28203.5592 256.9549 320.5101
ENERGY: 700000 1.9163 6.4221 1.6983 0.0000 -12124.8415 1748.5559 0.0000 0.0000 1212.2958 -9153.9531 208.0324 -10366.2489 -9149.6931 209.9519 -818.6739 -683.8364 28680.7833 2.8330 2.7318
TCL: Running 100000 steps at 240 kelvin.
TCL: Setting parameter langevinTemp to 240
TCL: Running for 100000 steps
ETITLE: TS BOND ANGLE DIHED IMPRP ELECT VDW BOUNDARY MISC KINETIC TOTAL TEMP POTENTIAL TOTAL3 TEMPAVG PRESSURE GPRESSURE VOLUME PRESSAVG GPRESSAVG
ENERGY: 700000 1.9163 6.4221 1.6983 0.0000 -12124.8415 1748.5559 0.0000 0.0000 1211.6904 -9154.5585 207.9285 -10366.2489 -9152.7322 207.9285 -779.5328 -682.9736 28680.7833 -779.5328 -682.9736
ENERGY: 800000 2.7663 6.9277 2.0820 0.0000 -11655.7524 1634.1033 0.0000 0.0000 1400.4628 -8609.4103 240.3222 -10009.8731 -8609.0644 240.2106 -304.1732 -243.7838 28734.9918 3.6750 3.6216
TCL: Running 100000 steps at 270 kelvin.
TCL: Setting parameter langevinTemp to 270
TCL: Running for 100000 steps
ETITLE: TS BOND ANGLE DIHED IMPRP ELECT VDW BOUNDARY MISC KINETIC TOTAL TEMP POTENTIAL TOTAL3 TEMPAVG PRESSURE GPRESSURE VOLUME PRESSAVG GPRESSAVG
ENERGY: 800000 2.7663 6.9277 2.0820 0.0000 -11655.7524 1634.1033 0.0000 0.0000 1399.7766 -8610.0965 240.2045 -10009.8731 -8607.3967 240.2045 -327.4144 -245.6954 28734.9918 -327.4144 -245.6954
ENERGY: 900000 0.9748 5.6576 2.2347 0.0000 -11188.0990 1560.4869 0.0000 0.0000 1557.2366 -8061.5084 267.2249 -9618.7449 -8058.8645 269.9771 170.5366 245.9399 28983.2547 4.2607 4.1114
TCL: Running 1000000 steps at 300 kelvin.
TCL: Setting parameter langevinTemp to 300
TCL: Running for 1000000 steps
ETITLE: TS BOND ANGLE DIHED IMPRP ELECT VDW BOUNDARY MISC KINETIC TOTAL TEMP POTENTIAL TOTAL3 TEMPAVG PRESSURE GPRESSURE VOLUME PRESSAVG GPRESSAVG
ENERGY: 900000 0.9748 5.6576 2.2347 0.0000 -11188.0990 1560.4869 0.0000 0.0000 1556.4729 -8062.2720 267.0939 -9618.7449 -8060.4641 267.0939 168.1403 245.2806 28983.2547 168.1403 245.2806
ENERGY: 1100000 3.2158 9.0700 5.4501 0.0000 -10651.4042 1441.1505 0.0000 0.0000 1765.5510 -7426.9668 302.9721 -9192.5178 -7424.7101 300.0835 -114.7495 2.5619 30043.8178 3.4908 3.6822
ENERGY: 1300000 2.1619 7.6196 5.8271 0.0000 -10628.2844 1400.0129 0.0000 0.0000 1709.2274 -7503.4354 293.3068 -9212.6628 -7499.8594 300.2177 -467.9016 -347.8964 30276.9319 3.2680 3.2867
ENERGY: 1500000 2.0527 8.5174 5.1242 0.0000 -10515.1859 1342.4773 0.0000 0.0000 1711.2437 -7445.7705 293.6529 -9157.0142 -7443.0113 300.8936 -382.1920 -340.3737 30243.1532 2.5040 2.5698
ENERGY: 1700000 5.9680 7.7708 3.2674 0.0000 -10480.8298 1400.2649 0.0000 0.0000 1786.3311 -7277.2276 306.5380 -9063.5588 -7272.9950 300.1179 -209.9256 -102.5215 30615.4827 3.1489 3.2409
ENERGY: 1900000 5.0189 7.2127 2.3338 0.0000 -10752.8027 1496.1371 0.0000 0.0000 1767.7614 -7474.3389 303.3514 -9242.1003 -7470.5083 300.5429 282.1095 345.2945 30492.7169 3.8590 3.9208
TCL: Exiting due to exit command.
