Info: SIMULATION PARAMETERS:
Info: TIMESTEP               2
Info: NUMBER OF STEPS        0
Info: STEPS PER CYCLE        10
Info: PERIODIC CELL BASIS 1  34.986 0 0
Info: PERIODIC CELL BASIS 2  0 34.696 0
Info: PERIODIC CELL BASIS 3  0 0 35.856
Info: PERIODIC CELL CENTER   0 0 0
Info: WRAPPING WATERS AROUND PERIODIC BOUNDARIES ON OUTPUT.
Info: WRAPPING ALL CLUSTERS AROUND PERIODIC BOUNDARIES ON OUTPUT.
Info: FIRST LDB TIMESTEP     50
Info: LAST LDB TIMESTEP     -1
Info: HOM BACKGROUND SCALING 1
Info: PME BACKGROUND SCALING 1
Info: MIN ATOMS PER PATCH    40
Info: EMPTY PATCH LOAD       40 ATOMS
Info: INITIAL TEMPERATURE    300
Info: CENTER OF MASS MOVING INITIALLY? NO
Info: DIELECTRIC             1
Info: EXCLUDE                SCALED ONE-FOUR
Info: 1-4 ELECTROSTATICS SCALED BY 0.833333
Info: MODIFIED 1-4 VDW PARAMETERS WILL BE USED
Info: DCD FILENAME           mobley_3982371_equil.dcd
Info: DCD FREQUENCY          100000
Info: DCD FIRST STEP         100000
Info: DCD FILE WILL CONTAIN UNIT CELL DATA
Info: XST FILENAME           mobley_3982371_equil.xst
Info: XST FREQUENCY          100000
Info: NO VELOCITY DCD OUTPUT
Info: NO FORCE DCD OUTPUT
Info: OUTPUT FILENAME        mobley_3982371_equil
Info: BINARY OUTPUT FILES WILL BE USED
Info: RESTART FILENAME       mobley_3982371_equil.restart
Info: RESTART FREQUENCY      100000
Info: BINARY RESTART FILES WILL BE USED
Info: CUTOFF                 9
Info: PAIRLIST DISTANCE      11
Info: PAIRLIST SHRINK RATE   0.01
Info: PAIRLIST GROW RATE     0.01
Info: PAIRLIST TRIGGER       0.3
Info: PAIRLISTS PER CYCLE    2
Info: PAIRLISTS ENABLED
Info: MARGIN                 8
Info: HYDROGEN GROUP CUTOFF  2.5
Info: PATCH DIMENSION        21.5
Info: ENERGY OUTPUT STEPS    100000
Info: ENERGY EVALUATION STEPS    100000
Info: OUTPUT ENERGY PRECISION 4
Info: CROSSTERM ENERGY INCLUDED IN DIHEDRAL
Info: TIMING OUTPUT STEPS    1000000
Info: PRESSURE OUTPUT STEPS  100000
Info: LANGEVIN DYNAMICS ACTIVE
Info: LANGEVIN TEMPERATURE   30
Info: LANGEVIN USING BBK INTEGRATOR
Info: LANGEVIN DAMPING COEFFICIENT IS 1 INVERSE PS
Info: LANGEVIN DYNAMICS APPLIED TO HYDROGENS
Info: LANGEVIN PISTON PRESSURE CONTROL ACTIVE
Info:        TARGET PRESSURE IS 1.01325 BAR
Info:     OSCILLATION PERIOD IS 50 FS
Info:             DECAY TIME IS 25 FS
Info:     PISTON TEMPERATURE IS 300 K
Info:       PRESSURE CONTROL IS GROUP-BASED
Info:    INITIAL STRAIN RATE IS 0 0 0
Info:       CELL FLUCTUATION IS ISOTROPIC
Info: PARTICLE MESH EWALD (PME) ACTIVE
Info: PME TOLERANCE               1e-06
Info: PME EWALD COEFFICIENT       0.348832
Info: PME INTERPOLATION ORDER     4
Info: PME GRID DIMENSIONS         36 36 36
Info: PME MAXIMUM GRID SPACING    1
Info: FULL ELECTROSTATIC EVALUATION FREQUENCY      2
Info: USING VERLET I (r-RESPA) MTS SCHEME.
Info: C1 SPLITTING OF LONG RANGE ELECTROSTATICS
Info: PLACING ATOMS IN PATCHES BY HYDROGEN GROUPS
Info: RIGID BONDS TO HYDROGEN : ALL
Info:         ERROR TOLERANCE : 1e-08
Info:          MAX ITERATIONS : 100
Info: RIGID WATER USING SETTLE ALGORITHM
Info: RANDOM NUMBER SEED     1743161993
Info: USE HYDROGEN BONDS?    NO
Info: Using AMBER format force field!
Info: AMBER PARM FILE        mobley_3982371.prmtop
Info: COORDINATE PDB         mobley_3982371.pdb
Info: Exclusions will be read from PARM file!
Info: SCNB (VDW SCALING)     2
Info: USING ARITHMETIC MEAN TO COMBINE L-J SIGMA PARAMETERS
Info: BINARY COORDINATES     mobley_3982371_min.coor
Info: SUMMARY OF PARAMETERS:
Info: 8 BONDS
Info: 8 ANGLES
Info:   8 HARMONIC
Info:   0 COSINE-BASED
Info: 10 DIHEDRAL
Info: 0 IMPROPER
Info: 0 CROSSTERM
Info: 0 VDW
Info: 36 VDW_PAIRS
Info: 0 NBTHOLE_PAIRS
Info: STRUCTURE SUMMARY:
Info: 2951 ATOMS
Info: 2950 BONDS
Info: 16 ANGLES
Info: 21 DIHEDRALS
Info: 0 IMPROPERS
Info: 0 CROSSTERMS
Info: 2977 EXCLUSIONS
Info: 2946 RIGID BONDS
Info: 5907 DEGREES OF FREEDOM
Info: 985 HYDROGEN GROUPS
Info: 4 ATOMS IN LARGEST HYDROGEN GROUP
Info: 985 MIGRATION GROUPS
Info: 4 ATOMS IN LARGEST MIGRATION GROUP
Info: TOTAL MASS = 17729.8 amu
Info: TOTAL CHARGE = 0.000199992 e
Info: MASS DENSITY = 0.676436 g/cm^3
Info: ATOM DENSITY = 0.0678006 atoms/A^3
Info: ADDED 0 IMPLICIT EXCLUSIONS
Info: NONBONDED TABLE R-SQUARED SPACING: 0.0625
Info: NONBONDED TABLE SIZE: 705 POINTS
Info: REMOVING COM VELOCITY -0.106127 -0.122591 -0.0646132
TCL: Running for 100000 steps
ETITLE: TS BOND ANGLE DIHED IMPRP ELECT VDW BOUNDARY MISC KINETIC TOTAL TEMP POTENTIAL TOTAL3 TEMPAVG PRESSURE GPRESSURE VOLUME PRESSAVG GPRESSAVG
ENERGY: 0 0.0390 0.3388 2.5686 0.0000 -13681.3853 2413.1160 0.0000 0.0000 1795.2099 -9470.1129 305.8713 -11265.3229 -9469.7618 305.8713 542.1570 574.4409 43524.6753 542.1570 574.4409
ENERGY: 100000 0.3898 0.9161 2.4952 0.0000 -14220.5495 2390.5833 0.0000 0.0000 180.8672 -11645.2979 30.8165 -11826.1651 -11645.0628 30.9548 -982.0146 -933.1356 28807.3938 5.4267 5.4439
TCL: Running 100000 steps at 60 kelvin.
TCL: Setting parameter langevinTemp to 60
TCL: Running for 100000 steps
ETITLE: TS BOND ANGLE DIHED IMPRP ELECT VDW BOUNDARY MISC KINETIC TOTAL TEMP POTENTIAL TOTAL3 TEMPAVG PRESSURE GPRESSURE VOLUME PRESSAVG GPRESSAVG
ENERGY: 100000 0.3898 0.9161 2.4952 0.0000 -14220.5495 2390.5833 0.0000 0.0000 180.7819 -11645.3832 30.8020 -11826.1651 -11644.9816 30.8020 -994.2904 -933.3509 28807.3938 -994.2904 -933.3509
ENERGY: 200000 0.2455 1.2732 2.5431 0.0000 -14214.5572 2458.4107 0.0000 0.0000 336.9421 -11415.1426 57.4088 -11752.0847 -11413.7920 59.9399 -207.9476 -130.8918 28921.5249 3.4081 3.3951
TCL: Running 100000 steps at 90 kelvin.
TCL: Setting parameter langevinTemp to 90
TCL: Running for 100000 steps
ETITLE: TS BOND ANGLE DIHED IMPRP ELECT VDW BOUNDARY MISC KINETIC TOTAL TEMP POTENTIAL TOTAL3 TEMPAVG PRESSURE GPRESSURE VOLUME PRESSAVG GPRESSAVG
ENERGY: 200000 0.2455 1.2732 2.5431 0.0000 -14214.5572 2458.4107 0.0000 0.0000 336.7631 -11415.3216 57.3783 -11752.0847 -11414.5900 57.3783 -196.1486 -130.6765 28921.5249 -196.1486 -130.6765
ENERGY: 300000 1.0089 1.2936 2.7532 0.0000 -13983.3352 2375.6230 0.0000 0.0000 531.7982 -11070.8582 90.6088 -11602.6565 -11069.4171 90.0411 -458.4215 -395.3219 29190.4418 3.0272 3.1194
TCL: Running 100000 steps at 120 kelvin.
TCL: Setting parameter langevinTemp to 120
TCL: Running for 100000 steps
ETITLE: TS BOND ANGLE DIHED IMPRP ELECT VDW BOUNDARY MISC KINETIC TOTAL TEMP POTENTIAL TOTAL3 TEMPAVG PRESSURE GPRESSURE VOLUME PRESSAVG GPRESSAVG
ENERGY: 300000 1.0089 1.2936 2.7532 0.0000 -13983.3352 2375.6230 0.0000 0.0000 531.5290 -11071.1274 90.5629 -11602.6565 -11069.9781 90.5629 -443.0653 -395.9964 29190.4418 -443.0653 -395.9964
ENERGY: 400000 0.8464 1.4814 2.5334 0.0000 -13779.7399 2285.4097 0.0000 0.0000 716.2088 -10773.2602 122.0290 -11489.4690 -10771.3443 119.9168 -614.5645 -586.4635 29030.8323 4.6043 4.4998
TCL: Running 100000 steps at 150 kelvin.
TCL: Setting parameter langevinTemp to 150
TCL: Running for 100000 steps
ETITLE: TS BOND ANGLE DIHED IMPRP ELECT VDW BOUNDARY MISC KINETIC TOTAL TEMP POTENTIAL TOTAL3 TEMPAVG PRESSURE GPRESSURE VOLUME PRESSAVG GPRESSAVG
ENERGY: 400000 0.8464 1.4814 2.5334 0.0000 -13779.7399 2285.4097 0.0000 0.0000 715.8538 -10773.6152 121.9685 -11489.4690 -10772.2575 121.9685 -640.4829 -586.1823 29030.8323 -640.4829 -586.1823
ENERGY: 500000 0.2836 3.7137 2.8089 0.0000 -13672.4432 2352.2995 0.0000 0.0000 847.0110 -10466.3264 144.3153 -11313.3374 -10464.3397 149.9523 626.8746 732.1187 28924.7994 5.1961 5.0712
TCL: Running 100000 steps at 180 kelvin.
TCL: Setting parameter langevinTemp to 180
TCL: Running for 100000 steps
ETITLE: TS BOND ANGLE DIHED IMPRP ELECT VDW BOUNDARY MISC KINETIC TOTAL TEMP POTENTIAL TOTAL3 TEMPAVG PRESSURE GPRESSURE VOLUME PRESSAVG GPRESSAVG
ENERGY: 500000 0.2836 3.7137 2.8089 0.0000 -13672.4432 2352.2995 0.0000 0.0000 846.5720 -10466.7654 144.2405 -11313.3374 -10465.4913 144.2405 685.3747 731.9975 28924.7994 685.3747 731.9975
ENERGY: 600000 0.7906 2.1026 3.2070 0.0000 -13144.3863 2088.9517 0.0000 0.0000 1014.1256 -10035.2089 172.7886 -11049.3345 -10031.7982 180.0162 -230.7551 -191.7797 28763.7843 4.0954 3.9710
TCL: Running 100000 steps at 210 kelvin.
TCL: Setting parameter langevinTemp to 210
TCL: Running for 100000 steps
ETITLE: TS BOND ANGLE DIHED IMPRP ELECT VDW BOUNDARY MISC KINETIC TOTAL TEMP POTENTIAL TOTAL3 TEMPAVG PRESSURE GPRESSURE VOLUME PRESSAVG GPRESSAVG
ENERGY: 600000 0.7906 2.1026 3.2070 0.0000 -13144.3863 2088.9517 0.0000 0.0000 1013.5778 -10035.7566 172.6953 -11049.3345 -10033.5764 172.6953 -259.5564 -190.3744 28763.7843 -259.5564 -190.3744
ENERGY: 700000 0.7044 4.4416 3.7254 0.0000 -12407.3402 1881.3781 0.0000 0.0000 1225.5510 -9291.5396 208.8117 -10517.0906 -9289.2009 209.8949 -247.0615 -171.9362 29148.7243 3.2867 3.0085
TCL: Running 100000 steps at 240 kelvin.
TCL: Setting parameter langevinTemp to 240
TCL: Running for 100000 steps
ETITLE: TS BOND ANGLE DIHED IMPRP ELECT VDW BOUNDARY MISC KINETIC TOTAL TEMP POTENTIAL TOTAL3 TEMPAVG PRESSURE GPRESSURE VOLUME PRESSAVG GPRESSAVG
ENERGY: 700000 0.7044 4.4416 3.7254 0.0000 -12407.3402 1881.3781 0.0000 0.0000 1224.9559 -9292.1347 208.7103 -10517.0906 -9289.3522 208.7103 -256.0632 -172.8286 29148.7243 -256.0632 -172.8286
ENERGY: 800000 1.6439 2.8829 2.8691 0.0000 -11650.9852 1636.5449 0.0000 0.0000 1461.1963 -8545.8481 248.9614 -10007.0444 -8542.7364 239.8675 -239.6313 -269.1520 29198.9743 3.6575 3.5068
TCL: Running 100000 steps at 270 kelvin.
TCL: Setting parameter langevinTemp to 270
TCL: Running for 100000 steps
ETITLE: TS BOND ANGLE DIHED IMPRP ELECT VDW BOUNDARY MISC KINETIC TOTAL TEMP POTENTIAL TOTAL3 TEMPAVG PRESSURE GPRESSURE VOLUME PRESSAVG GPRESSAVG
ENERGY: 800000 1.6439 2.8829 2.8691 0.0000 -11650.9852 1636.5449 0.0000 0.0000 1460.4836 -8546.5608 248.8399 -10007.0444 -8543.7604 248.8399 -357.6225 -270.3755 29198.9743 -357.6225 -270.3755
ENERGY: 900000 1.7618 6.6004 2.4971 0.0000 -11090.6171 1462.4595 0.0000 0.0000 1586.5459 -8030.7524 270.3187 -9617.2983 -8028.5523 270.4901 -632.3137 -600.1482 29657.4825 4.4683 4.4621
TCL: Running 1000000 steps at 300 kelvin.
TCL: Setting parameter langevinTemp to 300
TCL: Running for 1000000 steps
ETITLE: TS BOND ANGLE DIHED IMPRP ELECT VDW BOUNDARY MISC KINETIC TOTAL TEMP POTENTIAL TOTAL3 TEMPAVG PRESSURE GPRESSURE VOLUME PRESSAVG GPRESSAVG
ENERGY: 900000 1.7618 6.6004 2.4971 0.0000 -11090.6171 1462.4595 0.0000 0.0000 1585.7508 -8031.5475 270.1832 -9617.2983 -8028.5380 270.1832 -684.4910 -600.7504 29657.4825 -684.4910 -600.7504
ENERGY: 1100000 2.1449 2.5421 2.8082 0.0000 -10761.6575 1442.1787 0.0000 0.0000 1735.0641 -7576.9195 295.6235 -9311.9836 -7573.2403 299.9433 -39.4277 81.9991 30269.1508 3.1671 3.3843
ENERGY: 1300000 0.4611 4.2484 2.7440 0.0000 -10675.2826 1441.8539 0.0000 0.0000 1724.4210 -7501.5542 293.8101 -9225.9752 -7500.2094 300.5822 110.7725 132.3696 30452.7819 1.4970 1.5125
ENERGY: 1500000 1.1555 6.8394 3.7740 0.0000 -10700.0669 1429.6996 0.0000 0.0000 1740.7937 -7517.8048 296.5997 -9258.5985 -7514.4188 299.8831 -16.4918 -1.3358 30669.1507 2.7852 2.7073
ENERGY: 1700000 1.4798 3.7015 3.5829 0.0000 -10649.3465 1407.4548 0.0000 0.0000 1756.3119 -7476.8156 299.2437 -9233.1275 -7474.6487 299.6765 -101.5608 -65.3339 30691.3107 3.5416 3.5421
ENERGY: 1900000 1.3702 3.3303 4.3860 0.0000 -10702.2555 1412.7654 0.0000 0.0000 1785.2359 -7495.1678 304.1718 -9280.4036 -7491.6709 300.2721 -288.7527 -209.3143 30872.8180 4.1473 4.0523
TCL: Exiting due to exit command.
