Info: SIMULATION PARAMETERS:
Info: TIMESTEP               2
Info: NUMBER OF STEPS        0
Info: STEPS PER CYCLE        10
Info: PERIODIC CELL BASIS 1  35.89 0 0
Info: PERIODIC CELL BASIS 2  0 34.1 0
Info: PERIODIC CELL BASIS 3  0 0 36.199
Info: PERIODIC CELL CENTER   0 0 0
Info: WRAPPING WATERS AROUND PERIODIC BOUNDARIES ON OUTPUT.
Info: WRAPPING ALL CLUSTERS AROUND PERIODIC BOUNDARIES ON OUTPUT.
Info: FIRST LDB TIMESTEP     50
Info: LAST LDB TIMESTEP     -1
Info: HOM BACKGROUND SCALING 1
Info: PME BACKGROUND SCALING 1
Info: MIN ATOMS PER PATCH    40
Info: EMPTY PATCH LOAD       40 ATOMS
Info: INITIAL TEMPERATURE    300
Info: CENTER OF MASS MOVING INITIALLY? NO
Info: DIELECTRIC             1
Info: EXCLUDE                SCALED ONE-FOUR
Info: 1-4 ELECTROSTATICS SCALED BY 0.833333
Info: MODIFIED 1-4 VDW PARAMETERS WILL BE USED
Info: DCD FILENAME           mobley_1363784_equil.dcd
Info: DCD FREQUENCY          100000
Info: DCD FIRST STEP         100000
Info: DCD FILE WILL CONTAIN UNIT CELL DATA
Info: XST FILENAME           mobley_1363784_equil.xst
Info: XST FREQUENCY          100000
Info: NO VELOCITY DCD OUTPUT
Info: NO FORCE DCD OUTPUT
Info: OUTPUT FILENAME        mobley_1363784_equil
Info: BINARY OUTPUT FILES WILL BE USED
Info: RESTART FILENAME       mobley_1363784_equil.restart
Info: RESTART FREQUENCY      100000
Info: BINARY RESTART FILES WILL BE USED
Info: CUTOFF                 9
Info: PAIRLIST DISTANCE      11
Info: PAIRLIST SHRINK RATE   0.01
Info: PAIRLIST GROW RATE     0.01
Info: PAIRLIST TRIGGER       0.3
Info: PAIRLISTS PER CYCLE    2
Info: PAIRLISTS ENABLED
Info: MARGIN                 8
Info: HYDROGEN GROUP CUTOFF  2.5
Info: PATCH DIMENSION        21.5
Info: ENERGY OUTPUT STEPS    100000
Info: ENERGY EVALUATION STEPS    100000
Info: OUTPUT ENERGY PRECISION 4
Info: CROSSTERM ENERGY INCLUDED IN DIHEDRAL
Info: TIMING OUTPUT STEPS    1000000
Info: PRESSURE OUTPUT STEPS  100000
Info: LANGEVIN DYNAMICS ACTIVE
Info: LANGEVIN TEMPERATURE   30
Info: LANGEVIN USING BBK INTEGRATOR
Info: LANGEVIN DAMPING COEFFICIENT IS 1 INVERSE PS
Info: LANGEVIN DYNAMICS APPLIED TO HYDROGENS
Info: LANGEVIN PISTON PRESSURE CONTROL ACTIVE
Info:        TARGET PRESSURE IS 1.01325 BAR
Info:     OSCILLATION PERIOD IS 50 FS
Info:             DECAY TIME IS 25 FS
Info:     PISTON TEMPERATURE IS 300 K
Info:       PRESSURE CONTROL IS GROUP-BASED
Info:    INITIAL STRAIN RATE IS 0 0 0
Info:       CELL FLUCTUATION IS ISOTROPIC
Info: PARTICLE MESH EWALD (PME) ACTIVE
Info: PME TOLERANCE               1e-06
Info: PME EWALD COEFFICIENT       0.348832
Info: PME INTERPOLATION ORDER     4
Info: PME GRID DIMENSIONS         36 36 40
Info: PME MAXIMUM GRID SPACING    1
Info: FULL ELECTROSTATIC EVALUATION FREQUENCY      2
Info: USING VERLET I (r-RESPA) MTS SCHEME.
Info: C1 SPLITTING OF LONG RANGE ELECTROSTATICS
Info: PLACING ATOMS IN PATCHES BY HYDROGEN GROUPS
Info: RIGID BONDS TO HYDROGEN : ALL
Info:         ERROR TOLERANCE : 1e-08
Info:          MAX ITERATIONS : 100
Info: RIGID WATER USING SETTLE ALGORITHM
Info: RANDOM NUMBER SEED     1743213598
Info: USE HYDROGEN BONDS?    NO
Info: Using AMBER format force field!
Info: AMBER PARM FILE        mobley_1363784.prmtop
Info: COORDINATE PDB         mobley_1363784.pdb
Info: Exclusions will be read from PARM file!
Info: SCNB (VDW SCALING)     2
Info: USING ARITHMETIC MEAN TO COMBINE L-J SIGMA PARAMETERS
Info: BINARY COORDINATES     mobley_1363784_min.coor
Info: SUMMARY OF PARAMETERS:
Info: 8 BONDS
Info: 9 ANGLES
Info:   9 HARMONIC
Info:   0 COSINE-BASED
Info: 4 DIHEDRAL
Info: 0 IMPROPER
Info: 0 CROSSTERM
Info: 0 VDW
Info: 36 VDW_PAIRS
Info: 0 NBTHOLE_PAIRS
Info: STRUCTURE SUMMARY:
Info: 2930 ATOMS
Info: 2930 BONDS
Info: 28 ANGLES
Info: 37 DIHEDRALS
Info: 0 IMPROPERS
Info: 0 CROSSTERMS
Info: 2987 EXCLUSIONS
Info: 2922 RIGID BONDS
Info: 5868 DEGREES OF FREEDOM
Info: 979 HYDROGEN GROUPS
Info: 4 ATOMS IN LARGEST HYDROGEN GROUP
Info: 979 MIGRATION GROUPS
Info: 4 ATOMS IN LARGEST MIGRATION GROUP
Info: TOTAL MASS = 17600.7 amu
Info: TOTAL CHARGE = 0.000400014 e
Info: MASS DENSITY = 0.659727 g/cm^3
Info: ATOM DENSITY = 0.0661368 atoms/A^3
Info: ADDED 0 IMPLICIT EXCLUSIONS
Info: NONBONDED TABLE R-SQUARED SPACING: 0.0625
Info: NONBONDED TABLE SIZE: 705 POINTS
Info: REMOVING COM VELOCITY -0.0567854 -0.156551 0.125826
TCL: Running for 100000 steps
ETITLE: TS BOND ANGLE DIHED IMPRP ELECT VDW BOUNDARY MISC KINETIC TOTAL TEMP POTENTIAL TOTAL3 TEMPAVG PRESSURE GPRESSURE VOLUME PRESSAVG GPRESSAVG
ENERGY: 0 0.2227 0.2292 0.0311 0.0000 -13517.6935 2400.8481 0.0000 0.0000 1735.6666 -9380.6958 297.6916 -11116.3624 -9380.3671 297.6916 542.1549 578.7401 44302.1100 542.1549 578.7401
ENERGY: 100000 0.3790 1.1273 0.0845 0.0000 -14115.8596 2478.5217 0.0000 0.0000 174.9389 -11460.8082 30.0045 -11635.7471 -11460.3473 30.9000 279.3507 361.2532 28610.3722 3.5642 3.5960
TCL: Running 100000 steps at 60 kelvin.
TCL: Setting parameter langevinTemp to 60
TCL: Running for 100000 steps
ETITLE: TS BOND ANGLE DIHED IMPRP ELECT VDW BOUNDARY MISC KINETIC TOTAL TEMP POTENTIAL TOTAL3 TEMPAVG PRESSURE GPRESSURE VOLUME PRESSAVG GPRESSAVG
ENERGY: 100000 0.3790 1.1273 0.0845 0.0000 -14115.8596 2478.5217 0.0000 0.0000 174.8566 -11460.8906 29.9904 -11635.7471 -11460.5303 29.9904 300.2575 361.2165 28610.3722 300.2575 361.2165
ENERGY: 200000 0.6611 1.0508 0.6941 0.0000 -14058.3354 2450.6620 0.0000 0.0000 348.6157 -11256.6516 59.7926 -11605.2673 -11255.5473 60.0338 425.2266 499.9585 28175.3869 5.4783 5.5399
TCL: Running 100000 steps at 90 kelvin.
TCL: Setting parameter langevinTemp to 90
TCL: Running for 100000 steps
ETITLE: TS BOND ANGLE DIHED IMPRP ELECT VDW BOUNDARY MISC KINETIC TOTAL TEMP POTENTIAL TOTAL3 TEMPAVG PRESSURE GPRESSURE VOLUME PRESSAVG GPRESSAVG
ENERGY: 200000 0.6611 1.0508 0.6941 0.0000 -14058.3354 2450.6620 0.0000 0.0000 348.4409 -11256.8265 59.7626 -11605.2673 -11256.1411 59.7626 447.1970 499.9263 28175.3869 447.1970 499.9263
ENERGY: 300000 1.1331 1.5658 0.6134 0.0000 -13899.7126 2393.5816 0.0000 0.0000 528.7321 -10974.0866 90.6851 -11502.8187 -10972.3560 89.9926 289.1957 319.5384 28347.0539 3.4546 3.4301
TCL: Running 100000 steps at 120 kelvin.
TCL: Setting parameter langevinTemp to 120
TCL: Running for 100000 steps
ETITLE: TS BOND ANGLE DIHED IMPRP ELECT VDW BOUNDARY MISC KINETIC TOTAL TEMP POTENTIAL TOTAL3 TEMPAVG PRESSURE GPRESSURE VOLUME PRESSAVG GPRESSAVG
ENERGY: 300000 1.1331 1.5658 0.6134 0.0000 -13899.7126 2393.5816 0.0000 0.0000 528.4680 -10974.3507 90.6398 -11502.8187 -10973.1953 90.6398 273.2495 320.2762 28347.0539 273.2495 320.2762
ENERGY: 400000 0.7721 3.0280 1.3177 0.0000 -13711.8656 2374.7782 0.0000 0.0000 695.9701 -10635.9994 119.3688 -11331.9695 -10633.9878 120.2264 517.6469 573.4840 28809.7019 5.8566 5.8124
TCL: Running 100000 steps at 150 kelvin.
TCL: Setting parameter langevinTemp to 150
TCL: Running for 100000 steps
ETITLE: TS BOND ANGLE DIHED IMPRP ELECT VDW BOUNDARY MISC KINETIC TOTAL TEMP POTENTIAL TOTAL3 TEMPAVG PRESSURE GPRESSURE VOLUME PRESSAVG GPRESSAVG
ENERGY: 400000 0.7721 3.0280 1.3177 0.0000 -13711.8656 2374.7782 0.0000 0.0000 695.6206 -10636.3489 119.3089 -11331.9695 -10634.8799 119.3089 525.8775 574.3134 28809.7019 525.8775 574.3134
ENERGY: 500000 0.8422 1.9422 0.8496 0.0000 -13467.6804 2283.5157 0.0000 0.0000 880.7140 -10299.8166 151.0550 -11180.5306 -10298.2483 150.1688 320.7724 397.7312 28827.4075 4.3778 4.3108
TCL: Running 100000 steps at 180 kelvin.
TCL: Setting parameter langevinTemp to 180
TCL: Running for 100000 steps
ETITLE: TS BOND ANGLE DIHED IMPRP ELECT VDW BOUNDARY MISC KINETIC TOTAL TEMP POTENTIAL TOTAL3 TEMPAVG PRESSURE GPRESSURE VOLUME PRESSAVG GPRESSAVG
ENERGY: 500000 0.8422 1.9422 0.8496 0.0000 -13467.6804 2283.5157 0.0000 0.0000 880.2807 -10300.2499 150.9807 -11180.5306 -10298.2069 150.9807 343.3738 397.8644 28827.4075 343.3738 397.8644
ENERGY: 600000 1.1182 6.0391 0.7152 0.0000 -13103.4736 2225.6972 0.0000 0.0000 1061.4998 -9808.4041 182.0624 -10869.9039 -9806.9746 180.4688 1281.9797 1247.8511 28525.3158 3.8132 3.7698
TCL: Running 100000 steps at 210 kelvin.
TCL: Setting parameter langevinTemp to 210
TCL: Running for 100000 steps
ETITLE: TS BOND ANGLE DIHED IMPRP ELECT VDW BOUNDARY MISC KINETIC TOTAL TEMP POTENTIAL TOTAL3 TEMPAVG PRESSURE GPRESSURE VOLUME PRESSAVG GPRESSAVG
ENERGY: 600000 1.1182 6.0391 0.7152 0.0000 -13103.4736 2225.6972 0.0000 0.0000 1060.9979 -9808.9060 181.9763 -10869.9039 -9807.5582 181.9763 1192.6134 1248.4305 28525.3158 1192.6134 1248.4305
ENERGY: 700000 1.1134 4.8188 1.8839 0.0000 -12314.5197 1898.5919 0.0000 0.0000 1254.5514 -9153.5603 215.1735 -10408.1117 -9150.5479 209.8848 69.4542 194.8031 28776.2652 2.6750 2.7684
TCL: Running 100000 steps at 240 kelvin.
TCL: Setting parameter langevinTemp to 240
TCL: Running for 100000 steps
ETITLE: TS BOND ANGLE DIHED IMPRP ELECT VDW BOUNDARY MISC KINETIC TOTAL TEMP POTENTIAL TOTAL3 TEMPAVG PRESSURE GPRESSURE VOLUME PRESSAVG GPRESSAVG
ENERGY: 700000 1.1134 4.8188 1.8839 0.0000 -12314.5197 1898.5919 0.0000 0.0000 1253.9616 -9154.1501 215.0723 -10408.1117 -9152.3147 215.0723 113.7350 195.4925 28776.2652 113.7350 195.4925
ENERGY: 800000 5.9120 5.3039 1.3703 0.0000 -11602.4566 1561.1449 0.0000 0.0000 1396.4055 -8632.3201 239.5035 -10028.7255 -8630.5487 239.9784 -1480.0400 -1374.1231 28899.2548 3.5164 3.3621
TCL: Running 100000 steps at 270 kelvin.
TCL: Setting parameter langevinTemp to 270
TCL: Running for 100000 steps
ETITLE: TS BOND ANGLE DIHED IMPRP ELECT VDW BOUNDARY MISC KINETIC TOTAL TEMP POTENTIAL TOTAL3 TEMPAVG PRESSURE GPRESSURE VOLUME PRESSAVG GPRESSAVG
ENERGY: 800000 5.9120 5.3039 1.3703 0.0000 -11602.4566 1561.1449 0.0000 0.0000 1395.6889 -8633.0366 239.3806 -10028.7255 -8630.3171 239.3806 -1464.5760 -1375.4558 28899.2548 -1464.5760 -1375.4558
ENERGY: 900000 2.7320 4.0843 2.9416 0.0000 -11125.1695 1552.9395 0.0000 0.0000 1604.2562 -7958.2159 275.1528 -9562.4721 -7954.7947 269.8377 -26.8694 20.4544 29396.0177 3.8541 3.9687
TCL: Running 1000000 steps at 300 kelvin.
TCL: Setting parameter langevinTemp to 300
TCL: Running for 1000000 steps
ETITLE: TS BOND ANGLE DIHED IMPRP ELECT VDW BOUNDARY MISC KINETIC TOTAL TEMP POTENTIAL TOTAL3 TEMPAVG PRESSURE GPRESSURE VOLUME PRESSAVG GPRESSAVG
ENERGY: 900000 2.7320 4.0843 2.9416 0.0000 -11125.1695 1552.9395 0.0000 0.0000 1603.4363 -7959.0358 275.0122 -9562.4721 -7956.3683 275.0122 -46.3234 21.4273 29396.0177 -46.3234 21.4273
ENERGY: 1100000 1.9230 7.1378 1.9563 0.0000 -10618.4222 1446.7613 0.0000 0.0000 1757.7522 -7402.8916 301.4796 -9160.6439 -7399.9491 300.3650 159.8812 289.4422 30181.9490 4.0843 3.9812
ENERGY: 1300000 1.3771 8.8347 3.6566 0.0000 -10529.7295 1417.8127 0.0000 0.0000 1734.3008 -7363.7477 297.4573 -9098.0485 -7364.5006 300.2578 407.1695 455.5502 29792.6089 2.7673 2.8287
ENERGY: 1500000 1.5524 3.2924 2.2029 0.0000 -10690.1988 1449.5444 0.0000 0.0000 1755.2615 -7478.3453 301.0524 -9233.6068 -7474.6326 300.5194 78.8677 178.3615 29829.8746 3.9634 4.0163
ENERGY: 1700000 1.6894 2.2171 1.0861 0.0000 -10599.3449 1375.9993 0.0000 0.0000 1723.2451 -7495.1080 295.5611 -9218.3531 -7490.8767 300.3248 -518.3100 -443.7828 30304.0111 3.6648 3.8344
ENERGY: 1900000 2.8515 4.7995 3.1474 0.0000 -10648.6599 1409.5057 0.0000 0.0000 1759.6186 -7468.7372 301.7997 -9228.3558 -7463.6947 300.3458 -247.0951 -201.8816 30035.4488 2.4794 2.4566
TCL: Exiting due to exit command.
