Info: SIMULATION PARAMETERS:
Info: TIMESTEP               2
Info: NUMBER OF STEPS        0
Info: STEPS PER CYCLE        10
Info: PERIODIC CELL BASIS 1  36.592 0 0
Info: PERIODIC CELL BASIS 2  0 34.1 0
Info: PERIODIC CELL BASIS 3  0 0 36.199
Info: PERIODIC CELL CENTER   0 0 0
Info: WRAPPING WATERS AROUND PERIODIC BOUNDARIES ON OUTPUT.
Info: WRAPPING ALL CLUSTERS AROUND PERIODIC BOUNDARIES ON OUTPUT.
Info: FIRST LDB TIMESTEP     50
Info: LAST LDB TIMESTEP     -1
Info: HOM BACKGROUND SCALING 1
Info: PME BACKGROUND SCALING 1
Info: MIN ATOMS PER PATCH    40
Info: EMPTY PATCH LOAD       40 ATOMS
Info: INITIAL TEMPERATURE    300
Info: CENTER OF MASS MOVING INITIALLY? NO
Info: DIELECTRIC             1
Info: EXCLUDE                SCALED ONE-FOUR
Info: 1-4 ELECTROSTATICS SCALED BY 0.833333
Info: MODIFIED 1-4 VDW PARAMETERS WILL BE USED
Info: DCD FILENAME           mobley_6353617_equil.dcd
Info: DCD FREQUENCY          100000
Info: DCD FIRST STEP         100000
Info: DCD FILE WILL CONTAIN UNIT CELL DATA
Info: XST FILENAME           mobley_6353617_equil.xst
Info: XST FREQUENCY          100000
Info: NO VELOCITY DCD OUTPUT
Info: NO FORCE DCD OUTPUT
Info: OUTPUT FILENAME        mobley_6353617_equil
Info: BINARY OUTPUT FILES WILL BE USED
Info: RESTART FILENAME       mobley_6353617_equil.restart
Info: RESTART FREQUENCY      100000
Info: BINARY RESTART FILES WILL BE USED
Info: CUTOFF                 9
Info: PAIRLIST DISTANCE      11
Info: PAIRLIST SHRINK RATE   0.01
Info: PAIRLIST GROW RATE     0.01
Info: PAIRLIST TRIGGER       0.3
Info: PAIRLISTS PER CYCLE    2
Info: PAIRLISTS ENABLED
Info: MARGIN                 8
Info: HYDROGEN GROUP CUTOFF  2.5
Info: PATCH DIMENSION        21.5
Info: ENERGY OUTPUT STEPS    100000
Info: ENERGY EVALUATION STEPS    100000
Info: OUTPUT ENERGY PRECISION 4
Info: CROSSTERM ENERGY INCLUDED IN DIHEDRAL
Info: TIMING OUTPUT STEPS    1000000
Info: PRESSURE OUTPUT STEPS  100000
Info: LANGEVIN DYNAMICS ACTIVE
Info: LANGEVIN TEMPERATURE   30
Info: LANGEVIN USING BBK INTEGRATOR
Info: LANGEVIN DAMPING COEFFICIENT IS 1 INVERSE PS
Info: LANGEVIN DYNAMICS APPLIED TO HYDROGENS
Info: LANGEVIN PISTON PRESSURE CONTROL ACTIVE
Info:        TARGET PRESSURE IS 1.01325 BAR
Info:     OSCILLATION PERIOD IS 50 FS
Info:             DECAY TIME IS 25 FS
Info:     PISTON TEMPERATURE IS 300 K
Info:       PRESSURE CONTROL IS GROUP-BASED
Info:    INITIAL STRAIN RATE IS 0 0 0
Info:       CELL FLUCTUATION IS ISOTROPIC
Info: PARTICLE MESH EWALD (PME) ACTIVE
Info: PME TOLERANCE               1e-06
Info: PME EWALD COEFFICIENT       0.348832
Info: PME INTERPOLATION ORDER     4
Info: PME GRID DIMENSIONS         40 36 40
Info: PME MAXIMUM GRID SPACING    1
Info: FULL ELECTROSTATIC EVALUATION FREQUENCY      2
Info: USING VERLET I (r-RESPA) MTS SCHEME.
Info: C1 SPLITTING OF LONG RANGE ELECTROSTATICS
Info: PLACING ATOMS IN PATCHES BY HYDROGEN GROUPS
Info: RIGID BONDS TO HYDROGEN : ALL
Info:         ERROR TOLERANCE : 1e-08
Info:          MAX ITERATIONS : 100
Info: RIGID WATER USING SETTLE ALGORITHM
Info: RANDOM NUMBER SEED     1743230277
Info: USE HYDROGEN BONDS?    NO
Info: Using AMBER format force field!
Info: AMBER PARM FILE        mobley_6353617.prmtop
Info: COORDINATE PDB         mobley_6353617.pdb
Info: Exclusions will be read from PARM file!
Info: SCNB (VDW SCALING)     2
Info: USING ARITHMETIC MEAN TO COMBINE L-J SIGMA PARAMETERS
Info: BINARY COORDINATES     mobley_6353617_min.coor
Info: SUMMARY OF PARAMETERS:
Info: 10 BONDS
Info: 12 ANGLES
Info:   12 HARMONIC
Info:   0 COSINE-BASED
Info: 9 DIHEDRAL
Info: 0 IMPROPER
Info: 0 CROSSTERM
Info: 0 VDW
Info: 45 VDW_PAIRS
Info: 0 NBTHOLE_PAIRS
Info: STRUCTURE SUMMARY:
Info: 2995 ATOMS
Info: 2995 BONDS
Info: 25 ANGLES
Info: 42 DIHEDRALS
Info: 0 IMPROPERS
Info: 0 CROSSTERMS
Info: 3047 EXCLUSIONS
Info: 2986 RIGID BONDS
Info: 5999 DEGREES OF FREEDOM
Info: 1002 HYDROGEN GROUPS
Info: 4 ATOMS IN LARGEST HYDROGEN GROUP
Info: 1002 MIGRATION GROUPS
Info: 4 ATOMS IN LARGEST MIGRATION GROUP
Info: TOTAL MASS = 18011 amu
Info: TOTAL CHARGE = 1.30385e-08 e
Info: MASS DENSITY = 0.662156 g/cm^3
Info: ATOM DENSITY = 0.0663071 atoms/A^3
Info: ADDED 0 IMPLICIT EXCLUSIONS
Info: NONBONDED TABLE R-SQUARED SPACING: 0.0625
Info: NONBONDED TABLE SIZE: 705 POINTS
Info: REMOVING COM VELOCITY -0.0441263 0.0345076 0.181634
TCL: Running for 100000 steps
ETITLE: TS BOND ANGLE DIHED IMPRP ELECT VDW BOUNDARY MISC KINETIC TOTAL TEMP POTENTIAL TOTAL3 TEMPAVG PRESSURE GPRESSURE VOLUME PRESSAVG GPRESSAVG
ENERGY: 0 0.1907 0.7877 2.4997 0.0000 -13907.5117 2469.8461 0.0000 0.0000 1824.4564 -9609.7311 306.0871 -11434.1875 -9609.3835 306.0871 572.0469 600.3384 45168.6489 572.0469 600.3384
ENERGY: 100000 0.8697 1.3723 2.7046 0.0000 -14431.0799 2459.4973 0.0000 0.0000 179.6595 -11786.9765 30.1413 -11966.6360 -11786.3975 30.9262 -283.9507 -238.0011 28762.2816 4.6299 4.6050
TCL: Running 100000 steps at 60 kelvin.
TCL: Setting parameter langevinTemp to 60
TCL: Running for 100000 steps
ETITLE: TS BOND ANGLE DIHED IMPRP ELECT VDW BOUNDARY MISC KINETIC TOTAL TEMP POTENTIAL TOTAL3 TEMPAVG PRESSURE GPRESSURE VOLUME PRESSAVG GPRESSAVG
ENERGY: 100000 0.8697 1.3723 2.7046 0.0000 -14431.0799 2459.4973 0.0000 0.0000 179.5731 -11787.0629 30.1268 -11966.6360 -11786.6971 30.1268 -287.0299 -237.9812 28762.2816 -287.0299 -237.9812
ENERGY: 200000 0.9480 1.3893 3.0449 0.0000 -14381.1029 2482.8565 0.0000 0.0000 372.6139 -11520.2502 62.5130 -11892.8641 -11519.0084 59.9536 150.4669 198.5262 29002.6842 4.1838 4.3037
TCL: Running 100000 steps at 90 kelvin.
TCL: Setting parameter langevinTemp to 90
TCL: Running for 100000 steps
ETITLE: TS BOND ANGLE DIHED IMPRP ELECT VDW BOUNDARY MISC KINETIC TOTAL TEMP POTENTIAL TOTAL3 TEMPAVG PRESSURE GPRESSURE VOLUME PRESSAVG GPRESSAVG
ENERGY: 200000 0.9480 1.3893 3.0449 0.0000 -14381.1029 2482.8565 0.0000 0.0000 372.4348 -11520.4293 62.4830 -11892.8641 -11519.6052 62.4830 146.7968 198.7780 29002.6842 146.7968 198.7780
ENERGY: 300000 1.6756 2.8584 3.1354 0.0000 -14098.3630 2311.4214 0.0000 0.0000 540.5281 -11238.7442 90.6838 -11779.2723 -11238.3076 90.0915 -711.6788 -669.4418 28944.3453 5.1659 5.1560
TCL: Running 100000 steps at 120 kelvin.
TCL: Setting parameter langevinTemp to 120
TCL: Running for 100000 steps
ETITLE: TS BOND ANGLE DIHED IMPRP ELECT VDW BOUNDARY MISC KINETIC TOTAL TEMP POTENTIAL TOTAL3 TEMPAVG PRESSURE GPRESSURE VOLUME PRESSAVG GPRESSAVG
ENERGY: 300000 1.6756 2.8584 3.1354 0.0000 -14098.3630 2311.4214 0.0000 0.0000 540.2672 -11239.0051 90.6400 -11779.2723 -11237.8135 90.6400 -726.9074 -669.9058 28944.3453 -726.9074 -669.9058
ENERGY: 400000 1.7393 4.6626 3.1907 0.0000 -14081.7556 2395.6436 0.0000 0.0000 726.0553 -10950.4641 121.8095 -11676.5194 -10949.0693 120.1294 -144.2101 -70.9733 29542.8933 4.7317 4.6782
TCL: Running 100000 steps at 150 kelvin.
TCL: Setting parameter langevinTemp to 150
TCL: Running for 100000 steps
ETITLE: TS BOND ANGLE DIHED IMPRP ELECT VDW BOUNDARY MISC KINETIC TOTAL TEMP POTENTIAL TOTAL3 TEMPAVG PRESSURE GPRESSURE VOLUME PRESSAVG GPRESSAVG
ENERGY: 400000 1.7393 4.6626 3.1907 0.0000 -14081.7556 2395.6436 0.0000 0.0000 725.7063 -10950.8130 121.7510 -11676.5194 -10949.0414 121.7510 -129.5446 -71.3430 29542.8933 -129.5446 -71.3430
ENERGY: 500000 0.4817 2.9376 3.9975 0.0000 -13834.9495 2322.1570 0.0000 0.0000 877.4057 -10627.9700 147.2014 -11505.3757 -10625.9778 149.9862 204.5054 232.1034 29338.3278 4.3831 4.5825
TCL: Running 100000 steps at 180 kelvin.
TCL: Setting parameter langevinTemp to 180
TCL: Running for 100000 steps
ETITLE: TS BOND ANGLE DIHED IMPRP ELECT VDW BOUNDARY MISC KINETIC TOTAL TEMP POTENTIAL TOTAL3 TEMPAVG PRESSURE GPRESSURE VOLUME PRESSAVG GPRESSAVG
ENERGY: 500000 0.4817 2.9376 3.9975 0.0000 -13834.9495 2322.1570 0.0000 0.0000 876.9614 -10628.4143 147.1269 -11505.3757 -10626.4016 147.1269 186.1100 231.0791 29338.3278 186.1100 231.0791
ENERGY: 600000 1.4154 3.9165 4.9305 0.0000 -13279.1096 2032.2127 0.0000 0.0000 1072.1122 -10164.5223 179.8671 -11236.6345 -10161.7087 179.7672 -1202.7989 -1118.1825 29699.6983 2.9490 3.0096
TCL: Running 100000 steps at 210 kelvin.
TCL: Setting parameter langevinTemp to 210
TCL: Running for 100000 steps
ETITLE: TS BOND ANGLE DIHED IMPRP ELECT VDW BOUNDARY MISC KINETIC TOTAL TEMP POTENTIAL TOTAL3 TEMPAVG PRESSURE GPRESSURE VOLUME PRESSAVG GPRESSAVG
ENERGY: 600000 1.4154 3.9165 4.9305 0.0000 -13279.1096 2032.2127 0.0000 0.0000 1071.5837 -10165.0508 179.7784 -11236.6345 -10162.2756 179.7784 -1181.7063 -1118.7524 29699.6983 -1181.7063 -1118.7524
ENERGY: 700000 3.1823 4.0112 6.9118 0.0000 -12574.0062 1860.8761 0.0000 0.0000 1238.6495 -9460.3754 207.8069 -10699.0249 -9458.0037 209.9187 -589.3781 -525.7237 29463.8585 2.8823 2.6804
TCL: Running 100000 steps at 240 kelvin.
TCL: Setting parameter langevinTemp to 240
TCL: Running for 100000 steps
ETITLE: TS BOND ANGLE DIHED IMPRP ELECT VDW BOUNDARY MISC KINETIC TOTAL TEMP POTENTIAL TOTAL3 TEMPAVG PRESSURE GPRESSURE VOLUME PRESSAVG GPRESSAVG
ENERGY: 700000 3.1823 4.0112 6.9118 0.0000 -12574.0062 1860.8761 0.0000 0.0000 1238.0316 -9460.9933 207.7032 -10699.0249 -9459.0635 207.7032 -595.8437 -525.7223 29463.8585 -595.8437 -525.7223
ENERGY: 800000 1.6974 3.2924 4.6664 0.0000 -12084.2747 1829.5529 0.0000 0.0000 1411.2655 -8833.8002 236.7665 -10245.0657 -8829.2551 240.1687 618.1066 677.3059 29610.6631 3.6672 3.6205
TCL: Running 100000 steps at 270 kelvin.
TCL: Setting parameter langevinTemp to 270
TCL: Running for 100000 steps
ETITLE: TS BOND ANGLE DIHED IMPRP ELECT VDW BOUNDARY MISC KINETIC TOTAL TEMP POTENTIAL TOTAL3 TEMPAVG PRESSURE GPRESSURE VOLUME PRESSAVG GPRESSAVG
ENERGY: 800000 1.6974 3.2924 4.6664 0.0000 -12084.2747 1829.5529 0.0000 0.0000 1410.5692 -8834.4965 236.6497 -10245.0657 -8832.4192 236.6497 602.8729 679.3431 29610.6631 602.8729 679.3431
ENERGY: 900000 1.3299 4.9448 4.9056 0.0000 -11438.9293 1588.6275 0.0000 0.0000 1557.7489 -8281.3726 261.3419 -9839.1215 -8278.3111 269.7474 -79.5133 69.0470 30174.8231 3.4727 3.4011
TCL: Running 1000000 steps at 300 kelvin.
TCL: Setting parameter langevinTemp to 300
TCL: Running for 1000000 steps
ETITLE: TS BOND ANGLE DIHED IMPRP ELECT VDW BOUNDARY MISC KINETIC TOTAL TEMP POTENTIAL TOTAL3 TEMPAVG PRESSURE GPRESSURE VOLUME PRESSAVG GPRESSAVG
ENERGY: 900000 1.3299 4.9448 4.9056 0.0000 -11438.9293 1588.6275 0.0000 0.0000 1556.9826 -8282.1389 261.2133 -9839.1215 -8279.7035 261.2133 -18.6577 69.1451 30174.8231 -18.6577 69.1451
ENERGY: 1100000 2.7911 3.9466 6.0857 0.0000 -10926.8510 1421.0491 0.0000 0.0000 1812.4343 -7680.5443 304.0702 -9492.9786 -7675.9096 300.7275 -730.0778 -603.6416 31269.1517 2.5831 2.4931
ENERGY: 1300000 3.8258 3.7870 6.5447 0.0000 -10951.1807 1486.2375 0.0000 0.0000 1802.5255 -7648.2602 302.4078 -9450.7858 -7643.9515 299.8645 -178.4588 -100.0065 31102.5929 2.1883 2.1766
ENERGY: 1500000 3.1025 4.4840 4.0835 0.0000 -10834.1799 1414.1771 0.0000 0.0000 1750.8873 -7657.4455 293.7445 -9408.3328 -7652.5682 300.6739 -284.8133 -225.1904 30853.3402 3.0071 2.9390
ENERGY: 1700000 1.9281 3.5853 8.8799 0.0000 -10874.7561 1419.7162 0.0000 0.0000 1692.4897 -7748.1569 283.9472 -9440.6466 -7744.8459 299.9951 -512.0711 -393.0585 31001.0036 3.1525 3.1625
ENERGY: 1900000 2.8544 8.2290 5.7728 0.0000 -10919.3904 1445.3421 0.0000 0.0000 1799.4704 -7657.7217 301.8952 -9457.1921 -7651.4463 300.1950 -109.7877 14.2815 30588.9568 4.2541 4.2880
TCL: Exiting due to exit command.
