Info: SIMULATION PARAMETERS:
Info: TIMESTEP               2
Info: NUMBER OF STEPS        0
Info: STEPS PER CYCLE        10
Info: PERIODIC CELL BASIS 1  34.207 0 0
Info: PERIODIC CELL BASIS 2  0 33.542 0
Info: PERIODIC CELL BASIS 3  0 0 37.451
Info: PERIODIC CELL CENTER   0 0 0
Info: WRAPPING WATERS AROUND PERIODIC BOUNDARIES ON OUTPUT.
Info: WRAPPING ALL CLUSTERS AROUND PERIODIC BOUNDARIES ON OUTPUT.
Info: FIRST LDB TIMESTEP     50
Info: LAST LDB TIMESTEP     -1
Info: HOM BACKGROUND SCALING 1
Info: PME BACKGROUND SCALING 1
Info: MIN ATOMS PER PATCH    40
Info: EMPTY PATCH LOAD       40 ATOMS
Info: INITIAL TEMPERATURE    300
Info: CENTER OF MASS MOVING INITIALLY? NO
Info: DIELECTRIC             1
Info: EXCLUDE                SCALED ONE-FOUR
Info: 1-4 ELECTROSTATICS SCALED BY 0.833333
Info: MODIFIED 1-4 VDW PARAMETERS WILL BE USED
Info: DCD FILENAME           mobley_7497999_equil.dcd
Info: DCD FREQUENCY          100000
Info: DCD FIRST STEP         100000
Info: DCD FILE WILL CONTAIN UNIT CELL DATA
Info: XST FILENAME           mobley_7497999_equil.xst
Info: XST FREQUENCY          100000
Info: NO VELOCITY DCD OUTPUT
Info: NO FORCE DCD OUTPUT
Info: OUTPUT FILENAME        mobley_7497999_equil
Info: BINARY OUTPUT FILES WILL BE USED
Info: RESTART FILENAME       mobley_7497999_equil.restart
Info: RESTART FREQUENCY      100000
Info: BINARY RESTART FILES WILL BE USED
Info: CUTOFF                 9
Info: PAIRLIST DISTANCE      11
Info: PAIRLIST SHRINK RATE   0.01
Info: PAIRLIST GROW RATE     0.01
Info: PAIRLIST TRIGGER       0.3
Info: PAIRLISTS PER CYCLE    2
Info: PAIRLISTS ENABLED
Info: MARGIN                 8
Info: HYDROGEN GROUP CUTOFF  2.5
Info: PATCH DIMENSION        21.5
Info: ENERGY OUTPUT STEPS    100000
Info: ENERGY EVALUATION STEPS    100000
Info: OUTPUT ENERGY PRECISION 4
Info: CROSSTERM ENERGY INCLUDED IN DIHEDRAL
Info: TIMING OUTPUT STEPS    1000000
Info: PRESSURE OUTPUT STEPS  100000
Info: LANGEVIN DYNAMICS ACTIVE
Info: LANGEVIN TEMPERATURE   30
Info: LANGEVIN USING BBK INTEGRATOR
Info: LANGEVIN DAMPING COEFFICIENT IS 1 INVERSE PS
Info: LANGEVIN DYNAMICS APPLIED TO HYDROGENS
Info: LANGEVIN PISTON PRESSURE CONTROL ACTIVE
Info:        TARGET PRESSURE IS 1.01325 BAR
Info:     OSCILLATION PERIOD IS 50 FS
Info:             DECAY TIME IS 25 FS
Info:     PISTON TEMPERATURE IS 300 K
Info:       PRESSURE CONTROL IS GROUP-BASED
Info:    INITIAL STRAIN RATE IS 0 0 0
Info:       CELL FLUCTUATION IS ISOTROPIC
Info: PARTICLE MESH EWALD (PME) ACTIVE
Info: PME TOLERANCE               1e-06
Info: PME EWALD COEFFICIENT       0.348832
Info: PME INTERPOLATION ORDER     4
Info: PME GRID DIMENSIONS         36 36 40
Info: PME MAXIMUM GRID SPACING    1
Info: FULL ELECTROSTATIC EVALUATION FREQUENCY      2
Info: USING VERLET I (r-RESPA) MTS SCHEME.
Info: C1 SPLITTING OF LONG RANGE ELECTROSTATICS
Info: PLACING ATOMS IN PATCHES BY HYDROGEN GROUPS
Info: RIGID BONDS TO HYDROGEN : ALL
Info:         ERROR TOLERANCE : 1e-08
Info:          MAX ITERATIONS : 100
Info: RIGID WATER USING SETTLE ALGORITHM
Info: RANDOM NUMBER SEED     1743232081
Info: USE HYDROGEN BONDS?    NO
Info: Using AMBER format force field!
Info: AMBER PARM FILE        mobley_7497999.prmtop
Info: COORDINATE PDB         mobley_7497999.pdb
Info: Exclusions will be read from PARM file!
Info: SCNB (VDW SCALING)     2
Info: USING ARITHMETIC MEAN TO COMBINE L-J SIGMA PARAMETERS
Info: BINARY COORDINATES     mobley_7497999_min.coor
Info: SUMMARY OF PARAMETERS:
Info: 8 BONDS
Info: 8 ANGLES
Info: 8 DIHEDRAL
Info: 0 IMPROPER
Info: 0 CROSSTERM
Info: 0 VDW
Info: 28 VDW_PAIRS
Info: 0 NBTHOLE_PAIRS
Info: STRUCTURE SUMMARY:
Info: 2945 ATOMS
Info: 2945 BONDS
Info: 27 ANGLES
Info: 47 DIHEDRALS
Info: 0 IMPROPERS
Info: 0 CROSSTERMS
Info: 3003 EXCLUSIONS
Info: 2936 RIGID BONDS
Info: 5899 DEGREES OF FREEDOM
Info: 985 HYDROGEN GROUPS
Info: 4 ATOMS IN LARGEST HYDROGEN GROUP
Info: 985 MIGRATION GROUPS
Info: 4 ATOMS IN LARGEST MIGRATION GROUP
Info: TOTAL MASS = 17703.8 amu
Info: TOTAL CHARGE = 9.99868e-05 e
Info: MASS DENSITY = 0.68416 g/cm^3
Info: ATOM DENSITY = 0.0685359 atoms/A^3
Info: ADDED 0 IMPLICIT EXCLUSIONS
Info: NONBONDED TABLE R-SQUARED SPACING: 0.0625
Info: NONBONDED TABLE SIZE: 705 POINTS
Info: REMOVING COM VELOCITY 0.00814666 0.160037 -0.160556
TCL: Running for 100000 steps
ETITLE: TS BOND ANGLE DIHED IMPRP ELECT VDW BOUNDARY MISC KINETIC TOTAL TEMP POTENTIAL TOTAL3 TEMPAVG PRESSURE GPRESSURE VOLUME PRESSAVG GPRESSAVG
ENERGY: 0 0.3616 0.6695 2.7028 0.0000 -13533.0408 2361.9061 0.0000 0.0000 1770.5054 -9396.8953 302.0712 -11167.4007 -9396.5378 302.0712 284.0406 328.9029 42970.1986 284.0406 328.9029
ENERGY: 100000 0.6225 1.0447 3.1764 0.0000 -14346.8366 2612.7628 0.0000 0.0000 178.5792 -11550.6510 30.4679 -11729.2302 -11550.4468 30.8903 1271.0445 1314.3427 28354.1981 3.7397 3.7359
TCL: Running 100000 steps at 60 kelvin.
TCL: Setting parameter langevinTemp to 60
TCL: Running for 100000 steps
ETITLE: TS BOND ANGLE DIHED IMPRP ELECT VDW BOUNDARY MISC KINETIC TOTAL TEMP POTENTIAL TOTAL3 TEMPAVG PRESSURE GPRESSURE VOLUME PRESSAVG GPRESSAVG
ENERGY: 100000 0.6225 1.0447 3.1764 0.0000 -14346.8366 2612.7628 0.0000 0.0000 178.4935 -11550.7366 30.4533 -11729.2302 -11550.4930 30.4533 1257.9566 1314.1106 28354.1981 1257.9566 1314.1106
ENERGY: 200000 1.6915 1.7441 5.1009 0.0000 -14049.4130 2380.0351 0.0000 0.0000 355.4544 -11305.3870 60.6451 -11660.8414 -11304.8787 60.0847 -537.8496 -491.3666 28410.8702 4.6857 4.7464
TCL: Running 100000 steps at 90 kelvin.
TCL: Setting parameter langevinTemp to 90
TCL: Running for 100000 steps
ETITLE: TS BOND ANGLE DIHED IMPRP ELECT VDW BOUNDARY MISC KINETIC TOTAL TEMP POTENTIAL TOTAL3 TEMPAVG PRESSURE GPRESSURE VOLUME PRESSAVG GPRESSAVG
ENERGY: 200000 1.6915 1.7441 5.1009 0.0000 -14049.4130 2380.0351 0.0000 0.0000 355.2771 -11305.5643 60.6149 -11660.8414 -11304.8715 60.6149 -552.8998 -491.3957 28410.8702 -552.8998 -491.3957
ENERGY: 300000 1.7047 1.5794 4.5036 0.0000 -14037.7246 2427.5616 0.0000 0.0000 532.4695 -11069.9057 90.8462 -11602.3752 -11068.4913 90.0776 266.4784 327.6417 28232.8701 3.7660 3.7840
TCL: Running 100000 steps at 120 kelvin.
TCL: Setting parameter langevinTemp to 120
TCL: Running for 100000 steps
ETITLE: TS BOND ANGLE DIHED IMPRP ELECT VDW BOUNDARY MISC KINETIC TOTAL TEMP POTENTIAL TOTAL3 TEMPAVG PRESSURE GPRESSURE VOLUME PRESSAVG GPRESSAVG
ENERGY: 300000 1.7047 1.5794 4.5036 0.0000 -14037.7246 2427.5616 0.0000 0.0000 532.2016 -11070.1736 90.8005 -11602.3752 -11068.9445 90.8005 285.4016 327.4088 28232.8701 285.4016 327.4088
ENERGY: 400000 4.0859 3.4580 4.4736 0.0000 -13604.3267 2154.8200 0.0000 0.0000 708.6047 -10728.8845 120.8971 -11437.4892 -10727.5031 119.8582 -1856.4039 -1802.0986 29081.6660 2.5785 2.5650
TCL: Running 100000 steps at 150 kelvin.
TCL: Setting parameter langevinTemp to 150
TCL: Running for 100000 steps
ETITLE: TS BOND ANGLE DIHED IMPRP ELECT VDW BOUNDARY MISC KINETIC TOTAL TEMP POTENTIAL TOTAL3 TEMPAVG PRESSURE GPRESSURE VOLUME PRESSAVG GPRESSAVG
ENERGY: 400000 4.0859 3.4580 4.4736 0.0000 -13604.3267 2154.8200 0.0000 0.0000 708.2413 -10729.2479 120.8351 -11437.4892 -10727.3214 120.8351 -1849.2184 -1802.3339 29081.6660 -1849.2184 -1802.3339
ENERGY: 500000 2.1058 2.4339 6.3613 0.0000 -13521.9465 2248.1029 0.0000 0.0000 903.3064 -10359.6363 154.1158 -11262.9426 -10357.9433 150.1611 1.6227 56.4526 28672.3394 3.4903 3.4935
TCL: Running 100000 steps at 180 kelvin.
TCL: Setting parameter langevinTemp to 180
TCL: Running for 100000 steps
ETITLE: TS BOND ANGLE DIHED IMPRP ELECT VDW BOUNDARY MISC KINETIC TOTAL TEMP POTENTIAL TOTAL3 TEMPAVG PRESSURE GPRESSURE VOLUME PRESSAVG GPRESSAVG
ENERGY: 500000 2.1058 2.4339 6.3613 0.0000 -13521.9465 2248.1029 0.0000 0.0000 902.8606 -10360.0821 154.0397 -11262.9426 -10358.2057 154.0397 2.5699 56.2283 28672.3394 2.5699 56.2283
ENERGY: 600000 2.6007 3.1404 3.5946 0.0000 -13100.6879 2121.8086 0.0000 0.0000 1054.0518 -9915.4918 179.8349 -10969.5436 -9913.1208 180.0019 213.8765 214.4677 28505.2000 4.1496 4.2044
TCL: Running 100000 steps at 210 kelvin.
TCL: Setting parameter langevinTemp to 210
TCL: Running for 100000 steps
ETITLE: TS BOND ANGLE DIHED IMPRP ELECT VDW BOUNDARY MISC KINETIC TOTAL TEMP POTENTIAL TOTAL3 TEMPAVG PRESSURE GPRESSURE VOLUME PRESSAVG GPRESSAVG
ENERGY: 600000 2.6007 3.1404 3.5946 0.0000 -13100.6879 2121.8086 0.0000 0.0000 1053.5574 -9915.9861 179.7505 -10969.5436 -9914.1603 179.7505 163.5054 215.0894 28505.2000 163.5054 215.0894
ENERGY: 700000 3.4958 3.2130 4.4370 0.0000 -12465.7415 1927.3690 0.0000 0.0000 1249.0388 -9278.1879 213.1022 -10527.2267 -9278.2949 210.3699 554.1682 560.8076 28210.8204 5.5810 5.6087
TCL: Running 100000 steps at 240 kelvin.
TCL: Setting parameter langevinTemp to 240
TCL: Running for 100000 steps
ETITLE: TS BOND ANGLE DIHED IMPRP ELECT VDW BOUNDARY MISC KINETIC TOTAL TEMP POTENTIAL TOTAL3 TEMPAVG PRESSURE GPRESSURE VOLUME PRESSAVG GPRESSAVG
ENERGY: 700000 3.4958 3.2130 4.4370 0.0000 -12465.7415 1927.3690 0.0000 0.0000 1248.4240 -9278.8027 212.9973 -10527.2267 -9276.5621 212.9973 493.7888 559.3298 28210.8204 493.7888 559.3298
ENERGY: 800000 1.2588 6.5627 5.7058 0.0000 -11776.7022 1735.0349 0.0000 0.0000 1417.1707 -8610.9694 241.7877 -10028.1401 -8608.4329 240.5214 360.0596 439.3133 28928.9941 3.4191 3.4570
TCL: Running 100000 steps at 270 kelvin.
TCL: Setting parameter langevinTemp to 270
TCL: Running for 100000 steps
ETITLE: TS BOND ANGLE DIHED IMPRP ELECT VDW BOUNDARY MISC KINETIC TOTAL TEMP POTENTIAL TOTAL3 TEMPAVG PRESSURE GPRESSURE VOLUME PRESSAVG GPRESSAVG
ENERGY: 800000 1.2588 6.5627 5.7058 0.0000 -11776.7022 1735.0349 0.0000 0.0000 1416.4584 -8611.6817 241.6661 -10028.1401 -8609.3866 241.6661 362.8803 440.3830 28928.9941 362.8803 440.3830
ENERGY: 900000 1.7926 3.4721 6.5741 0.0000 -11057.0697 1462.3460 0.0000 0.0000 1568.0354 -8014.8495 267.5271 -9582.8849 -8012.4213 269.7386 -945.4574 -840.7215 29973.2119 3.6673 3.7878
TCL: Running 1000000 steps at 300 kelvin.
TCL: Setting parameter langevinTemp to 300
TCL: Running for 1000000 steps
ETITLE: TS BOND ANGLE DIHED IMPRP ELECT VDW BOUNDARY MISC KINETIC TOTAL TEMP POTENTIAL TOTAL3 TEMPAVG PRESSURE GPRESSURE VOLUME PRESSAVG GPRESSAVG
ENERGY: 900000 1.7926 3.4721 6.5741 0.0000 -11057.0697 1462.3460 0.0000 0.0000 1567.2487 -8015.6362 267.3929 -9582.8849 -8012.9182 267.3929 -929.8889 -841.8014 29973.2119 -929.8889 -841.8014
ENERGY: 1100000 2.0535 4.6175 6.3169 0.0000 -10749.7314 1525.8149 0.0000 0.0000 1766.4515 -7444.4771 301.3795 -9210.9286 -7441.5228 300.4985 755.6409 834.7597 30034.7118 1.7821 1.4797
ENERGY: 1300000 1.7457 10.0325 5.0345 0.0000 -10587.6180 1317.1012 0.0000 0.0000 1717.0423 -7536.6619 292.9497 -9253.7042 -7532.3795 300.1350 -938.8589 -845.7437 30260.9150 2.9766 3.0771
ENERGY: 1500000 5.3467 5.1837 8.6477 0.0000 -10736.0388 1381.3695 0.0000 0.0000 1787.9630 -7547.5282 305.0496 -9335.4912 -7543.2826 299.8956 -787.9341 -700.5691 30265.1071 3.4917 3.6505
ENERGY: 1700000 1.0279 3.9745 4.3275 0.0000 -10701.4324 1388.0945 0.0000 0.0000 1790.0200 -7513.9881 305.4006 -9304.0081 -7509.4184 299.3486 -442.7072 -387.0436 30317.0983 4.4918 4.6521
ENERGY: 1900000 2.5895 5.6093 5.4163 0.0000 -10623.8555 1387.4610 0.0000 0.0000 1777.4706 -7445.3087 303.2595 -9222.7793 -7439.7886 300.2195 -437.7540 -340.9257 30285.8184 2.3477 2.3276
TCL: Exiting due to exit command.
