Info: SIMULATION PARAMETERS:
Info: TIMESTEP               2
Info: NUMBER OF STEPS        0
Info: STEPS PER CYCLE        10
Info: PERIODIC CELL BASIS 1  31.028 0 0
Info: PERIODIC CELL BASIS 2  0 30.3841 0
Info: PERIODIC CELL BASIS 3  0 0 32.1038
Info: PERIODIC CELL CENTER   0 0 0
Info: WRAPPING WATERS AROUND PERIODIC BOUNDARIES ON OUTPUT.
Info: WRAPPING ALL CLUSTERS AROUND PERIODIC BOUNDARIES ON OUTPUT.
Info: FIRST LDB TIMESTEP     50
Info: LAST LDB TIMESTEP     -1
Info: HOM BACKGROUND SCALING 1
Info: PME BACKGROUND SCALING 1
Info: MIN ATOMS PER PATCH    40
Info: EMPTY PATCH LOAD       40 ATOMS
Info: VELOCITY FILE          mobley_664966_equil.vel
Info: CENTER OF MASS MOVING INITIALLY? NO
Info: DIELECTRIC             1
Info: EXCLUDE                SCALED ONE-FOUR
Info: 1-4 ELECTROSTATICS SCALED BY 0.833333
Info: MODIFIED 1-4 VDW PARAMETERS WILL BE USED
Info: DCD FILENAME           mobley_664966_prod.dcd
Info: DCD FREQUENCY          100000
Info: DCD FIRST STEP         100000
Info: DCD FILE WILL CONTAIN UNIT CELL DATA
Info: XST FILENAME           mobley_664966_prod.xst
Info: XST FREQUENCY          100000
Info: NO VELOCITY DCD OUTPUT
Info: NO FORCE DCD OUTPUT
Info: OUTPUT FILENAME        mobley_664966_prod
Info: BINARY OUTPUT FILES WILL BE USED
Info: RESTART FILENAME       mobley_664966_prod.restart
Info: RESTART FREQUENCY      100000
Info: BINARY RESTART FILES WILL BE USED
Info: CUTOFF                 9
Info: PAIRLIST DISTANCE      11
Info: PAIRLIST SHRINK RATE   0.01
Info: PAIRLIST GROW RATE     0.01
Info: PAIRLIST TRIGGER       0.3
Info: PAIRLISTS PER CYCLE    2
Info: PAIRLISTS ENABLED
Info: MARGIN                 2
Info: HYDROGEN GROUP CUTOFF  2.5
Info: PATCH DIMENSION        15.5
Info: ENERGY OUTPUT STEPS    100000
Info: ENERGY EVALUATION STEPS    100000
Info: OUTPUT ENERGY PRECISION 4
Info: CROSSTERM ENERGY INCLUDED IN DIHEDRAL
Info: TIMING OUTPUT STEPS    1000000
Info: PRESSURE OUTPUT STEPS  100000
Info: ALCHEMICAL FEP ON
Info: FEP CURRENT LAMBDA VALUE     0
Info: FEP COMPARISON LAMBDA VALUE  0.05
Info: FEP INTRA-ALCHEMICAL NON-BONDED INTERACTIONS WILL BE RETAINED
Info: FEP INTRA-ALCHEMICAL BONDED INTERACTIONS WILL BE RETAINED
Info: FEP VDW SHIFTING COEFFICIENT 5
Info: FEP ELEC. ACTIVE FOR ANNIHILATED PARTICLES BETWEEN LAMBDA = 0 AND LAMBDA = 0.5
Info: FEP ELEC. ACTIVE FOR EXNIHILATED PARTICLES BETWEEN LAMBDA = 0.5 AND LAMBDA = 1
Info: FEP VDW ACTIVE FOR ANNIHILATED PARTICLES BETWEEN LAMBDA = 0 AND LAMBDA = 1
Info: FEP VDW ACTIVE FOR EXNIHILATED PARTICLES BETWEEN LAMBDA = 0 AND LAMBDA = 1
Info: FEP BOND ACTIVE FOR ANNIHILATED PARTICLES BETWEEN LAMBDA = 1 AND LAMBDA = 1
Info: FEP BOND ACTIVE FOR EXNIHILATED PARTICLES BETWEEN LAMBDA = 0 AND LAMBDA = 0
Info: LANGEVIN DYNAMICS ACTIVE
Info: LANGEVIN TEMPERATURE   300
Info: LANGEVIN USING BBK INTEGRATOR
Info: LANGEVIN DAMPING COEFFICIENT IS 1 INVERSE PS
Info: LANGEVIN DYNAMICS APPLIED TO HYDROGENS
Info: LANGEVIN PISTON PRESSURE CONTROL ACTIVE
Info:        TARGET PRESSURE IS 1.01325 BAR
Info:     OSCILLATION PERIOD IS 50 FS
Info:             DECAY TIME IS 25 FS
Info:     PISTON TEMPERATURE IS 300 K
Info:       PRESSURE CONTROL IS GROUP-BASED
Info:    INITIAL STRAIN RATE IS -0.00037758 -0.00037758 -0.00037758
Info:       CELL FLUCTUATION IS ISOTROPIC
Info: PARTICLE MESH EWALD (PME) ACTIVE
Info: PME TOLERANCE               1e-06
Info: PME EWALD COEFFICIENT       0.348832
Info: PME INTERPOLATION ORDER     4
Info: PME GRID DIMENSIONS         32 32 36
Info: PME MAXIMUM GRID SPACING    1
Info: PME CALCULATION WILL BE PERFORMED ON GPU
Info: FULL ELECTROSTATIC EVALUATION FREQUENCY      2
Info: USING VERLET I (r-RESPA) MTS SCHEME.
Info: C1 SPLITTING OF LONG RANGE ELECTROSTATICS
Info: PLACING ATOMS IN PATCHES BY HYDROGEN GROUPS
Info: RIGID BONDS TO HYDROGEN : ALL
Info:         ERROR TOLERANCE : 1e-08
Info:          MAX ITERATIONS : 100
Info: RIGID WATER USING SETTLE ALGORITHM
Info: RANDOM NUMBER SEED     1743390829
Info: USE HYDROGEN BONDS?    NO
Info: Using AMBER format force field!
Info: AMBER PARM FILE        mobley_664966.prmtop
Info: COORDINATE PDB         mobley_664966.pdb
Info: Exclusions will be read from PARM file!
Info: SCNB (VDW SCALING)     2
Info: USING ARITHMETIC MEAN TO COMBINE L-J SIGMA PARAMETERS
Info: BINARY COORDINATES     mobley_664966_equil.coor
Info: SUMMARY OF PARAMETERS:
Info: 4 BONDS
Info: 3 ANGLES
Info:   3 HARMONIC
Info:   0 COSINE-BASED
Info: 0 DIHEDRAL
Info: 0 IMPROPER
Info: 0 CROSSTERM
Info: 0 VDW
Info: 15 VDW_PAIRS
Info: 0 NBTHOLE_PAIRS
Info: To read alchdata from file: mobley_664966.pdb
Info: To read alchflag data from column: 5
Info: STRUCTURE SUMMARY:
Info: 2933 ATOMS
Info: 2932 BONDS
Info: 6 ANGLES
Info: 0 DIHEDRALS
Info: 0 IMPROPERS
Info: 0 CROSSTERMS
Info: 2938 EXCLUSIONS
Info: 2930 RIGID BONDS
Info: ALCH: 0 ATOMS TO DISAPPEAR IN FINAL STATE
Info: ALCH: 5 ATOMS TO APPEAR IN FINAL STATE
Info: 5869 DEGREES OF FREEDOM
Info: 979 HYDROGEN GROUPS
Info: 3 ATOMS IN LARGEST HYDROGEN GROUP
Info: 979 MIGRATION GROUPS
Info: 3 ATOMS IN LARGEST MIGRATION GROUP
Info: TOTAL MASS = 17851.4 amu
Info: TOTAL CHARGE = -0.000200003 e
Info: MASS DENSITY = 0.979434 g/cm^3
Info: ATOM DENSITY = 0.0969069 atoms/A^3
Info: ADDED 0 IMPLICIT EXCLUSIONS
Info: NONBONDED TABLE R-SQUARED SPACING: 0.0625
Info: NONBONDED TABLE SIZE: 705 POINTS
Info: REMOVING COM VELOCITY 0.0199828 0.109752 -0.0904295
Info: Use 3D box decompostion in PME FFT.
Info: Updated CUDA force table with 4096 elements.
Info: Updated CUDA LJ table with 5 x 5 elements.
Info: Found 8 unique exclusion lists needing 8 bytes
TCL: Running for 1500000 steps
ETITLE: TS BOND ANGLE DIHED IMPRP ELECT VDW BOUNDARY MISC KINETIC TOTAL TEMP POTENTIAL TOTALAVG TEMPAVG PRESSURE GPRESSURE VOLUME PRESSAVG GPRESSAVG
ENERGY: 0 0.5480 1.2424 0.0000 0.0000 -10648.3696 1405.8698 0.0000 0.0000 1720.0750 -7520.6344 294.9672 -9240.7095 -7520.6344 294.9672 -262.4351 -187.2637 30266.1659 -262.4351 -187.2637
ENERGY: 300000 0.4777 0.8399 0.0000 0.0000 -10750.9849 1423.7276 0.0000 0.0000 1733.5269 -7592.4128 297.2740 -9325.9397 -7517.8993 299.6523 -350.4581 -316.7396 30012.8764 102.0124 156.4706
ENERGY: 600000 0.3578 1.0622 0.0000 0.0000 -10682.6629 1462.3286 0.0000 0.0000 1766.9478 -7451.9666 303.0051 -9218.9144 -7499.4005 300.4522 250.4783 270.3157 30126.7552 216.0011 249.4194
ENERGY: 900000 1.4576 1.2120 0.0000 0.0000 -10825.5141 1497.3119 0.0000 0.0000 1723.5489 -7601.9836 295.5629 -9325.5325 -7490.1029 301.2549 371.0212 435.4249 29808.2891 87.0632 135.8026
ENERGY: 1200000 0.0726 1.3967 0.0000 0.0000 -10744.1468 1509.5713 0.0000 0.0000 1779.6365 -7453.4698 305.1811 -9233.1063 -7485.4810 300.7602 855.9883 907.1455 29723.6488 152.5225 201.4717
ENERGY: 1500000 0.2353 1.1215 0.0000 0.0000 -10497.4060 1363.2292 0.0000 0.0000 1783.8603 -7348.9598 305.9054 -9132.8201 -7475.6002 301.2377 -203.8559 -150.8095 30139.4745 89.2861 141.6942
TCL: Running FEP window   2: Lambda1 0.05   Lambda2 0.1    [dLambda 0.05  ]
TCL: Setting parameter firsttimestep to 0
TCL: Setting parameter alchLambda to 0.05
Info: NONBONDED TABLE R-SQUARED SPACING: 0.0625
Info: NONBONDED TABLE SIZE: 705 POINTS
TCL: Setting parameter alchLambda2 to 0.1
Info: NONBONDED TABLE R-SQUARED SPACING: 0.0625
Info: NONBONDED TABLE SIZE: 705 POINTS
TCL: Running for 1500000 steps
ETITLE: TS BOND ANGLE DIHED IMPRP ELECT VDW BOUNDARY MISC KINETIC TOTAL TEMP POTENTIAL TOTALAVG TEMPAVG PRESSURE GPRESSURE VOLUME PRESSAVG GPRESSAVG
ENERGY: 0 0.2353 1.1215 0.0000 0.0000 -10497.4051 1366.2290 0.0000 0.0000 1782.9797 -7346.8396 305.7544 -9129.8193 -7346.8396 305.7544 -237.5095 -140.9186 30139.4745 -237.5095 -140.9186
ENERGY: 300000 0.0285 1.4710 0.0000 0.0000 -10636.9871 1365.6730 0.0000 0.0000 1788.0064 -7481.8082 306.6164 -9269.8145 -7445.9759 301.6439 -485.5510 -447.3936 30168.4034 -26.9688 47.3880
ENERGY: 600000 0.0267 1.1461 0.0000 0.0000 -10699.6317 1454.6207 0.0000 0.0000 1727.9506 -7515.8876 296.3177 -9243.8382 -7466.3125 300.1389 -160.5100 -114.2225 30685.8621 111.9057 169.2051
ENERGY: 900000 0.4418 2.2786 0.0000 0.0000 -10721.1834 1510.9578 0.0000 0.0000 1750.5184 -7456.9868 300.1877 -9207.5052 -7484.3633 299.5396 407.1349 492.7975 30225.9284 59.8609 121.1581
ENERGY: 1200000 0.6079 1.3695 0.0000 0.0000 -10744.8459 1440.8736 0.0000 0.0000 1775.5534 -7526.4415 304.4809 -9301.9949 -7488.3323 300.1261 -299.5026 -185.8825 30123.6260 -16.2959 47.9337
ENERGY: 1500000 0.8931 1.8793 0.0000 0.0000 -10659.6606 1466.2605 0.0000 0.0000 1752.0732 -7438.5545 300.4544 -9190.6277 -7477.8159 300.5718 354.1867 458.2824 29831.9259 60.0928 120.1398
TCL: Running FEP window   3: Lambda1 0.1    Lambda2 0.15000000000000002 [dLambda 0.05000000000000002]
TCL: Setting parameter firsttimestep to 0
TCL: Setting parameter alchLambda to 0.1
Info: NONBONDED TABLE R-SQUARED SPACING: 0.0625
Info: NONBONDED TABLE SIZE: 705 POINTS
TCL: Setting parameter alchLambda2 to 0.15000000000000002
Info: NONBONDED TABLE R-SQUARED SPACING: 0.0625
Info: NONBONDED TABLE SIZE: 705 POINTS
TCL: Running for 1500000 steps
ETITLE: TS BOND ANGLE DIHED IMPRP ELECT VDW BOUNDARY MISC KINETIC TOTAL TEMP POTENTIAL TOTALAVG TEMPAVG PRESSURE GPRESSURE VOLUME PRESSAVG GPRESSAVG
ENERGY: 0 0.8931 1.8793 0.0000 0.0000 -10659.6619 1470.4877 0.0000 0.0000 1751.2118 -7435.1901 300.3066 -9186.4018 -7435.1901 300.3066 378.4502 473.8411 29831.9259 378.4502 473.8411
ENERGY: 300000 0.9576 5.2400 0.0000 0.0000 -10586.0399 1390.2920 0.0000 0.0000 1795.1358 -7394.4145 307.8390 -9189.5503 -7464.8617 301.3261 -240.7862 -160.2744 30354.5341 541.8917 601.8660
ENERGY: 600000 0.3955 2.0728 0.0000 0.0000 -10712.3812 1463.7275 0.0000 0.0000 1742.8721 -7503.3133 298.8765 -9246.1853 -7452.1222 301.8355 249.9456 332.6281 29769.5945 427.3732 511.1985
ENERGY: 900000 0.0611 2.7033 0.0000 0.0000 -10684.9754 1481.9670 0.0000 0.0000 1780.6744 -7419.5696 305.3591 -9200.2440 -7443.8126 302.1374 263.7654 303.7311 30408.8441 266.3194 343.8746
ENERGY: 1200000 0.2556 1.5172 0.0000 0.0000 -10623.2186 1412.5760 0.0000 0.0000 1792.1011 -7416.7687 307.3186 -9208.8698 -7448.3629 302.1025 -363.2049 -295.3582 30663.4592 114.8631 191.7792
ENERGY: 1500000 0.2505 0.7316 0.0000 0.0000 -10579.1828 1343.7392 0.0000 0.0000 1769.5632 -7464.8983 303.4536 -9234.4615 -7450.4366 301.9973 -611.7334 -602.1349 30135.3234 51.5099 120.1492
TCL: Running FEP window   4: Lambda1 0.15000000000000002 Lambda2 0.2    [dLambda 0.04999999999999999]
TCL: Setting parameter firsttimestep to 0
TCL: Setting parameter alchLambda to 0.15000000000000002
Info: NONBONDED TABLE R-SQUARED SPACING: 0.0625
Info: NONBONDED TABLE SIZE: 705 POINTS
TCL: Setting parameter alchLambda2 to 0.2
Info: NONBONDED TABLE R-SQUARED SPACING: 0.0625
Info: NONBONDED TABLE SIZE: 705 POINTS
TCL: Running for 1500000 steps
ETITLE: TS BOND ANGLE DIHED IMPRP ELECT VDW BOUNDARY MISC KINETIC TOTAL TEMP POTENTIAL TOTALAVG TEMPAVG PRESSURE GPRESSURE VOLUME PRESSAVG GPRESSAVG
ENERGY: 0 0.2505 0.7316 0.0000 0.0000 -10579.1837 1344.5970 0.0000 0.0000 1768.7129 -7464.8916 303.3078 -9233.6046 -7464.8916 303.3078 -689.7270 -597.2251 30135.3234 -689.7270 -597.2251
ENERGY: 300000 0.4412 1.2493 0.0000 0.0000 -10617.2181 1382.0560 0.0000 0.0000 1808.8265 -7424.6451 310.1867 -9233.4717 -7449.0237 302.2606 -435.9662 -282.4762 29974.5766 -349.5811 -260.4318
ENERGY: 600000 0.3215 1.6361 0.0000 0.0000 -10560.9578 1356.8292 0.0000 0.0000 1694.8485 -7507.3225 290.6412 -9202.1710 -7447.2243 299.9267 -528.9346 -535.5998 30317.2613 -415.8333 -347.3786
ENERGY: 900000 0.2352 1.7531 0.0000 0.0000 -10680.9292 1445.9846 0.0000 0.0000 1789.0796 -7443.8767 306.8004 -9232.9563 -7455.0525 301.0227 -49.3328 59.4155 30264.3524 -356.5468 -289.7515
ENERGY: 1200000 0.1309 1.7574 0.0000 0.0000 -10646.8994 1426.5673 0.0000 0.0000 1750.6191 -7467.8248 300.2050 -9218.4439 -7466.3861 301.1968 -251.4147 -115.3504 30438.3815 -236.7852 -161.8548
ENERGY: 1500000 0.6701 1.7089 0.0000 0.0000 -10724.6848 1504.0387 0.0000 0.0000 1788.1557 -7430.1115 306.6420 -9218.2672 -7469.4922 300.8594 576.6502 690.9312 29833.7325 -85.0913 -6.6912
TCL: Running FEP window   5: Lambda1 0.2    Lambda2 0.25   [dLambda 0.04999999999999999]
TCL: Setting parameter firsttimestep to 0
TCL: Setting parameter alchLambda to 0.2
Info: NONBONDED TABLE R-SQUARED SPACING: 0.0625
Info: NONBONDED TABLE SIZE: 705 POINTS
TCL: Setting parameter alchLambda2 to 0.25
Info: NONBONDED TABLE R-SQUARED SPACING: 0.0625
Info: NONBONDED TABLE SIZE: 705 POINTS
TCL: Running for 1500000 steps
ETITLE: TS BOND ANGLE DIHED IMPRP ELECT VDW BOUNDARY MISC KINETIC TOTAL TEMP POTENTIAL TOTALAVG TEMPAVG PRESSURE GPRESSURE VOLUME PRESSAVG GPRESSAVG
ENERGY: 0 0.6701 1.7089 0.0000 0.0000 -10724.6853 1505.3137 0.0000 0.0000 1787.2608 -7429.7319 306.4885 -9216.9926 -7429.7319 306.4885 617.8395 699.7064 29833.7325 617.8395 699.7064
ENERGY: 300000 1.3891 4.1348 0.0000 0.0000 -10636.3911 1471.6987 0.0000 0.0000 1746.0314 -7413.1371 299.4183 -9159.1685 -7447.7925 301.4782 359.9925 457.6737 30114.1926 243.7664 332.8228
ENERGY: 600000 0.0506 0.9629 0.0000 0.0000 -10692.7515 1430.4718 0.0000 0.0000 1750.1885 -7511.0776 300.1312 -9261.2661 -7437.1013 302.5339 -14.5901 74.6123 29918.7099 49.9157 147.2276
ENERGY: 900000 1.0598 0.9631 0.0000 0.0000 -10751.3628 1536.8602 0.0000 0.0000 1796.8136 -7415.6662 308.1267 -9212.4797 -7448.2763 303.5086 915.3518 866.6288 30256.5365 130.8966 211.0509
ENERGY: 1200000 0.6527 0.8757 0.0000 0.0000 -10584.1377 1433.6873 0.0000 0.0000 1739.9328 -7408.9892 298.3725 -9148.9220 -7446.8181 303.3900 220.2192 278.1802 30540.9783 95.5350 169.1698
ENERGY: 1500000 1.1942 2.0718 0.0000 0.0000 -10834.9473 1529.9923 0.0000 0.0000 1780.8215 -7520.8674 305.3843 -9301.6889 -7455.7544 303.0945 865.2969 931.4037 29520.0249 120.2280 192.3552
TCL: Running FEP window   6: Lambda1 0.25   Lambda2 0.3    [dLambda 0.04999999999999999]
TCL: Setting parameter firsttimestep to 0
TCL: Setting parameter alchLambda to 0.25
Info: NONBONDED TABLE R-SQUARED SPACING: 0.0625
Info: NONBONDED TABLE SIZE: 705 POINTS
TCL: Setting parameter alchLambda2 to 0.3
Info: NONBONDED TABLE R-SQUARED SPACING: 0.0625
Info: NONBONDED TABLE SIZE: 705 POINTS
TCL: Running for 1500000 steps
ETITLE: TS BOND ANGLE DIHED IMPRP ELECT VDW BOUNDARY MISC KINETIC TOTAL TEMP POTENTIAL TOTALAVG TEMPAVG PRESSURE GPRESSURE VOLUME PRESSAVG GPRESSAVG
ENERGY: 0 1.1942 2.0718 0.0000 0.0000 -10834.9468 1529.7696 0.0000 0.0000 1779.9639 -7521.9473 305.2372 -9301.9111 -7521.9473 305.2372 854.0028 933.4147 29520.0249 854.0028 933.4147
ENERGY: 300000 0.0894 0.9136 0.0000 0.0000 -10619.6613 1408.1082 0.0000 0.0000 1698.3801 -7512.1699 291.2468 -9210.5500 -7486.0938 301.8874 -449.8392 -374.8680 30698.1323 87.4747 160.1156
ENERGY: 600000 0.0233 0.5638 0.0000 0.0000 -10701.4781 1452.7201 0.0000 0.0000 1755.7988 -7492.3721 301.0933 -9248.1709 -7491.6739 301.2355 -220.7628 -129.3422 30514.4057 -43.8805 23.6412
ENERGY: 900000 0.2158 3.6497 0.0000 0.0000 -10550.2020 1420.1567 0.0000 0.0000 1765.9754 -7360.2044 302.8384 -9126.1798 -7477.7520 300.8348 -118.7020 -92.2135 30834.9745 -178.7166 -118.8589
ENERGY: 1200000 0.8189 1.8944 0.0000 0.0000 -10619.1801 1436.0908 0.0000 0.0000 1686.1681 -7494.2079 289.1526 -9180.3760 -7487.9262 299.4672 -97.3593 -84.5947 30596.9990 -157.5875 -103.5048
ENERGY: 1500000 0.1742 3.2428 0.0000 0.0000 -10684.0946 1367.6775 0.0000 0.0000 1711.5362 -7601.4639 293.5029 -9313.0001 -7484.9169 300.1319 -687.5876 -659.2194 30204.2006 -104.8134 -50.2252
TCL: Running FEP window   7: Lambda1 0.3    Lambda2 0.35   [dLambda 0.04999999999999999]
TCL: Setting parameter firsttimestep to 0
TCL: Setting parameter alchLambda to 0.3
Info: NONBONDED TABLE R-SQUARED SPACING: 0.0625
Info: NONBONDED TABLE SIZE: 705 POINTS
TCL: Setting parameter alchLambda2 to 0.35
Info: NONBONDED TABLE R-SQUARED SPACING: 0.0625
Info: NONBONDED TABLE SIZE: 705 POINTS
TCL: Running for 1500000 steps
ETITLE: TS BOND ANGLE DIHED IMPRP ELECT VDW BOUNDARY MISC KINETIC TOTAL TEMP POTENTIAL TOTALAVG TEMPAVG PRESSURE GPRESSURE VOLUME PRESSAVG GPRESSAVG
ENERGY: 0 0.1742 3.2428 0.0000 0.0000 -10684.0958 1368.0158 0.0000 0.0000 1710.6716 -7601.9915 293.3546 -9312.6630 -7601.9915 293.3546 -741.8347 -652.8228 30204.2006 -741.8347 -652.8228
ENERGY: 300000 0.2055 2.0924 0.0000 0.0000 -10704.3894 1423.7583 0.0000 0.0000 1803.0538 -7475.2793 309.1968 -9278.3332 -7521.8152 301.8893 -30.7194 70.9268 29902.7307 -67.7224 -16.9036
ENERGY: 600000 0.2888 1.2080 0.0000 0.0000 -10674.1905 1467.8454 0.0000 0.0000 1773.5409 -7431.3074 304.1358 -9204.8483 -7504.4293 300.9638 410.5751 454.0241 30114.7341 77.3861 131.8227
ENERGY: 900000 0.2330 0.8051 0.0000 0.0000 -10629.3569 1400.1329 0.0000 0.0000 1656.1623 -7572.0235 284.0071 -9228.1859 -7507.4894 299.8615 -528.7359 -421.3330 30490.5266 -3.1182 46.4793
ENERGY: 1200000 2.3248 0.7411 0.0000 0.0000 -10458.6371 1281.7205 0.0000 0.0000 1781.0222 -7392.8284 305.4187 -9173.8507 -7487.0549 300.4232 -1127.1765 -1047.3938 30436.9803 -30.5813 27.5323
ENERGY: 1500000 0.3121 2.8654 0.0000 0.0000 -10585.5849 1377.9842 0.0000 0.0000 1749.3350 -7455.0881 299.9848 -9204.4231 -7481.2148 300.0684 -425.9200 -421.7995 30211.6578 -112.1467 -50.6128
TCL: Running FEP window   8: Lambda1 0.35   Lambda2 0.39999999999999997 [dLambda 0.04999999999999999]
TCL: Setting parameter firsttimestep to 0
TCL: Setting parameter alchLambda to 0.35
Info: NONBONDED TABLE R-SQUARED SPACING: 0.0625
Info: NONBONDED TABLE SIZE: 705 POINTS
TCL: Setting parameter alchLambda2 to 0.39999999999999997
Info: NONBONDED TABLE R-SQUARED SPACING: 0.0625
Info: NONBONDED TABLE SIZE: 705 POINTS
TCL: Running for 1500000 steps
ETITLE: TS BOND ANGLE DIHED IMPRP ELECT VDW BOUNDARY MISC KINETIC TOTAL TEMP POTENTIAL TOTALAVG TEMPAVG PRESSURE GPRESSURE VOLUME PRESSAVG GPRESSAVG
ENERGY: 0 0.3121 2.8654 0.0000 0.0000 -10585.5845 1378.3255 0.0000 0.0000 1748.4674 -7455.6141 299.8360 -9204.0815 -7455.6141 299.8360 -485.9129 -415.1219 30211.6578 -485.9129 -415.1219
ENERGY: 300000 0.1703 2.2428 0.0000 0.0000 -10505.7423 1358.4570 0.0000 0.0000 1727.2886 -7417.5835 296.2042 -9144.8721 -7443.4104 301.8364 -621.5360 -553.9455 30325.7346 411.8000 483.0217
ENERGY: 600000 0.6872 1.7862 0.0000 0.0000 -10509.8043 1327.9736 0.0000 0.0000 1761.2635 -7418.0939 302.0304 -9179.3573 -7436.7450 301.6990 -876.4842 -809.5761 30239.7144 240.3076 293.1411
ENERGY: 900000 3.6291 1.4696 0.0000 0.0000 -10638.3744 1378.4254 0.0000 0.0000 1779.0867 -7475.7637 305.0868 -9254.8504 -7445.5569 300.3314 -570.1977 -558.7201 30095.8113 95.3345 150.3590
ENERGY: 1200000 1.7796 0.9374 0.0000 0.0000 -10684.7211 1455.6802 0.0000 0.0000 1758.5949 -7467.7291 301.5727 -9226.3240 -7444.6621 300.9143 324.8119 405.0961 29935.2106 -10.1323 48.4839
ENERGY: 1500000 0.6954 1.4338 0.0000 0.0000 -10642.4534 1379.8984 0.0000 0.0000 1788.8482 -7471.5777 306.7607 -9260.4258 -7452.0511 301.3351 -495.8204 -425.5642 30300.3693 -78.0461 -17.2417
TCL: Running FEP window   9: Lambda1 0.39999999999999997 Lambda2 0.44999999999999996 [dLambda 0.04999999999999999]
TCL: Setting parameter firsttimestep to 0
TCL: Setting parameter alchLambda to 0.39999999999999997
Info: NONBONDED TABLE R-SQUARED SPACING: 0.0625
Info: NONBONDED TABLE SIZE: 705 POINTS
TCL: Setting parameter alchLambda2 to 0.44999999999999996
Info: NONBONDED TABLE R-SQUARED SPACING: 0.0625
Info: NONBONDED TABLE SIZE: 705 POINTS
TCL: Running for 1500000 steps
ETITLE: TS BOND ANGLE DIHED IMPRP ELECT VDW BOUNDARY MISC KINETIC TOTAL TEMP POTENTIAL TOTALAVG TEMPAVG PRESSURE GPRESSURE VOLUME PRESSAVG GPRESSAVG
ENERGY: 0 0.6954 1.4338 0.0000 0.0000 -10642.4535 1380.0935 0.0000 0.0000 1787.9203 -7472.3106 306.6016 -9260.2309 -7472.3106 306.6016 -502.3095 -418.5945 30300.3693 -502.3095 -418.5945
ENERGY: 300000 0.0862 1.9838 0.0000 0.0000 -10615.0367 1467.4193 0.0000 0.0000 1787.1643 -7358.3831 306.4720 -9145.5473 -7461.8938 302.2460 254.6539 306.0965 30782.1454 -208.7353 -143.7368
ENERGY: 600000 0.0936 1.1262 0.0000 0.0000 -10730.0458 1465.0271 0.0000 0.0000 1728.9188 -7534.8801 296.4837 -9263.7989 -7488.0586 300.2129 -193.6048 -115.9115 30676.0852 -269.6931 -197.8416
ENERGY: 900000 0.3432 1.6202 0.0000 0.0000 -10573.7280 1377.6436 0.0000 0.0000 1732.6949 -7461.4260 297.1313 -9194.1210 -7488.3536 300.1820 -401.1561 -374.6604 30184.9652 -236.1635 -164.2314
ENERGY: 1200000 0.0967 0.8635 0.0000 0.0000 -10580.4222 1425.3402 0.0000 0.0000 1750.4243 -7403.6974 300.1716 -9154.1218 -7481.1070 299.7878 -136.0047 -6.0587 30479.6167 -160.0287 -77.0484
ENERGY: 1500000 0.7697 1.3070 0.0000 0.0000 -10767.4578 1517.5001 0.0000 0.0000 1733.4254 -7514.4557 297.2565 -9247.8811 -7483.9142 300.0344 304.5823 385.9457 30556.3176 -177.5200 -92.0206
TCL: Running FEP window  10: Lambda1 0.44999999999999996 Lambda2 0.49999999999999994 [dLambda 0.04999999999999999]
TCL: Setting parameter firsttimestep to 0
TCL: Setting parameter alchLambda to 0.44999999999999996
Info: NONBONDED TABLE R-SQUARED SPACING: 0.0625
Info: NONBONDED TABLE SIZE: 705 POINTS
TCL: Setting parameter alchLambda2 to 0.49999999999999994
Info: NONBONDED TABLE R-SQUARED SPACING: 0.0625
Info: NONBONDED TABLE SIZE: 705 POINTS
TCL: Running for 1500000 steps
ETITLE: TS BOND ANGLE DIHED IMPRP ELECT VDW BOUNDARY MISC KINETIC TOTAL TEMP POTENTIAL TOTALAVG TEMPAVG PRESSURE GPRESSURE VOLUME PRESSAVG GPRESSAVG
ENERGY: 0 0.7697 1.3070 0.0000 0.0000 -10767.4570 1517.1579 0.0000 0.0000 1732.5751 -7515.6474 297.1107 -9248.2224 -7515.6474 297.1107 294.3074 388.9723 30556.3176 294.3074 388.9723
ENERGY: 300000 0.2564 1.2494 0.0000 0.0000 -10707.8164 1406.5206 0.0000 0.0000 1727.8958 -7571.8940 296.3083 -9299.7899 -7512.1145 297.1737 -435.4507 -360.5110 30107.1174 95.2129 156.3257
ENERGY: 600000 1.3795 2.9030 0.0000 0.0000 -10731.0374 1485.8805 0.0000 0.0000 1730.8430 -7510.0314 296.8137 -9240.8744 -7498.1727 297.7978 293.7357 396.0508 30092.4855 122.9711 186.2535
ENERGY: 900000 0.2143 1.0882 0.0000 0.0000 -10617.9751 1416.2124 0.0000 0.0000 1744.1344 -7456.3259 299.0930 -9200.4603 -7489.8082 297.8123 -375.1227 -323.4661 30799.2584 44.6634 103.9385
ENERGY: 1200000 1.6111 2.3965 0.0000 0.0000 -10564.7486 1444.6617 0.0000 0.0000 1720.1093 -7395.9700 294.9730 -9116.0792 -7476.3209 298.0516 137.5962 161.1780 30639.0487 47.3505 117.4233
ENERGY: 1500000 0.7866 2.5562 0.0000 0.0000 -10645.1477 1439.9414 0.0000 0.0000 1727.9776 -7473.8859 296.3223 -9201.8635 -7479.3471 298.3996 -30.3150 5.8725 30680.9712 43.1861 105.9561
TCL: Running FEP window  11: Lambda1 0.49999999999999994 Lambda2 0.5499999999999999 [dLambda 0.04999999999999999]
TCL: Setting parameter firsttimestep to 0
TCL: Setting parameter alchLambda to 0.49999999999999994
Info: NONBONDED TABLE R-SQUARED SPACING: 0.0625
Info: NONBONDED TABLE SIZE: 705 POINTS
TCL: Setting parameter alchLambda2 to 0.5499999999999999
Info: NONBONDED TABLE R-SQUARED SPACING: 0.0625
Info: NONBONDED TABLE SIZE: 705 POINTS
TCL: Running for 1500000 steps
ETITLE: TS BOND ANGLE DIHED IMPRP ELECT VDW BOUNDARY MISC KINETIC TOTAL TEMP POTENTIAL TOTALAVG TEMPAVG PRESSURE GPRESSURE VOLUME PRESSAVG GPRESSAVG
ENERGY: 0 0.7866 2.5562 0.0000 0.0000 -10645.1476 1439.4264 0.0000 0.0000 1727.0946 -7475.2837 296.1709 -9202.3783 -7475.2837 296.1709 -70.2509 4.0533 30680.9712 -70.2509 4.0533
ENERGY: 300000 0.1331 1.8481 0.0000 0.0000 -10519.0212 1361.2279 0.0000 0.0000 1691.6428 -7464.1693 290.0915 -9155.8121 -7476.0046 298.3315 -548.7022 -493.6770 30539.5785 -102.0069 -22.4651
ENERGY: 600000 0.3306 0.6186 0.0000 0.0000 -10630.7496 1351.5035 0.0000 0.0000 1757.7019 -7520.5951 301.4196 -9278.2969 -7496.8957 299.6879 -929.1894 -888.8701 30471.4865 -196.1937 -137.4120
ENERGY: 900000 0.0906 1.2951 0.0000 0.0000 -10671.5747 1472.8722 0.0000 0.0000 1759.2703 -7438.0465 301.6886 -9197.3168 -7477.9209 301.2906 530.8456 615.0480 29916.0697 68.4990 122.2540
ENERGY: 1200000 1.2393 4.3071 0.0000 0.0000 -10563.1238 1363.7649 0.0000 0.0000 1679.1154 -7514.6972 287.9432 -9193.8125 -7481.3554 300.2274 -560.6858 -544.9998 30449.0436 -42.9424 14.2704
ENERGY: 1500000 0.2708 1.6928 0.0000 0.0000 -10570.9459 1373.1958 0.0000 0.0000 1778.6042 -7417.1823 305.0040 -9195.7865 -7472.2263 301.2051 -215.7445 -162.9603 29909.1044 -75.5548 -11.7555
TCL: Running FEP window  12: Lambda1 0.5499999999999999 Lambda2 0.6    [dLambda 0.050000000000000044]
TCL: Setting parameter firsttimestep to 0
TCL: Setting parameter alchLambda to 0.5499999999999999
Info: NONBONDED TABLE R-SQUARED SPACING: 0.0625
Info: NONBONDED TABLE SIZE: 705 POINTS
TCL: Setting parameter alchLambda2 to 0.6
Info: NONBONDED TABLE R-SQUARED SPACING: 0.0625
Info: NONBONDED TABLE SIZE: 705 POINTS
TCL: Running for 1500000 steps
ETITLE: TS BOND ANGLE DIHED IMPRP ELECT VDW BOUNDARY MISC KINETIC TOTAL TEMP POTENTIAL TOTALAVG TEMPAVG PRESSURE GPRESSURE VOLUME PRESSAVG GPRESSAVG
ENERGY: 0 0.2708 1.6928 0.0000 0.0000 -10570.9370 1373.2080 0.0000 0.0000 1777.7296 -7418.0358 304.8541 -9195.7654 -7418.0358 304.8541 -243.2972 -157.7610 29909.1044 -243.2972 -157.7610
ENERGY: 300000 0.4887 2.2120 0.0000 0.0000 -10640.7618 1436.9583 0.0000 0.0000 1798.2529 -7402.8499 308.3735 -9201.1028 -7413.7717 306.3520 -79.5003 -24.1128 30612.8507 79.3633 145.9941
ENERGY: 600000 0.3849 1.8018 0.0000 0.0000 -10531.8791 1356.7161 0.0000 0.0000 1769.7542 -7403.2221 303.4864 -9172.9762 -7458.6382 302.5114 -424.5271 -440.4346 30276.7991 -153.5792 -101.7482
ENERGY: 900000 0.3812 2.7395 0.0000 0.0000 -10477.7124 1307.7075 0.0000 0.0000 1762.6881 -7404.1961 302.2747 -9166.8841 -7452.1188 301.6000 -1112.2956 -1001.2403 30638.0311 -271.1762 -213.2160
ENERGY: 1200000 0.0996 2.5267 0.0000 0.0000 -10772.1690 1486.4116 0.0000 0.0000 1767.1838 -7515.9473 303.0456 -9283.1310 -7466.9128 301.0437 400.7511 481.8741 29851.8671 -168.1957 -117.2289
ENERGY: 1500000 0.5083 3.1339 0.0000 0.0000 -10736.4402 1480.5600 0.0000 0.0000 1710.3420 -7541.8961 293.2981 -9252.2381 -7478.6269 299.2776 384.9506 468.4909 29892.6946 -106.3398 -53.7292
TCL: Running FEP window  13: Lambda1 0.6    Lambda2 0.65   [dLambda 0.050000000000000044]
TCL: Setting parameter firsttimestep to 0
TCL: Setting parameter alchLambda to 0.6
Info: NONBONDED TABLE R-SQUARED SPACING: 0.0625
Info: NONBONDED TABLE SIZE: 705 POINTS
TCL: Setting parameter alchLambda2 to 0.65
Info: NONBONDED TABLE R-SQUARED SPACING: 0.0625
Info: NONBONDED TABLE SIZE: 705 POINTS
TCL: Running for 1500000 steps
ETITLE: TS BOND ANGLE DIHED IMPRP ELECT VDW BOUNDARY MISC KINETIC TOTAL TEMP POTENTIAL TOTALAVG TEMPAVG PRESSURE GPRESSURE VOLUME PRESSAVG GPRESSAVG
ENERGY: 0 0.5083 3.1339 0.0000 0.0000 -10736.3380 1480.2510 0.0000 0.0000 1709.4900 -7542.9548 293.1520 -9252.4448 -7542.9548 293.1520 387.1759 470.1824 29892.6946 387.1759 470.1824
ENERGY: 300000 0.6854 2.3703 0.0000 0.0000 -10554.5254 1351.6762 0.0000 0.0000 1692.8314 -7506.9621 290.2953 -9199.7935 -7493.6588 298.0397 -787.8891 -712.7663 30460.1229 141.6912 212.5087
ENERGY: 600000 1.3359 0.9903 0.0000 0.0000 -10533.5968 1365.0675 0.0000 0.0000 1741.3864 -7424.8167 298.6217 -9166.2031 -7489.0664 298.9492 -274.5644 -207.5816 30191.6081 -8.5745 54.4674
ENERGY: 900000 0.9341 4.7015 0.0000 0.0000 -10603.3516 1419.5543 0.0000 0.0000 1717.0665 -7461.0951 294.4512 -9178.1616 -7485.7257 299.1142 -198.1609 -157.8060 30671.0988 -51.6408 11.1854
ENERGY: 1200000 0.4352 1.7902 0.0000 0.0000 -10525.1866 1320.9228 0.0000 0.0000 1799.0601 -7402.9782 308.5119 -9202.0383 -7485.0433 299.5850 -1055.0639 -986.0669 30900.0397 -173.4081 -107.3078
ENERGY: 1500000 1.2264 1.6434 0.0000 0.0000 -10718.2425 1465.4840 0.0000 0.0000 1711.7992 -7538.0895 293.5480 -9249.8887 -7489.0764 299.7731 149.9311 151.6170 30258.3275 -97.1849 -37.2147
TCL: Running FEP window  14: Lambda1 0.65   Lambda2 0.7000000000000001 [dLambda 0.050000000000000044]
TCL: Setting parameter firsttimestep to 0
TCL: Setting parameter alchLambda to 0.65
Info: NONBONDED TABLE R-SQUARED SPACING: 0.0625
Info: NONBONDED TABLE SIZE: 705 POINTS
TCL: Setting parameter alchLambda2 to 0.7000000000000001
Info: NONBONDED TABLE R-SQUARED SPACING: 0.0625
Info: NONBONDED TABLE SIZE: 705 POINTS
TCL: Running for 1500000 steps
ETITLE: TS BOND ANGLE DIHED IMPRP ELECT VDW BOUNDARY MISC KINETIC TOTAL TEMP POTENTIAL TOTALAVG TEMPAVG PRESSURE GPRESSURE VOLUME PRESSAVG GPRESSAVG
ENERGY: 0 1.2264 1.6434 0.0000 0.0000 -10718.3946 1465.3726 0.0000 0.0000 1710.9296 -7539.2226 293.3988 -9250.1522 -7539.2226 293.3988 82.2300 155.8822 30258.3275 82.2300 155.8822
ENERGY: 300000 0.0053 2.9506 0.0000 0.0000 -10810.7310 1515.7186 0.0000 0.0000 1705.8210 -7586.2355 292.5228 -9292.0565 -7521.8206 296.9939 622.5510 654.7832 29858.4455 209.9731 261.1966
ENERGY: 600000 0.7460 1.9527 0.0000 0.0000 -10786.6682 1534.7475 0.0000 0.0000 1747.6035 -7501.6186 299.6879 -9249.2220 -7511.1840 297.9035 687.3818 784.4788 29839.3412 59.1756 117.9969
ENERGY: 900000 0.4014 2.9467 0.0000 0.0000 -10646.2722 1466.9803 0.0000 0.0000 1732.1612 -7443.7826 297.0398 -9175.9438 -7481.8676 299.2868 357.9700 337.5487 30383.0146 100.5149 146.9187
ENERGY: 1200000 0.0009 2.1696 0.0000 0.0000 -10689.3893 1492.4155 0.0000 0.0000 1699.7884 -7495.0148 291.4883 -9194.8032 -7486.0588 298.6979 546.7863 622.6002 30140.5875 111.8082 163.6947
ENERGY: 1500000 0.0484 2.5351 0.0000 0.0000 -10520.7659 1393.7450 0.0000 0.0000 1798.3903 -7326.0471 308.3971 -9124.4374 -7475.7658 299.0818 -189.0378 -131.8837 30653.3675 37.1735 96.9192
TCL: Running FEP window  15: Lambda1 0.7000000000000001 Lambda2 0.7500000000000001 [dLambda 0.050000000000000044]
TCL: Setting parameter firsttimestep to 0
TCL: Setting parameter alchLambda to 0.7000000000000001
Info: NONBONDED TABLE R-SQUARED SPACING: 0.0625
Info: NONBONDED TABLE SIZE: 705 POINTS
TCL: Setting parameter alchLambda2 to 0.7500000000000001
Info: NONBONDED TABLE R-SQUARED SPACING: 0.0625
Info: NONBONDED TABLE SIZE: 705 POINTS
TCL: Running for 1500000 steps
ETITLE: TS BOND ANGLE DIHED IMPRP ELECT VDW BOUNDARY MISC KINETIC TOTAL TEMP POTENTIAL TOTALAVG TEMPAVG PRESSURE GPRESSURE VOLUME PRESSAVG GPRESSAVG
ENERGY: 0 0.0484 2.5351 0.0000 0.0000 -10521.3039 1393.2901 0.0000 0.0000 1797.5453 -7327.8850 308.2521 -9125.4303 -7327.8850 308.2521 -221.2103 -133.0912 30653.3675 -221.2103 -133.0912
ENERGY: 300000 0.1726 1.5224 0.0000 0.0000 -10456.6034 1307.5327 0.0000 0.0000 1779.3295 -7368.0462 305.1284 -9147.3758 -7448.5722 300.6290 -617.8094 -582.4296 30173.5382 -53.2930 -2.7890
ENERGY: 600000 0.4147 1.9851 0.0000 0.0000 -10731.7152 1476.9681 0.0000 0.0000 1736.1236 -7516.2237 297.7192 -9252.3473 -7453.2383 300.8860 323.3237 410.1978 30038.4385 -82.6308 -25.1272
ENERGY: 900000 0.0782 2.1156 0.0000 0.0000 -10642.5626 1394.2428 0.0000 0.0000 1831.0873 -7415.0388 314.0041 -9246.1261 -7458.9062 302.7187 -395.6797 -402.6796 30682.3799 25.0631 76.3054
ENERGY: 1200000 0.0684 1.5332 0.0000 0.0000 -10723.5472 1526.4468 0.0000 0.0000 1759.6794 -7435.8195 301.7587 -9195.4989 -7465.1503 301.7460 655.4559 776.1982 30222.0348 89.0680 142.0863
ENERGY: 1500000 0.2847 1.8771 0.0000 0.0000 -10613.7145 1374.0627 0.0000 0.0000 1733.5470 -7503.9431 297.2774 -9237.4900 -7469.9091 300.8573 -560.4275 -438.8632 30350.9279 2.7947 65.1080
TCL: Running FEP window  16: Lambda1 0.7500000000000001 Lambda2 0.8000000000000002 [dLambda 0.050000000000000044]
TCL: Setting parameter firsttimestep to 0
TCL: Setting parameter alchLambda to 0.7500000000000001
Info: NONBONDED TABLE R-SQUARED SPACING: 0.0625
Info: NONBONDED TABLE SIZE: 705 POINTS
TCL: Setting parameter alchLambda2 to 0.8000000000000002
Info: NONBONDED TABLE R-SQUARED SPACING: 0.0625
Info: NONBONDED TABLE SIZE: 705 POINTS
TCL: Running for 1500000 steps
ETITLE: TS BOND ANGLE DIHED IMPRP ELECT VDW BOUNDARY MISC KINETIC TOTAL TEMP POTENTIAL TOTALAVG TEMPAVG PRESSURE GPRESSURE VOLUME PRESSAVG GPRESSAVG
ENERGY: 0 0.2847 1.8771 0.0000 0.0000 -10614.1825 1373.9150 0.0000 0.0000 1732.6612 -7505.4446 297.1255 -9238.1058 -7505.4446 297.1255 -513.1512 -435.2189 30350.9279 -513.1512 -435.2189
ENERGY: 300000 0.0090 1.3068 0.0000 0.0000 -10503.7493 1347.8988 0.0000 0.0000 1754.9263 -7399.6084 300.9436 -9154.5347 -7470.3901 298.9764 -414.4332 -419.8900 30403.7306 -133.3866 -98.8199
ENERGY: 600000 0.4774 2.5948 0.0000 0.0000 -10625.3962 1413.5169 0.0000 0.0000 1716.5784 -7492.2286 294.3675 -9208.8070 -7471.6243 297.5590 -258.0259 -211.0235 30366.7469 -428.5853 -387.3939
ENERGY: 900000 0.1808 1.4629 0.0000 0.0000 -10567.8732 1386.6414 0.0000 0.0000 1773.0878 -7406.5003 304.0581 -9179.5881 -7469.0147 297.6973 -301.0450 -265.4807 30405.7277 -223.6926 -179.9913
ENERGY: 1200000 0.0524 0.8340 0.0000 0.0000 -10628.0880 1394.6589 0.0000 0.0000 1755.9014 -7476.6413 301.1108 -9232.5427 -7473.1342 297.1732 -366.8436 -233.1098 30198.9114 -201.8196 -149.7218
ENERGY: 1500000 0.0336 1.5050 0.0000 0.0000 -10673.1544 1483.9541 0.0000 0.0000 1754.9910 -7432.6707 300.9547 -9187.6616 -7475.5913 297.1827 490.2893 544.1684 30215.8903 -148.0688 -99.2089
TCL: Running FEP window  17: Lambda1 0.8000000000000002 Lambda2 0.8500000000000002 [dLambda 0.050000000000000044]
TCL: Setting parameter firsttimestep to 0
TCL: Setting parameter alchLambda to 0.8000000000000002
Info: NONBONDED TABLE R-SQUARED SPACING: 0.0625
Info: NONBONDED TABLE SIZE: 705 POINTS
TCL: Setting parameter alchLambda2 to 0.8500000000000002
Info: NONBONDED TABLE R-SQUARED SPACING: 0.0625
Info: NONBONDED TABLE SIZE: 705 POINTS
TCL: Running for 1500000 steps
ETITLE: TS BOND ANGLE DIHED IMPRP ELECT VDW BOUNDARY MISC KINETIC TOTAL TEMP POTENTIAL TOTALAVG TEMPAVG PRESSURE GPRESSURE VOLUME PRESSAVG GPRESSAVG
ENERGY: 0 0.0336 1.5050 0.0000 0.0000 -10673.5717 1483.3974 0.0000 0.0000 1754.1438 -7434.4918 300.8095 -9188.6356 -7434.4918 300.8095 454.4425 542.3807 30215.8903 454.4425 542.3807
ENERGY: 300000 0.2154 2.6763 0.0000 0.0000 -10712.7293 1465.1022 0.0000 0.0000 1811.6990 -7433.0365 310.6793 -9244.7355 -7437.2184 307.4118 384.6545 472.2892 30157.1540 168.9408 244.6606
ENERGY: 600000 0.1088 3.7144 0.0000 0.0000 -10733.6068 1522.8395 0.0000 0.0000 1747.8540 -7459.0902 299.7308 -9206.9441 -7442.0853 306.8421 671.6671 781.7473 30288.9377 249.8912 313.3394
ENERGY: 900000 0.0379 2.1344 0.0000 0.0000 -10658.3972 1435.3379 0.0000 0.0000 1754.6816 -7466.2053 300.9017 -9220.8870 -7437.4702 305.7390 134.6175 128.7833 30303.0375 116.2281 169.6018
ENERGY: 1200000 0.2706 1.4856 0.0000 0.0000 -10632.6931 1436.6861 0.0000 0.0000 1727.8590 -7466.3918 296.3020 -9194.2508 -7448.2825 304.5305 305.3831 368.7014 29855.6868 201.2406 260.4026
ENERGY: 1500000 0.3471 5.3862 0.0000 0.0000 -10477.2587 1325.7927 0.0000 0.0000 1724.6459 -7421.0868 295.7510 -9145.7327 -7446.4551 303.4875 -520.5774 -438.7752 30291.0680 94.5560 153.6500
TCL: Running FEP window  18: Lambda1 0.8500000000000002 Lambda2 0.9000000000000002 [dLambda 0.050000000000000044]
TCL: Setting parameter firsttimestep to 0
TCL: Setting parameter alchLambda to 0.8500000000000002
Info: NONBONDED TABLE R-SQUARED SPACING: 0.0625
Info: NONBONDED TABLE SIZE: 705 POINTS
TCL: Setting parameter alchLambda2 to 0.9000000000000002
Info: NONBONDED TABLE R-SQUARED SPACING: 0.0625
Info: NONBONDED TABLE SIZE: 705 POINTS
TCL: Running for 1500000 steps
ETITLE: TS BOND ANGLE DIHED IMPRP ELECT VDW BOUNDARY MISC KINETIC TOTAL TEMP POTENTIAL TOTALAVG TEMPAVG PRESSURE GPRESSURE VOLUME PRESSAVG GPRESSAVG
ENERGY: 0 0.3471 5.3862 0.0000 0.0000 -10477.8670 1327.6332 0.0000 0.0000 1723.7731 -7420.7275 295.6013 -9144.5006 -7420.7275 295.6013 -498.6833 -412.0844 30291.0680 -498.6833 -412.0844
ENERGY: 300000 0.7111 2.1096 0.0000 0.0000 -10820.0078 1475.7794 0.0000 0.0000 1744.6148 -7596.7929 299.1754 -9341.4077 -7501.0233 297.8830 66.8265 118.8228 30055.9324 -71.3272 -4.5186
ENERGY: 600000 1.6873 1.1063 0.0000 0.0000 -10717.2636 1453.3201 0.0000 0.0000 1774.8297 -7486.3202 304.3568 -9261.1499 -7495.5823 299.5616 -6.4823 26.3065 30319.4294 -31.4594 34.3855
ENERGY: 900000 0.3801 2.1674 0.0000 0.0000 -10642.5960 1444.4146 0.0000 0.0000 1779.4802 -7416.1537 305.1543 -9195.6339 -7493.6263 300.0457 239.2747 297.5870 30220.9193 -36.4798 30.6411
ENERGY: 1200000 0.0422 1.8346 0.0000 0.0000 -10638.5627 1437.3471 0.0000 0.0000 1749.3509 -7449.9879 299.9875 -9199.3388 -7492.9105 299.7049 74.7100 100.5735 30351.5950 -54.7917 6.2601
ENERGY: 1500000 0.1152 2.2233 0.0000 0.0000 -10704.7882 1436.3415 0.0000 0.0000 1763.8900 -7502.2181 302.4808 -9266.1081 -7486.8541 300.7278 -374.2773 -253.1237 30642.4957 -40.8265 19.4516
TCL: Running FEP window  19: Lambda1 0.9000000000000002 Lambda2 0.9500000000000003 [dLambda 0.050000000000000044]
TCL: Setting parameter firsttimestep to 0
TCL: Setting parameter alchLambda to 0.9000000000000002
Info: NONBONDED TABLE R-SQUARED SPACING: 0.0625
Info: NONBONDED TABLE SIZE: 705 POINTS
TCL: Setting parameter alchLambda2 to 0.9500000000000003
Info: NONBONDED TABLE R-SQUARED SPACING: 0.0625
Info: NONBONDED TABLE SIZE: 705 POINTS
TCL: Running for 1500000 steps
ETITLE: TS BOND ANGLE DIHED IMPRP ELECT VDW BOUNDARY MISC KINETIC TOTAL TEMP POTENTIAL TOTALAVG TEMPAVG PRESSURE GPRESSURE VOLUME PRESSAVG GPRESSAVG
ENERGY: 0 0.1152 2.2233 0.0000 0.0000 -10704.9864 1435.9287 0.0000 0.0000 1763.0137 -7503.7054 302.3305 -9266.7191 -7503.7054 302.3305 -336.0942 -251.8996 30642.4957 -336.0942 -251.8996
ENERGY: 300000 0.9027 1.6641 0.0000 0.0000 -10633.6964 1440.7822 0.0000 0.0000 1728.5720 -7461.7754 296.4243 -9190.3475 -7498.2941 298.3554 324.7844 391.5242 30064.5470 -291.1250 -226.3189
ENERGY: 600000 0.3221 1.9371 0.0000 0.0000 -10648.7449 1461.6130 0.0000 0.0000 1794.8611 -7390.0116 307.7918 -9184.8727 -7467.4186 300.1109 151.4272 177.7885 30687.0271 -88.5243 -17.8186
ENERGY: 900000 0.9487 5.0516 0.0000 0.0000 -10534.0471 1346.2664 0.0000 0.0000 1803.5299 -7378.2505 309.2784 -9181.7805 -7455.6038 301.6863 -552.6495 -484.5334 30457.6253 -41.2812 31.5799
ENERGY: 1200000 0.3399 3.3327 0.0000 0.0000 -10584.2812 1418.0724 0.0000 0.0000 1762.6457 -7399.8906 302.2674 -9162.5362 -7446.6073 302.3635 19.1760 78.2014 30365.4658 -82.1698 -15.2652
ENERGY: 1500000 0.7095 1.7655 0.0000 0.0000 -10720.2418 1461.7891 0.0000 0.0000 1739.4129 -7516.5648 298.2833 -9255.9777 -7455.0907 302.4645 191.0532 251.3002 30107.1697 -104.0761 -35.3903
TCL: Running FEP window  20: Lambda1 0.9500000000000003 Lambda2 1.0    [dLambda 0.04999999999999971]
TCL: Setting parameter firsttimestep to 0
TCL: Setting parameter alchLambda to 0.9500000000000003
Info: NONBONDED TABLE R-SQUARED SPACING: 0.0625
Info: NONBONDED TABLE SIZE: 705 POINTS
TCL: Setting parameter alchLambda2 to 1.0
Info: NONBONDED TABLE R-SQUARED SPACING: 0.0625
Info: NONBONDED TABLE SIZE: 705 POINTS
TCL: Running for 1500000 steps
ETITLE: TS BOND ANGLE DIHED IMPRP ELECT VDW BOUNDARY MISC KINETIC TOTAL TEMP POTENTIAL TOTALAVG TEMPAVG PRESSURE GPRESSURE VOLUME PRESSAVG GPRESSAVG
ENERGY: 0 0.7095 1.7655 0.0000 0.0000 -10721.0486 1461.7535 0.0000 0.0000 1738.5232 -7518.2969 298.1307 -9256.8201 -7518.2969 298.1307 172.1796 258.2819 30107.1697 172.1796 258.2819
ENERGY: 300000 0.4549 0.7518 0.0000 0.0000 -10550.0286 1376.2135 0.0000 0.0000 1770.9344 -7401.6740 303.6888 -9172.6084 -7456.3621 300.6425 -709.6968 -622.4724 31246.4334 -194.6878 -118.8462
ENERGY: 600000 0.0467 1.2355 0.0000 0.0000 -10582.0686 1433.0017 0.0000 0.0000 1751.8960 -7395.8887 300.4240 -9147.7847 -7458.5772 301.8384 89.7117 159.0988 30863.2262 -154.5175 -82.5903
ENERGY: 900000 0.6027 1.8741 0.0000 0.0000 -10523.2629 1289.4785 0.0000 0.0000 1736.2925 -7495.0151 297.7482 -9231.3076 -7463.9504 301.0080 -1227.7442 -1175.2096 30273.0220 -150.6702 -86.7081
ENERGY: 1200000 0.3636 0.5414 0.0000 0.0000 -10794.2895 1475.5520 0.0000 0.0000 1777.4342 -7540.3984 304.8034 -9317.8325 -7477.7908 301.7985 -89.0277 -39.3880 30443.1026 -132.8050 -68.4418
ENERGY: 1500000 0.2726 1.8073 0.0000 0.0000 -10524.8588 1400.0002 0.0000 0.0000 1775.2429 -7347.5358 304.4276 -9122.7786 -7460.8878 301.8168 -16.3288 94.0837 30359.8113 -122.9124 -58.4011
TCL: Exiting due to exit command.
