Info: SIMULATION PARAMETERS:
Info: TIMESTEP               2
Info: NUMBER OF STEPS        0
Info: STEPS PER CYCLE        10
Info: PERIODIC CELL BASIS 1  34.207 0 0
Info: PERIODIC CELL BASIS 2  0 33.542 0
Info: PERIODIC CELL BASIS 3  0 0 37.195
Info: PERIODIC CELL CENTER   0 0 0
Info: WRAPPING WATERS AROUND PERIODIC BOUNDARIES ON OUTPUT.
Info: WRAPPING ALL CLUSTERS AROUND PERIODIC BOUNDARIES ON OUTPUT.
Info: FIRST LDB TIMESTEP     50
Info: LAST LDB TIMESTEP     -1
Info: HOM BACKGROUND SCALING 1
Info: PME BACKGROUND SCALING 1
Info: MIN ATOMS PER PATCH    40
Info: EMPTY PATCH LOAD       40 ATOMS
Info: INITIAL TEMPERATURE    300
Info: CENTER OF MASS MOVING INITIALLY? NO
Info: DIELECTRIC             1
Info: EXCLUDE                SCALED ONE-FOUR
Info: 1-4 ELECTROSTATICS SCALED BY 0.833333
Info: MODIFIED 1-4 VDW PARAMETERS WILL BE USED
Info: DCD FILENAME           mobley_2354112_equil.dcd
Info: DCD FREQUENCY          100000
Info: DCD FIRST STEP         100000
Info: DCD FILE WILL CONTAIN UNIT CELL DATA
Info: XST FILENAME           mobley_2354112_equil.xst
Info: XST FREQUENCY          100000
Info: NO VELOCITY DCD OUTPUT
Info: NO FORCE DCD OUTPUT
Info: OUTPUT FILENAME        mobley_2354112_equil
Info: BINARY OUTPUT FILES WILL BE USED
Info: RESTART FILENAME       mobley_2354112_equil.restart
Info: RESTART FREQUENCY      100000
Info: BINARY RESTART FILES WILL BE USED
Info: CUTOFF                 9
Info: PAIRLIST DISTANCE      11
Info: PAIRLIST SHRINK RATE   0.01
Info: PAIRLIST GROW RATE     0.01
Info: PAIRLIST TRIGGER       0.3
Info: PAIRLISTS PER CYCLE    2
Info: PAIRLISTS ENABLED
Info: MARGIN                 8
Info: HYDROGEN GROUP CUTOFF  2.5
Info: PATCH DIMENSION        21.5
Info: ENERGY OUTPUT STEPS    100000
Info: ENERGY EVALUATION STEPS    100000
Info: OUTPUT ENERGY PRECISION 4
Info: CROSSTERM ENERGY INCLUDED IN DIHEDRAL
Info: TIMING OUTPUT STEPS    1000000
Info: PRESSURE OUTPUT STEPS  100000
Info: LANGEVIN DYNAMICS ACTIVE
Info: LANGEVIN TEMPERATURE   30
Info: LANGEVIN USING BBK INTEGRATOR
Info: LANGEVIN DAMPING COEFFICIENT IS 1 INVERSE PS
Info: LANGEVIN DYNAMICS APPLIED TO HYDROGENS
Info: LANGEVIN PISTON PRESSURE CONTROL ACTIVE
Info:        TARGET PRESSURE IS 1.01325 BAR
Info:     OSCILLATION PERIOD IS 50 FS
Info:             DECAY TIME IS 25 FS
Info:     PISTON TEMPERATURE IS 300 K
Info:       PRESSURE CONTROL IS GROUP-BASED
Info:    INITIAL STRAIN RATE IS 0 0 0
Info:       CELL FLUCTUATION IS ISOTROPIC
Info: PARTICLE MESH EWALD (PME) ACTIVE
Info: PME TOLERANCE               1e-06
Info: PME EWALD COEFFICIENT       0.348832
Info: PME INTERPOLATION ORDER     4
Info: PME GRID DIMENSIONS         36 36 40
Info: PME MAXIMUM GRID SPACING    1
Info: FULL ELECTROSTATIC EVALUATION FREQUENCY      2
Info: USING VERLET I (r-RESPA) MTS SCHEME.
Info: C1 SPLITTING OF LONG RANGE ELECTROSTATICS
Info: PLACING ATOMS IN PATCHES BY HYDROGEN GROUPS
Info: RIGID BONDS TO HYDROGEN : ALL
Info:         ERROR TOLERANCE : 1e-08
Info:          MAX ITERATIONS : 100
Info: RIGID WATER USING SETTLE ALGORITHM
Info: RANDOM NUMBER SEED     1743232962
Info: USE HYDROGEN BONDS?    NO
Info: Using AMBER format force field!
Info: AMBER PARM FILE        mobley_2354112.prmtop
Info: COORDINATE PDB         mobley_2354112.pdb
Info: Exclusions will be read from PARM file!
Info: SCNB (VDW SCALING)     2
Info: USING ARITHMETIC MEAN TO COMBINE L-J SIGMA PARAMETERS
Info: BINARY COORDINATES     mobley_2354112_min.coor
Info: SUMMARY OF PARAMETERS:
Info: 9 BONDS
Info: 9 ANGLES
Info:   9 HARMONIC
Info:   0 COSINE-BASED
Info: 6 DIHEDRAL
Info: 0 IMPROPER
Info: 0 CROSSTERM
Info: 0 VDW
Info: 28 VDW_PAIRS
Info: 0 NBTHOLE_PAIRS
Info: STRUCTURE SUMMARY:
Info: 2911 ATOMS
Info: 2911 BONDS
Info: 31 ANGLES
Info: 47 DIHEDRALS
Info: 0 IMPROPERS
Info: 0 CROSSTERMS
Info: 2980 EXCLUSIONS
Info: 2902 RIGID BONDS
Info: 5831 DEGREES OF FREEDOM
Info: 973 HYDROGEN GROUPS
Info: 4 ATOMS IN LARGEST HYDROGEN GROUP
Info: 973 MIGRATION GROUPS
Info: 4 ATOMS IN LARGEST MIGRATION GROUP
Info: TOTAL MASS = 17489.6 amu
Info: TOTAL CHARGE = -9.99719e-05 e
Info: MASS DENSITY = 0.680535 g/cm^3
Info: ATOM DENSITY = 0.0682109 atoms/A^3
Info: ADDED 0 IMPLICIT EXCLUSIONS
Info: NONBONDED TABLE R-SQUARED SPACING: 0.0625
Info: NONBONDED TABLE SIZE: 705 POINTS
Info: REMOVING COM VELOCITY -0.101502 0.0307457 -0.0472374
TCL: Running for 100000 steps
ETITLE: TS BOND ANGLE DIHED IMPRP ELECT VDW BOUNDARY MISC KINETIC TOTAL TEMP POTENTIAL TOTAL3 TEMPAVG PRESSURE GPRESSURE VOLUME PRESSAVG GPRESSAVG
ENERGY: 0 0.1445 0.1896 0.5399 0.0000 -13467.0868 2366.0222 0.0000 0.0000 1675.1047 -9425.0858 289.1274 -11100.1905 -9424.7783 289.1274 434.5541 476.8739 42676.4716 434.5541 476.8739
ENERGY: 100000 0.7842 0.5387 1.2485 0.0000 -13862.1119 2230.8236 0.0000 0.0000 180.9986 -11447.7183 31.2408 -11628.7169 -11447.2453 30.9262 -1700.9463 -1648.1844 27855.0258 2.9719 2.9638
TCL: Running 100000 steps at 60 kelvin.
TCL: Setting parameter langevinTemp to 60
TCL: Running for 100000 steps
ETITLE: TS BOND ANGLE DIHED IMPRP ELECT VDW BOUNDARY MISC KINETIC TOTAL TEMP POTENTIAL TOTAL3 TEMPAVG PRESSURE GPRESSURE VOLUME PRESSAVG GPRESSAVG
ENERGY: 100000 0.7842 0.5387 1.2485 0.0000 -13862.1119 2230.8236 0.0000 0.0000 180.9118 -11447.8051 31.2258 -11628.7169 -11447.4108 31.2258 -1710.2923 -1648.2187 27855.0258 -1710.2923 -1648.2187
ENERGY: 200000 0.2561 0.8863 1.3577 0.0000 -14053.2810 2474.8026 0.0000 0.0000 344.9628 -11231.0155 59.5415 -11575.9783 -11230.2209 59.8744 859.6617 895.5446 27401.8995 4.2496 4.1935
TCL: Running 100000 steps at 90 kelvin.
TCL: Setting parameter langevinTemp to 90
TCL: Running for 100000 steps
ETITLE: TS BOND ANGLE DIHED IMPRP ELECT VDW BOUNDARY MISC KINETIC TOTAL TEMP POTENTIAL TOTAL3 TEMPAVG PRESSURE GPRESSURE VOLUME PRESSAVG GPRESSAVG
ENERGY: 200000 0.2561 0.8863 1.3577 0.0000 -14053.2810 2474.8026 0.0000 0.0000 344.7936 -11231.1848 59.5123 -11575.9783 -11230.4355 59.5123 850.1144 895.7299 27401.8995 850.1144 895.7299
ENERGY: 300000 0.9299 1.4241 2.3531 0.0000 -13942.2703 2468.1197 0.0000 0.0000 519.2312 -10950.2124 89.6207 -11469.4436 -10948.6259 90.2203 895.5678 928.9159 27648.9149 3.9676 3.9174
TCL: Running 100000 steps at 120 kelvin.
TCL: Setting parameter langevinTemp to 120
TCL: Running for 100000 steps
ETITLE: TS BOND ANGLE DIHED IMPRP ELECT VDW BOUNDARY MISC KINETIC TOTAL TEMP POTENTIAL TOTAL3 TEMPAVG PRESSURE GPRESSURE VOLUME PRESSAVG GPRESSAVG
ENERGY: 300000 0.9299 1.4241 2.3531 0.0000 -13942.2703 2468.1197 0.0000 0.0000 518.9822 -10950.4613 89.5777 -11469.4436 -10949.4072 89.5777 882.8357 929.2374 27648.9149 882.8357 929.2374
ENERGY: 400000 1.9535 3.7159 1.2524 0.0000 -13503.6118 2203.0588 0.0000 0.0000 704.8639 -10588.7673 121.6613 -11293.6311 -10586.9735 120.0019 -551.8918 -542.5630 27887.9810 4.3540 4.5000
TCL: Running 100000 steps at 150 kelvin.
TCL: Setting parameter langevinTemp to 150
TCL: Running for 100000 steps
ETITLE: TS BOND ANGLE DIHED IMPRP ELECT VDW BOUNDARY MISC KINETIC TOTAL TEMP POTENTIAL TOTAL3 TEMPAVG PRESSURE GPRESSURE VOLUME PRESSAVG GPRESSAVG
ENERGY: 400000 1.9535 3.7159 1.2524 0.0000 -13503.6118 2203.0588 0.0000 0.0000 704.5195 -10589.1116 121.6019 -11293.6311 -10587.7589 121.6019 -584.5886 -541.9893 27887.9810 -584.5886 -541.9893
ENERGY: 500000 1.2017 3.5610 1.1030 0.0000 -13509.5877 2353.8341 0.0000 0.0000 852.9850 -10296.9029 147.2274 -11149.8879 -10294.1761 150.3463 1108.9079 1133.6121 28108.1541 3.8011 3.9090
TCL: Running 100000 steps at 180 kelvin.
TCL: Setting parameter langevinTemp to 180
TCL: Running for 100000 steps
ETITLE: TS BOND ANGLE DIHED IMPRP ELECT VDW BOUNDARY MISC KINETIC TOTAL TEMP POTENTIAL TOTAL3 TEMPAVG PRESSURE GPRESSURE VOLUME PRESSAVG GPRESSAVG
ENERGY: 500000 1.2017 3.5610 1.1030 0.0000 -13509.5877 2353.8341 0.0000 0.0000 852.5405 -10297.3474 147.1507 -11149.8879 -10295.4858 147.1507 1076.6510 1135.0125 28108.1541 1076.6510 1135.0125
ENERGY: 600000 1.3189 3.3701 2.0960 0.0000 -12949.9189 2098.3609 0.0000 0.0000 1051.6415 -9793.1314 181.5161 -10844.7730 -9790.5457 179.7661 88.9371 189.8646 28388.0321 2.0679 1.9379
TCL: Running 100000 steps at 210 kelvin.
TCL: Setting parameter langevinTemp to 210
TCL: Running for 100000 steps
ETITLE: TS BOND ANGLE DIHED IMPRP ELECT VDW BOUNDARY MISC KINETIC TOTAL TEMP POTENTIAL TOTAL3 TEMPAVG PRESSURE GPRESSURE VOLUME PRESSAVG GPRESSAVG
ENERGY: 600000 1.3189 3.3701 2.0960 0.0000 -12949.9189 2098.3609 0.0000 0.0000 1051.1519 -9793.6211 181.4316 -10844.7730 -9791.3365 181.4316 109.5177 188.9142 28388.0321 109.5177 188.9142
ENERGY: 700000 1.9243 3.2546 3.5222 0.0000 -12258.2309 1876.9718 0.0000 0.0000 1156.0069 -9216.5511 199.5298 -10372.5580 -9214.7150 209.8742 278.5638 396.5666 28086.7768 4.2048 4.2609
TCL: Running 100000 steps at 240 kelvin.
TCL: Setting parameter langevinTemp to 240
TCL: Running for 100000 steps
ETITLE: TS BOND ANGLE DIHED IMPRP ELECT VDW BOUNDARY MISC KINETIC TOTAL TEMP POTENTIAL TOTAL3 TEMPAVG PRESSURE GPRESSURE VOLUME PRESSAVG GPRESSAVG
ENERGY: 700000 1.9243 3.2546 3.5222 0.0000 -12258.2309 1876.9718 0.0000 0.0000 1155.3917 -9217.1663 199.4236 -10372.5580 -9215.3247 199.4236 315.5681 395.9228 28086.7768 315.5681 395.9228
ENERGY: 800000 1.5070 4.0145 2.9739 0.0000 -11582.2633 1646.1257 0.0000 0.0000 1362.7960 -8564.8464 235.2221 -9927.6423 -8562.3119 240.0820 -472.1983 -421.7387 28805.5040 3.1329 3.1867
TCL: Running 100000 steps at 270 kelvin.
TCL: Setting parameter langevinTemp to 270
TCL: Running for 100000 steps
ETITLE: TS BOND ANGLE DIHED IMPRP ELECT VDW BOUNDARY MISC KINETIC TOTAL TEMP POTENTIAL TOTAL3 TEMPAVG PRESSURE GPRESSURE VOLUME PRESSAVG GPRESSAVG
ENERGY: 800000 1.5070 4.0145 2.9739 0.0000 -11582.2633 1646.1257 0.0000 0.0000 1362.0905 -8565.5518 235.1004 -9927.6423 -8563.1660 235.1004 -504.0659 -421.5754 28805.5040 -504.0659 -421.5754
ENERGY: 900000 3.4188 5.2226 2.1413 0.0000 -11107.1367 1561.1545 0.0000 0.0000 1549.3054 -7985.8941 267.4141 -9535.1995 -7984.5219 269.8003 10.8453 128.4174 29349.3821 3.8611 3.6220
TCL: Running 1000000 steps at 300 kelvin.
TCL: Setting parameter langevinTemp to 300
TCL: Running for 1000000 steps
ETITLE: TS BOND ANGLE DIHED IMPRP ELECT VDW BOUNDARY MISC KINETIC TOTAL TEMP POTENTIAL TOTAL3 TEMPAVG PRESSURE GPRESSURE VOLUME PRESSAVG GPRESSAVG
ENERGY: 900000 3.4188 5.2226 2.1413 0.0000 -11107.1367 1561.1545 0.0000 0.0000 1548.4730 -7986.7265 267.2705 -9535.1995 -7984.3579 267.2705 48.7007 128.2218 29349.3821 48.7007 128.2218
ENERGY: 1100000 2.3963 8.1140 1.8086 0.0000 -10622.1834 1468.8476 0.0000 0.0000 1768.3116 -7372.7052 305.2152 -9141.0169 -7369.2753 300.3010 445.6083 483.3954 30013.9268 3.2872 3.2950
ENERGY: 1300000 1.7901 7.9223 2.6301 0.0000 -10571.8727 1427.7293 0.0000 0.0000 1714.8100 -7416.9910 295.9807 -9131.8010 -7414.8423 300.1607 -21.6739 35.2627 30037.2766 3.4706 3.5221
ENERGY: 1500000 2.6898 6.5987 2.8443 0.0000 -10467.2021 1329.4054 0.0000 0.0000 1681.6249 -7444.0390 290.2528 -9125.6639 -7441.1456 300.3046 -702.9883 -679.5060 30207.1893 2.9613 2.8692
ENERGY: 1700000 6.5089 4.1539 3.6434 0.0000 -10507.6591 1400.6182 0.0000 0.0000 1774.1878 -7318.5469 306.2294 -9092.7347 -7314.1599 300.6425 44.0636 109.4684 29581.9709 2.8736 2.7908
ENERGY: 1900000 3.3771 8.3839 4.6461 0.0000 -10626.8706 1460.7551 0.0000 0.0000 1748.7462 -7400.9622 301.8381 -9149.7084 -7397.6672 299.3535 191.8638 330.6509 30055.0008 4.2741 4.1163
TCL: Exiting due to exit command.
