Info: SIMULATION PARAMETERS:
Info: TIMESTEP               2
Info: NUMBER OF STEPS        0
Info: STEPS PER CYCLE        10
Info: PERIODIC CELL BASIS 1  41.123 0 0
Info: PERIODIC CELL BASIS 2  0 33.399 0
Info: PERIODIC CELL BASIS 3  0 0 32.993
Info: PERIODIC CELL CENTER   0 0 0
Info: WRAPPING WATERS AROUND PERIODIC BOUNDARIES ON OUTPUT.
Info: WRAPPING ALL CLUSTERS AROUND PERIODIC BOUNDARIES ON OUTPUT.
Info: FIRST LDB TIMESTEP     50
Info: LAST LDB TIMESTEP     -1
Info: HOM BACKGROUND SCALING 1
Info: PME BACKGROUND SCALING 1
Info: MIN ATOMS PER PATCH    40
Info: EMPTY PATCH LOAD       40 ATOMS
Info: INITIAL TEMPERATURE    300
Info: CENTER OF MASS MOVING INITIALLY? NO
Info: DIELECTRIC             1
Info: EXCLUDE                SCALED ONE-FOUR
Info: 1-4 ELECTROSTATICS SCALED BY 0.833333
Info: MODIFIED 1-4 VDW PARAMETERS WILL BE USED
Info: DCD FILENAME           mobley_7860938_equil.dcd
Info: DCD FREQUENCY          100000
Info: DCD FIRST STEP         100000
Info: DCD FILE WILL CONTAIN UNIT CELL DATA
Info: XST FILENAME           mobley_7860938_equil.xst
Info: XST FREQUENCY          100000
Info: NO VELOCITY DCD OUTPUT
Info: NO FORCE DCD OUTPUT
Info: OUTPUT FILENAME        mobley_7860938_equil
Info: BINARY OUTPUT FILES WILL BE USED
Info: RESTART FILENAME       mobley_7860938_equil.restart
Info: RESTART FREQUENCY      100000
Info: BINARY RESTART FILES WILL BE USED
Info: CUTOFF                 9
Info: PAIRLIST DISTANCE      11
Info: PAIRLIST SHRINK RATE   0.01
Info: PAIRLIST GROW RATE     0.01
Info: PAIRLIST TRIGGER       0.3
Info: PAIRLISTS PER CYCLE    2
Info: PAIRLISTS ENABLED
Info: MARGIN                 8
Info: HYDROGEN GROUP CUTOFF  2.5
Info: PATCH DIMENSION        21.5
Info: ENERGY OUTPUT STEPS    100000
Info: ENERGY EVALUATION STEPS    100000
Info: OUTPUT ENERGY PRECISION 4
Info: CROSSTERM ENERGY INCLUDED IN DIHEDRAL
Info: TIMING OUTPUT STEPS    1000000
Info: PRESSURE OUTPUT STEPS  100000
Info: LANGEVIN DYNAMICS ACTIVE
Info: LANGEVIN TEMPERATURE   30
Info: LANGEVIN USING BBK INTEGRATOR
Info: LANGEVIN DAMPING COEFFICIENT IS 1 INVERSE PS
Info: LANGEVIN DYNAMICS APPLIED TO HYDROGENS
Info: LANGEVIN PISTON PRESSURE CONTROL ACTIVE
Info:        TARGET PRESSURE IS 1.01325 BAR
Info:     OSCILLATION PERIOD IS 50 FS
Info:             DECAY TIME IS 25 FS
Info:     PISTON TEMPERATURE IS 300 K
Info:       PRESSURE CONTROL IS GROUP-BASED
Info:    INITIAL STRAIN RATE IS 0 0 0
Info:       CELL FLUCTUATION IS ISOTROPIC
Info: PARTICLE MESH EWALD (PME) ACTIVE
Info: PME TOLERANCE               1e-06
Info: PME EWALD COEFFICIENT       0.348832
Info: PME INTERPOLATION ORDER     4
Info: PME GRID DIMENSIONS         44 36 36
Info: PME MAXIMUM GRID SPACING    1
Info: FULL ELECTROSTATIC EVALUATION FREQUENCY      2
Info: USING VERLET I (r-RESPA) MTS SCHEME.
Info: C1 SPLITTING OF LONG RANGE ELECTROSTATICS
Info: PLACING ATOMS IN PATCHES BY HYDROGEN GROUPS
Info: RIGID BONDS TO HYDROGEN : ALL
Info:         ERROR TOLERANCE : 1e-08
Info:          MAX ITERATIONS : 100
Info: RIGID WATER USING SETTLE ALGORITHM
Info: RANDOM NUMBER SEED     1743262039
Info: USE HYDROGEN BONDS?    NO
Info: Using AMBER format force field!
Info: AMBER PARM FILE        mobley_7860938.prmtop
Info: COORDINATE PDB         mobley_7860938.pdb
Info: Exclusions will be read from PARM file!
Info: SCNB (VDW SCALING)     2
Info: USING ARITHMETIC MEAN TO COMBINE L-J SIGMA PARAMETERS
Info: BINARY COORDINATES     mobley_7860938_min.coor
Info: SUMMARY OF PARAMETERS:
Info: 7 BONDS
Info: 9 ANGLES
Info:   9 HARMONIC
Info:   0 COSINE-BASED
Info: 8 DIHEDRAL
Info: 0 IMPROPER
Info: 0 CROSSTERM
Info: 0 VDW
Info: 28 VDW_PAIRS
Info: 0 NBTHOLE_PAIRS
Info: STRUCTURE SUMMARY:
Info: 2998 ATOMS
Info: 2997 BONDS
Info: 51 ANGLES
Info: 72 DIHEDRALS
Info: 0 IMPROPERS
Info: 0 CROSSTERMS
Info: 3114 EXCLUSIONS
Info: 2989 RIGID BONDS
Info: 6005 DEGREES OF FREEDOM
Info: 999 HYDROGEN GROUPS
Info: 4 ATOMS IN LARGEST HYDROGEN GROUP
Info: 999 MIGRATION GROUPS
Info: 4 ATOMS IN LARGEST MIGRATION GROUP
Info: TOTAL MASS = 17965.1 amu
Info: TOTAL CHARGE = 0.000199988 e
Info: MASS DENSITY = 0.658337 g/cm^3
Info: ATOM DENSITY = 0.0661594 atoms/A^3
Info: ADDED 0 IMPLICIT EXCLUSIONS
Info: NONBONDED TABLE R-SQUARED SPACING: 0.0625
Info: NONBONDED TABLE SIZE: 705 POINTS
Info: REMOVING COM VELOCITY 0.206817 -0.0137371 0.152567
TCL: Running for 100000 steps
ETITLE: TS BOND ANGLE DIHED IMPRP ELECT VDW BOUNDARY MISC KINETIC TOTAL TEMP POTENTIAL TOTAL3 TEMPAVG PRESSURE GPRESSURE VOLUME PRESSAVG GPRESSAVG
ENERGY: 0 0.0730 0.3081 0.8715 0.0000 -13799.5817 2445.2013 0.0000 0.0000 1794.0973 -9559.0305 300.6930 -11353.1279 -9558.6874 300.6930 615.2965 657.2577 45314.7993 615.2965 657.2577
ENERGY: 100000 0.2014 1.9265 1.2445 0.0000 -14458.2430 2560.4111 0.0000 0.0000 182.5795 -11711.8799 30.6006 -11894.4594 -11711.4327 30.9081 524.4376 587.2592 28983.1665 3.1851 3.2175
TCL: Running 100000 steps at 60 kelvin.
TCL: Setting parameter langevinTemp to 60
TCL: Running for 100000 steps
ETITLE: TS BOND ANGLE DIHED IMPRP ELECT VDW BOUNDARY MISC KINETIC TOTAL TEMP POTENTIAL TOTAL3 TEMPAVG PRESSURE GPRESSURE VOLUME PRESSAVG GPRESSAVG
ENERGY: 100000 0.2014 1.9265 1.2445 0.0000 -14458.2430 2560.4111 0.0000 0.0000 182.4896 -11711.9699 30.5855 -11894.4594 -11711.5243 30.5855 526.6697 587.0724 28983.1665 526.6697 587.0724
ENERGY: 200000 0.6637 3.3989 0.9935 0.0000 -14362.1920 2534.6640 0.0000 0.0000 350.8223 -11471.6497 58.7983 -11822.4720 -11470.6875 59.9522 672.3957 707.1444 28779.4058 4.5967 4.6012
TCL: Running 100000 steps at 90 kelvin.
TCL: Setting parameter langevinTemp to 90
TCL: Running for 100000 steps
ETITLE: TS BOND ANGLE DIHED IMPRP ELECT VDW BOUNDARY MISC KINETIC TOTAL TEMP POTENTIAL TOTAL3 TEMPAVG PRESSURE GPRESSURE VOLUME PRESSAVG GPRESSAVG
ENERGY: 200000 0.6637 3.3989 0.9935 0.0000 -14362.1920 2534.6640 0.0000 0.0000 350.6495 -11471.8225 58.7693 -11822.4720 -11471.1723 58.7693 662.3133 706.9920 28779.4058 662.3133 706.9920
ENERGY: 300000 1.1048 3.8093 1.5993 0.0000 -14302.4679 2547.7340 0.0000 0.0000 536.7929 -11211.4276 89.9672 -11748.2205 -11210.5474 89.8138 1160.7988 1241.5135 28562.9663 4.8776 4.9121
TCL: Running 100000 steps at 120 kelvin.
TCL: Setting parameter langevinTemp to 120
TCL: Running for 100000 steps
ETITLE: TS BOND ANGLE DIHED IMPRP ELECT VDW BOUNDARY MISC KINETIC TOTAL TEMP POTENTIAL TOTAL3 TEMPAVG PRESSURE GPRESSURE VOLUME PRESSAVG GPRESSAVG
ENERGY: 300000 1.1048 3.8093 1.5993 0.0000 -14302.4679 2547.7340 0.0000 0.0000 536.5292 -11211.6913 89.9230 -11748.2205 -11210.6323 89.9230 1186.0828 1241.3498 28562.9663 1186.0828 1241.3498
ENERGY: 400000 1.2460 7.0359 1.6334 0.0000 -14038.2291 2427.2362 0.0000 0.0000 714.3186 -10886.7591 119.7207 -11601.0777 -10885.0617 119.9043 723.4140 789.1087 28741.4445 3.8957 3.9659
TCL: Running 100000 steps at 150 kelvin.
TCL: Setting parameter langevinTemp to 150
TCL: Running for 100000 steps
ETITLE: TS BOND ANGLE DIHED IMPRP ELECT VDW BOUNDARY MISC KINETIC TOTAL TEMP POTENTIAL TOTAL3 TEMPAVG PRESSURE GPRESSURE VOLUME PRESSAVG GPRESSAVG
ENERGY: 400000 1.2460 7.0359 1.6334 0.0000 -14038.2291 2427.2362 0.0000 0.0000 713.9793 -10887.0983 119.6639 -11601.0777 -10885.6752 119.6639 738.1041 789.2427 28741.4445 738.1041 789.2427
ENERGY: 500000 1.3766 6.0710 2.1312 0.0000 -13667.1534 2229.9357 0.0000 0.0000 912.8892 -10514.7498 153.0014 -11427.6390 -10511.9565 149.8790 -358.7462 -311.4590 29185.9295 3.5630 3.5368
TCL: Running 100000 steps at 180 kelvin.
TCL: Setting parameter langevinTemp to 180
TCL: Running for 100000 steps
ETITLE: TS BOND ANGLE DIHED IMPRP ELECT VDW BOUNDARY MISC KINETIC TOTAL TEMP POTENTIAL TOTAL3 TEMPAVG PRESSURE GPRESSURE VOLUME PRESSAVG GPRESSAVG
ENERGY: 500000 1.3766 6.0710 2.1312 0.0000 -13667.1534 2229.9357 0.0000 0.0000 912.4693 -10515.1697 152.9310 -11427.6390 -10513.2351 152.9310 -347.4637 -311.7767 29185.9295 -347.4637 -311.7767
ENERGY: 600000 2.3399 10.2039 3.8493 0.0000 -13311.0934 2189.5381 0.0000 0.0000 1086.9050 -10018.2572 182.1667 -11105.1622 -10016.9693 179.9808 592.4702 610.8316 28911.3767 3.3061 3.3921
TCL: Running 100000 steps at 210 kelvin.
TCL: Setting parameter langevinTemp to 210
TCL: Running for 100000 steps
ETITLE: TS BOND ANGLE DIHED IMPRP ELECT VDW BOUNDARY MISC KINETIC TOTAL TEMP POTENTIAL TOTAL3 TEMPAVG PRESSURE GPRESSURE VOLUME PRESSAVG GPRESSAVG
ENERGY: 600000 2.3399 10.2039 3.8493 0.0000 -13311.0934 2189.5381 0.0000 0.0000 1086.3790 -10018.7832 182.0785 -11105.1622 -10017.1725 182.0785 550.2821 611.2593 28911.3767 550.2821 611.2593
ENERGY: 700000 1.3217 12.9286 3.2451 0.0000 -12546.0264 1803.6283 0.0000 0.0000 1256.4252 -9468.4776 210.5785 -10724.9028 -9464.4855 210.0462 -1186.0445 -1158.8620 29494.4677 4.1721 4.1212
TCL: Running 100000 steps at 240 kelvin.
TCL: Setting parameter langevinTemp to 240
TCL: Running for 100000 steps
ETITLE: TS BOND ANGLE DIHED IMPRP ELECT VDW BOUNDARY MISC KINETIC TOTAL TEMP POTENTIAL TOTAL3 TEMPAVG PRESSURE GPRESSURE VOLUME PRESSAVG GPRESSAVG
ENERGY: 700000 1.3217 12.9286 3.2451 0.0000 -12546.0264 1803.6283 0.0000 0.0000 1255.8121 -9469.0907 210.4757 -10724.9028 -9465.9956 210.4757 -1222.1481 -1158.6346 29494.4677 -1222.1481 -1158.6346
ENERGY: 800000 2.3661 12.5880 2.7148 0.0000 -11952.5237 1745.5933 0.0000 0.0000 1454.3021 -8734.9593 243.7429 -10189.2614 -8730.2901 240.0988 125.1889 269.8591 29154.6263 4.0050 4.0322
TCL: Running 100000 steps at 270 kelvin.
TCL: Setting parameter langevinTemp to 270
TCL: Running for 100000 steps
ETITLE: TS BOND ANGLE DIHED IMPRP ELECT VDW BOUNDARY MISC KINETIC TOTAL TEMP POTENTIAL TOTAL3 TEMPAVG PRESSURE GPRESSURE VOLUME PRESSAVG GPRESSAVG
ENERGY: 800000 2.3661 12.5880 2.7148 0.0000 -11952.5237 1745.5933 0.0000 0.0000 1453.6166 -8735.6448 243.6280 -10189.2614 -8733.0584 243.6280 179.3371 268.4162 29154.6263 179.3371 268.4162
ENERGY: 900000 3.5661 12.3893 4.2657 0.0000 -11397.2707 1584.2552 0.0000 0.0000 1576.1376 -8216.6568 264.1627 -9792.7944 -8213.3116 269.9912 -239.7691 -127.4942 30081.5474 2.2899 2.3504
TCL: Running 1000000 steps at 300 kelvin.
TCL: Setting parameter langevinTemp to 300
TCL: Running for 1000000 steps
ETITLE: TS BOND ANGLE DIHED IMPRP ELECT VDW BOUNDARY MISC KINETIC TOTAL TEMP POTENTIAL TOTAL3 TEMPAVG PRESSURE GPRESSURE VOLUME PRESSAVG GPRESSAVG
ENERGY: 900000 3.5661 12.3893 4.2657 0.0000 -11397.2707 1584.2552 0.0000 0.0000 1575.3222 -8217.4722 264.0260 -9792.7944 -8215.2098 264.0260 -222.8985 -126.3411 30081.5474 -222.8985 -126.3411
ENERGY: 1100000 2.0874 12.5852 2.0340 0.0000 -10870.5225 1468.8756 0.0000 0.0000 1710.3020 -7674.6384 286.6488 -9384.9404 -7670.8720 299.9615 -235.8400 -105.0839 31128.6819 2.8604 2.7046
ENERGY: 1300000 4.4180 10.5646 3.1703 0.0000 -10896.1172 1483.9595 0.0000 0.0000 1752.3461 -7641.6587 293.6955 -9394.0048 -7638.4762 300.1806 -19.6216 64.0361 31094.7337 3.6455 3.5373
ENERGY: 1500000 4.1866 13.6252 2.9385 0.0000 -10672.6820 1429.4358 0.0000 0.0000 1765.8027 -7456.6930 295.9508 -9222.4957 -7454.8703 299.8467 262.1724 335.8775 30992.0316 3.7181 3.8587
ENERGY: 1700000 4.1519 8.2693 4.0849 0.0000 -10871.6772 1498.2756 0.0000 0.0000 1771.8308 -7585.0648 296.9611 -9356.8956 -7581.2932 300.0682 449.2877 511.1886 30678.9158 4.0097 4.1039
ENERGY: 1900000 1.6512 18.7279 5.1549 0.0000 -10857.8592 1435.0332 0.0000 0.0000 1764.8032 -7632.4887 295.7833 -9397.2920 -7630.5316 300.1030 -171.6431 -118.9977 30717.8258 4.3058 4.3073
TCL: Exiting due to exit command.
