Info: SIMULATION PARAMETERS:
Info: TIMESTEP               2
Info: NUMBER OF STEPS        0
Info: STEPS PER CYCLE        10
Info: PERIODIC CELL BASIS 1  36.281 0 0
Info: PERIODIC CELL BASIS 2  0 32.293 0
Info: PERIODIC CELL BASIS 3  0 0 37.451
Info: PERIODIC CELL CENTER   0 0 0
Info: WRAPPING WATERS AROUND PERIODIC BOUNDARIES ON OUTPUT.
Info: WRAPPING ALL CLUSTERS AROUND PERIODIC BOUNDARIES ON OUTPUT.
Info: FIRST LDB TIMESTEP     50
Info: LAST LDB TIMESTEP     -1
Info: HOM BACKGROUND SCALING 1
Info: PME BACKGROUND SCALING 1
Info: MIN ATOMS PER PATCH    40
Info: EMPTY PATCH LOAD       40 ATOMS
Info: INITIAL TEMPERATURE    300
Info: CENTER OF MASS MOVING INITIALLY? NO
Info: DIELECTRIC             1
Info: EXCLUDE                SCALED ONE-FOUR
Info: 1-4 ELECTROSTATICS SCALED BY 0.833333
Info: MODIFIED 1-4 VDW PARAMETERS WILL BE USED
Info: DCD FILENAME           mobley_6688723_equil.dcd
Info: DCD FREQUENCY          100000
Info: DCD FIRST STEP         100000
Info: DCD FILE WILL CONTAIN UNIT CELL DATA
Info: XST FILENAME           mobley_6688723_equil.xst
Info: XST FREQUENCY          100000
Info: NO VELOCITY DCD OUTPUT
Info: NO FORCE DCD OUTPUT
Info: OUTPUT FILENAME        mobley_6688723_equil
Info: BINARY OUTPUT FILES WILL BE USED
Info: RESTART FILENAME       mobley_6688723_equil.restart
Info: RESTART FREQUENCY      100000
Info: BINARY RESTART FILES WILL BE USED
Info: CUTOFF                 9
Info: PAIRLIST DISTANCE      11
Info: PAIRLIST SHRINK RATE   0.01
Info: PAIRLIST GROW RATE     0.01
Info: PAIRLIST TRIGGER       0.3
Info: PAIRLISTS PER CYCLE    2
Info: PAIRLISTS ENABLED
Info: MARGIN                 8
Info: HYDROGEN GROUP CUTOFF  2.5
Info: PATCH DIMENSION        21.5
Info: ENERGY OUTPUT STEPS    100000
Info: ENERGY EVALUATION STEPS    100000
Info: OUTPUT ENERGY PRECISION 4
Info: CROSSTERM ENERGY INCLUDED IN DIHEDRAL
Info: TIMING OUTPUT STEPS    1000000
Info: PRESSURE OUTPUT STEPS  100000
Info: LANGEVIN DYNAMICS ACTIVE
Info: LANGEVIN TEMPERATURE   30
Info: LANGEVIN USING BBK INTEGRATOR
Info: LANGEVIN DAMPING COEFFICIENT IS 1 INVERSE PS
Info: LANGEVIN DYNAMICS APPLIED TO HYDROGENS
Info: LANGEVIN PISTON PRESSURE CONTROL ACTIVE
Info:        TARGET PRESSURE IS 1.01325 BAR
Info:     OSCILLATION PERIOD IS 50 FS
Info:             DECAY TIME IS 25 FS
Info:     PISTON TEMPERATURE IS 300 K
Info:       PRESSURE CONTROL IS GROUP-BASED
Info:    INITIAL STRAIN RATE IS 0 0 0
Info:       CELL FLUCTUATION IS ISOTROPIC
Info: PARTICLE MESH EWALD (PME) ACTIVE
Info: PME TOLERANCE               1e-06
Info: PME EWALD COEFFICIENT       0.348832
Info: PME INTERPOLATION ORDER     4
Info: PME GRID DIMENSIONS         40 36 40
Info: PME MAXIMUM GRID SPACING    1
Info: FULL ELECTROSTATIC EVALUATION FREQUENCY      2
Info: USING VERLET I (r-RESPA) MTS SCHEME.
Info: C1 SPLITTING OF LONG RANGE ELECTROSTATICS
Info: PLACING ATOMS IN PATCHES BY HYDROGEN GROUPS
Info: RIGID BONDS TO HYDROGEN : ALL
Info:         ERROR TOLERANCE : 1e-08
Info:          MAX ITERATIONS : 100
Info: RIGID WATER USING SETTLE ALGORITHM
Info: RANDOM NUMBER SEED     1743244014
Info: USE HYDROGEN BONDS?    NO
Info: Using AMBER format force field!
Info: AMBER PARM FILE        mobley_6688723.prmtop
Info: COORDINATE PDB         mobley_6688723.pdb
Info: Exclusions will be read from PARM file!
Info: SCNB (VDW SCALING)     2
Info: USING ARITHMETIC MEAN TO COMBINE L-J SIGMA PARAMETERS
Info: BINARY COORDINATES     mobley_6688723_min.coor
Info: SUMMARY OF PARAMETERS:
Info: 10 BONDS
Info: 9 ANGLES
Info:   9 HARMONIC
Info:   0 COSINE-BASED
Info: 4 DIHEDRAL
Info: 0 IMPROPER
Info: 0 CROSSTERM
Info: 0 VDW
Info: 45 VDW_PAIRS
Info: 0 NBTHOLE_PAIRS
Info: STRUCTURE SUMMARY:
Info: 2943 ATOMS
Info: 2943 BONDS
Info: 33 ANGLES
Info: 42 DIHEDRALS
Info: 0 IMPROPERS
Info: 0 CROSSTERMS
Info: 3009 EXCLUSIONS
Info: 2930 RIGID BONDS
Info: 5899 DEGREES OF FREEDOM
Info: 987 HYDROGEN GROUPS
Info: 4 ATOMS IN LARGEST HYDROGEN GROUP
Info: 987 MIGRATION GROUPS
Info: 4 ATOMS IN LARGEST MIGRATION GROUP
Info: TOTAL MASS = 17770.6 amu
Info: TOTAL CHARGE = -3.72529e-08 e
Info: MASS DENSITY = 0.672529 g/cm^3
Info: ATOM DENSITY = 0.0670717 atoms/A^3
Info: ADDED 0 IMPLICIT EXCLUSIONS
Info: NONBONDED TABLE R-SQUARED SPACING: 0.0625
Info: NONBONDED TABLE SIZE: 705 POINTS
Info: REMOVING COM VELOCITY 0.1217 0.0128995 -0.0608968
TCL: Running for 100000 steps
ETITLE: TS BOND ANGLE DIHED IMPRP ELECT VDW BOUNDARY MISC KINETIC TOTAL TEMP POTENTIAL TOTAL3 TEMPAVG PRESSURE GPRESSURE VOLUME PRESSAVG GPRESSAVG
ENERGY: 0 0.3816 0.3280 6.9711 0.0000 -13576.8480 2371.0432 0.0000 0.0000 1743.5083 -9454.6159 297.4651 -11198.1242 -9454.2788 297.4651 345.6814 381.4170 43878.4280 345.6814 381.4170
ENERGY: 100000 0.8537 1.3188 7.6952 0.0000 -14171.6787 2483.9035 0.0000 0.0000 178.1662 -11499.7414 30.3975 -11677.9076 -11499.2806 30.9458 48.1929 113.0975 29407.7395 3.2992 3.2146
TCL: Running 100000 steps at 60 kelvin.
TCL: Setting parameter langevinTemp to 60
TCL: Running for 100000 steps
ETITLE: TS BOND ANGLE DIHED IMPRP ELECT VDW BOUNDARY MISC KINETIC TOTAL TEMP POTENTIAL TOTAL3 TEMPAVG PRESSURE GPRESSURE VOLUME PRESSAVG GPRESSAVG
ENERGY: 100000 0.8537 1.3188 7.6952 0.0000 -14171.6787 2483.9035 0.0000 0.0000 178.0769 -11499.8307 30.3822 -11677.9076 -11499.4916 30.3822 49.6938 112.9829 29407.7395 49.6938 112.9829
ENERGY: 200000 1.9821 1.3989 7.9345 0.0000 -14084.0655 2475.9936 0.0000 0.0000 357.1203 -11239.6362 60.9294 -11596.7565 -11239.1446 59.9943 463.8013 535.7221 29066.0744 3.5365 3.5084
TCL: Running 100000 steps at 90 kelvin.
TCL: Setting parameter langevinTemp to 90
TCL: Running for 100000 steps
ETITLE: TS BOND ANGLE DIHED IMPRP ELECT VDW BOUNDARY MISC KINETIC TOTAL TEMP POTENTIAL TOTAL3 TEMPAVG PRESSURE GPRESSURE VOLUME PRESSAVG GPRESSAVG
ENERGY: 200000 1.9821 1.3989 7.9345 0.0000 -14084.0655 2475.9936 0.0000 0.0000 356.9506 -11239.8059 60.9004 -11596.7565 -11239.2066 60.9004 483.8092 535.5399 29066.0744 483.8092 535.5399
ENERGY: 300000 3.4396 3.5869 8.0232 0.0000 -13973.5761 2464.1032 0.0000 0.0000 516.5593 -10977.8638 88.1317 -11494.4231 -10976.1643 89.9456 553.5390 611.2752 28928.0015 4.5166 4.4464
TCL: Running 100000 steps at 120 kelvin.
TCL: Setting parameter langevinTemp to 120
TCL: Running for 100000 steps
ETITLE: TS BOND ANGLE DIHED IMPRP ELECT VDW BOUNDARY MISC KINETIC TOTAL TEMP POTENTIAL TOTAL3 TEMPAVG PRESSURE GPRESSURE VOLUME PRESSAVG GPRESSAVG
ENERGY: 300000 3.4396 3.5869 8.0232 0.0000 -13973.5761 2464.1032 0.0000 0.0000 516.3087 -10978.1145 88.0889 -11494.4231 -10977.3648 88.0889 567.7828 612.2815 28928.0015 567.7828 612.2815
ENERGY: 400000 4.5150 2.3304 7.3661 0.0000 -13597.5742 2236.2044 0.0000 0.0000 697.7202 -10649.4382 119.0401 -11347.1583 -10646.9416 120.0026 -1047.9133 -981.2812 29223.4528 2.9613 2.8951
TCL: Running 100000 steps at 150 kelvin.
TCL: Setting parameter langevinTemp to 150
TCL: Running for 100000 steps
ETITLE: TS BOND ANGLE DIHED IMPRP ELECT VDW BOUNDARY MISC KINETIC TOTAL TEMP POTENTIAL TOTAL3 TEMPAVG PRESSURE GPRESSURE VOLUME PRESSAVG GPRESSAVG
ENERGY: 400000 4.5150 2.3304 7.3661 0.0000 -13597.5742 2236.2044 0.0000 0.0000 697.3703 -10649.7880 118.9804 -11347.1583 -10648.1238 118.9804 -1034.1164 -981.2080 29223.4528 -1034.1164 -981.2080
ENERGY: 500000 1.3112 3.1670 9.7451 0.0000 -13599.4254 2359.1180 0.0000 0.0000 875.3819 -10350.7022 149.3515 -11226.0841 -10347.2224 149.8407 960.5239 960.8103 28865.7516 3.1783 3.2691
TCL: Running 100000 steps at 180 kelvin.
TCL: Setting parameter langevinTemp to 180
TCL: Running for 100000 steps
ETITLE: TS BOND ANGLE DIHED IMPRP ELECT VDW BOUNDARY MISC KINETIC TOTAL TEMP POTENTIAL TOTAL3 TEMPAVG PRESSURE GPRESSURE VOLUME PRESSAVG GPRESSAVG
ENERGY: 500000 1.3112 3.1670 9.7451 0.0000 -13599.4254 2359.1180 0.0000 0.0000 874.9593 -10351.1248 149.2794 -11226.0841 -10349.3299 149.2794 910.8022 961.3711 28865.7516 910.8022 961.3711
ENERGY: 600000 1.6903 4.8783 8.7788 0.0000 -13133.5329 2215.0842 0.0000 0.0000 1055.0929 -9848.0084 180.0125 -10903.1013 -9846.1665 179.9822 1116.8215 1154.4008 28892.6648 3.7245 3.7456
TCL: Running 100000 steps at 210 kelvin.
TCL: Setting parameter langevinTemp to 210
TCL: Running for 100000 steps
ETITLE: TS BOND ANGLE DIHED IMPRP ELECT VDW BOUNDARY MISC KINETIC TOTAL TEMP POTENTIAL TOTAL3 TEMPAVG PRESSURE GPRESSURE VOLUME PRESSAVG GPRESSAVG
ENERGY: 600000 1.6903 4.8783 8.7788 0.0000 -13133.5329 2215.0842 0.0000 0.0000 1054.5863 -9848.5151 179.9261 -10903.1013 -9846.9538 179.9261 1086.4598 1154.2503 28892.6648 1086.4598 1154.2503
ENERGY: 700000 3.5952 3.4929 8.7377 0.0000 -12275.6947 1829.4190 0.0000 0.0000 1252.3599 -9178.0900 213.6688 -10430.4499 -9175.3572 210.5162 -378.2657 -276.5079 28402.7677 2.6973 2.7044
TCL: Running 100000 steps at 240 kelvin.
TCL: Setting parameter langevinTemp to 240
TCL: Running for 100000 steps
ETITLE: TS BOND ANGLE DIHED IMPRP ELECT VDW BOUNDARY MISC KINETIC TOTAL TEMP POTENTIAL TOTAL3 TEMPAVG PRESSURE GPRESSURE VOLUME PRESSAVG GPRESSAVG
ENERGY: 700000 3.5952 3.4929 8.7377 0.0000 -12275.6947 1829.4190 0.0000 0.0000 1251.7417 -9178.7082 213.5633 -10430.4499 -9175.7813 213.5633 -361.3788 -276.3566 28402.7677 -361.3788 -276.3566
ENERGY: 800000 4.7816 6.8120 10.6852 0.0000 -11651.3520 1648.9013 0.0000 0.0000 1432.5987 -8547.5732 244.4199 -9980.1719 -8542.8647 239.6396 -536.3024 -486.3374 28934.4413 3.4930 3.5902
TCL: Running 100000 steps at 270 kelvin.
TCL: Setting parameter langevinTemp to 270
TCL: Running for 100000 steps
ETITLE: TS BOND ANGLE DIHED IMPRP ELECT VDW BOUNDARY MISC KINETIC TOTAL TEMP POTENTIAL TOTAL3 TEMPAVG PRESSURE GPRESSURE VOLUME PRESSAVG GPRESSAVG
ENERGY: 800000 4.7816 6.8120 10.6852 0.0000 -11651.3520 1648.9013 0.0000 0.0000 1431.9201 -8548.2518 244.3041 -9980.1719 -8546.0493 244.3041 -560.5489 -486.2404 28934.4413 -560.5489 -486.2404
ENERGY: 900000 1.4631 7.7547 10.2679 0.0000 -11266.4573 1634.7168 0.0000 0.0000 1563.3854 -8048.8694 266.7338 -9612.2547 -8045.8909 269.5065 711.6294 834.9405 29485.5246 2.3653 2.3751
TCL: Running 1000000 steps at 300 kelvin.
TCL: Setting parameter langevinTemp to 300
TCL: Running for 1000000 steps
ETITLE: TS BOND ANGLE DIHED IMPRP ELECT VDW BOUNDARY MISC KINETIC TOTAL TEMP POTENTIAL TOTAL3 TEMPAVG PRESSURE GPRESSURE VOLUME PRESSAVG GPRESSAVG
ENERGY: 900000 1.4631 7.7547 10.2679 0.0000 -11266.4573 1634.7168 0.0000 0.0000 1562.5820 -8049.6727 266.5967 -9612.2547 -8046.9903 266.5967 735.0358 834.1537 29485.5246 735.0358 834.1537
ENERGY: 1100000 3.0028 9.4870 8.5722 0.0000 -10688.9032 1483.4117 0.0000 0.0000 1755.6583 -7428.7710 299.5380 -9184.4294 -7426.2451 300.3953 384.9171 420.0479 30389.7477 3.9146 3.6661
ENERGY: 1300000 8.0913 3.7955 11.3764 0.0000 -10627.9804 1471.5356 0.0000 0.0000 1759.7249 -7373.4566 300.2319 -9133.1816 -7371.4415 299.8696 173.0109 295.6199 30727.1773 3.4190 3.4264
ENERGY: 1500000 8.5231 6.7350 11.5912 0.0000 -10474.3050 1368.9927 0.0000 0.0000 1729.6028 -7348.8603 295.0926 -9078.4630 -7344.7745 300.5995 -545.2851 -430.1792 30711.3231 3.2210 3.2065
ENERGY: 1700000 6.6564 6.8100 13.7468 0.0000 -10539.4597 1413.4294 0.0000 0.0000 1747.9224 -7350.8946 298.2182 -9098.8171 -7346.6848 300.2927 13.6508 151.0233 30505.6036 3.0507 2.9974
ENERGY: 1900000 4.9107 9.6280 9.4582 0.0000 -10693.1793 1459.0594 0.0000 0.0000 1722.6960 -7487.4271 293.9142 -9210.1230 -7484.0001 300.4036 159.4707 288.6264 30228.8020 2.3687 2.3055
TCL: Exiting due to exit command.
