Info: SIMULATION PARAMETERS:
Info: TIMESTEP               2
Info: NUMBER OF STEPS        0
Info: STEPS PER CYCLE        10
Info: PERIODIC CELL BASIS 1  36.005 0 0
Info: PERIODIC CELL BASIS 2  0 34.1 0
Info: PERIODIC CELL BASIS 3  0 0 36.488
Info: PERIODIC CELL CENTER   0 0 0
Info: WRAPPING WATERS AROUND PERIODIC BOUNDARIES ON OUTPUT.
Info: WRAPPING ALL CLUSTERS AROUND PERIODIC BOUNDARIES ON OUTPUT.
Info: FIRST LDB TIMESTEP     50
Info: LAST LDB TIMESTEP     -1
Info: HOM BACKGROUND SCALING 1
Info: PME BACKGROUND SCALING 1
Info: MIN ATOMS PER PATCH    40
Info: EMPTY PATCH LOAD       40 ATOMS
Info: INITIAL TEMPERATURE    300
Info: CENTER OF MASS MOVING INITIALLY? NO
Info: DIELECTRIC             1
Info: EXCLUDE                SCALED ONE-FOUR
Info: 1-4 ELECTROSTATICS SCALED BY 0.833333
Info: MODIFIED 1-4 VDW PARAMETERS WILL BE USED
Info: DCD FILENAME           mobley_4395315_equil.dcd
Info: DCD FREQUENCY          100000
Info: DCD FIRST STEP         100000
Info: DCD FILE WILL CONTAIN UNIT CELL DATA
Info: XST FILENAME           mobley_4395315_equil.xst
Info: XST FREQUENCY          100000
Info: NO VELOCITY DCD OUTPUT
Info: NO FORCE DCD OUTPUT
Info: OUTPUT FILENAME        mobley_4395315_equil
Info: BINARY OUTPUT FILES WILL BE USED
Info: RESTART FILENAME       mobley_4395315_equil.restart
Info: RESTART FREQUENCY      100000
Info: BINARY RESTART FILES WILL BE USED
Info: CUTOFF                 9
Info: PAIRLIST DISTANCE      11
Info: PAIRLIST SHRINK RATE   0.01
Info: PAIRLIST GROW RATE     0.01
Info: PAIRLIST TRIGGER       0.3
Info: PAIRLISTS PER CYCLE    2
Info: PAIRLISTS ENABLED
Info: MARGIN                 8
Info: HYDROGEN GROUP CUTOFF  2.5
Info: PATCH DIMENSION        21.5
Info: ENERGY OUTPUT STEPS    100000
Info: ENERGY EVALUATION STEPS    100000
Info: OUTPUT ENERGY PRECISION 4
Info: CROSSTERM ENERGY INCLUDED IN DIHEDRAL
Info: TIMING OUTPUT STEPS    1000000
Info: PRESSURE OUTPUT STEPS  100000
Info: LANGEVIN DYNAMICS ACTIVE
Info: LANGEVIN TEMPERATURE   30
Info: LANGEVIN USING BBK INTEGRATOR
Info: LANGEVIN DAMPING COEFFICIENT IS 1 INVERSE PS
Info: LANGEVIN DYNAMICS APPLIED TO HYDROGENS
Info: LANGEVIN PISTON PRESSURE CONTROL ACTIVE
Info:        TARGET PRESSURE IS 1.01325 BAR
Info:     OSCILLATION PERIOD IS 50 FS
Info:             DECAY TIME IS 25 FS
Info:     PISTON TEMPERATURE IS 300 K
Info:       PRESSURE CONTROL IS GROUP-BASED
Info:    INITIAL STRAIN RATE IS 0 0 0
Info:       CELL FLUCTUATION IS ISOTROPIC
Info: PARTICLE MESH EWALD (PME) ACTIVE
Info: PME TOLERANCE               1e-06
Info: PME EWALD COEFFICIENT       0.348832
Info: PME INTERPOLATION ORDER     4
Info: PME GRID DIMENSIONS         40 36 40
Info: PME MAXIMUM GRID SPACING    1
Info: FULL ELECTROSTATIC EVALUATION FREQUENCY      2
Info: USING VERLET I (r-RESPA) MTS SCHEME.
Info: C1 SPLITTING OF LONG RANGE ELECTROSTATICS
Info: PLACING ATOMS IN PATCHES BY HYDROGEN GROUPS
Info: RIGID BONDS TO HYDROGEN : ALL
Info:         ERROR TOLERANCE : 1e-08
Info:          MAX ITERATIONS : 100
Info: RIGID WATER USING SETTLE ALGORITHM
Info: RANDOM NUMBER SEED     1743212966
Info: USE HYDROGEN BONDS?    NO
Info: Using AMBER format force field!
Info: AMBER PARM FILE        mobley_4395315.prmtop
Info: COORDINATE PDB         mobley_4395315.pdb
Info: Exclusions will be read from PARM file!
Info: SCNB (VDW SCALING)     2
Info: USING ARITHMETIC MEAN TO COMBINE L-J SIGMA PARAMETERS
Info: BINARY COORDINATES     mobley_4395315_min.coor
Info: SUMMARY OF PARAMETERS:
Info: 9 BONDS
Info: 8 ANGLES
Info:   8 HARMONIC
Info:   0 COSINE-BASED
Info: 4 DIHEDRAL
Info: 0 IMPROPER
Info: 0 CROSSTERM
Info: 0 VDW
Info: 36 VDW_PAIRS
Info: 0 NBTHOLE_PAIRS
Info: STRUCTURE SUMMARY:
Info: 2983 ATOMS
Info: 2983 BONDS
Info: 25 ANGLES
Info: 38 DIHEDRALS
Info: 0 IMPROPERS
Info: 0 CROSSTERMS
Info: 3037 EXCLUSIONS
Info: 2974 RIGID BONDS
Info: 5975 DEGREES OF FREEDOM
Info: 998 HYDROGEN GROUPS
Info: 4 ATOMS IN LARGEST HYDROGEN GROUP
Info: 998 MIGRATION GROUPS
Info: 4 ATOMS IN LARGEST MIGRATION GROUP
Info: TOTAL MASS = 17960.4 amu
Info: TOTAL CHARGE = -7.45058e-09 e
Info: MASS DENSITY = 0.665745 g/cm^3
Info: ATOM DENSITY = 0.0665865 atoms/A^3
Info: ADDED 0 IMPLICIT EXCLUSIONS
Info: NONBONDED TABLE R-SQUARED SPACING: 0.0625
Info: NONBONDED TABLE SIZE: 705 POINTS
Info: REMOVING COM VELOCITY -0.0777734 -0.0658649 0.068674
TCL: Running for 100000 steps
ETITLE: TS BOND ANGLE DIHED IMPRP ELECT VDW BOUNDARY MISC KINETIC TOTAL TEMP POTENTIAL TOTAL3 TEMPAVG PRESSURE GPRESSURE VOLUME PRESSAVG GPRESSAVG
ENERGY: 0 0.2097 0.2272 0.0216 0.0000 -13777.2560 2409.2615 0.0000 0.0000 1755.8478 -9611.6881 295.7599 -11367.5360 -9611.3252 295.7599 414.6751 450.8282 44798.8900 414.6751 450.8282
ENERGY: 100000 0.5694 0.5087 0.1627 0.0000 -14397.1067 2509.1468 0.0000 0.0000 170.8416 -11715.8776 28.7770 -11886.7191 -11715.3563 30.8905 -75.6787 -26.9154 29432.5763 4.1334 4.0972
TCL: Running 100000 steps at 60 kelvin.
TCL: Setting parameter langevinTemp to 60
TCL: Running for 100000 steps
ETITLE: TS BOND ANGLE DIHED IMPRP ELECT VDW BOUNDARY MISC KINETIC TOTAL TEMP POTENTIAL TOTAL3 TEMPAVG PRESSURE GPRESSURE VOLUME PRESSAVG GPRESSAVG
ENERGY: 100000 0.5694 0.5087 0.1627 0.0000 -14397.1067 2509.1468 0.0000 0.0000 170.7546 -11715.9646 28.7624 -11886.7191 -11715.5379 28.7624 -82.2033 -26.8619 29432.5763 -82.2033 -26.8619
ENERGY: 200000 0.5250 2.2236 0.4762 0.0000 -14351.3582 2501.8503 0.0000 0.0000 364.9008 -11481.3822 61.4649 -11846.2831 -11480.5599 60.0227 214.4667 286.7196 28902.2579 4.8078 4.7318
TCL: Running 100000 steps at 90 kelvin.
TCL: Setting parameter langevinTemp to 90
TCL: Running for 100000 steps
ETITLE: TS BOND ANGLE DIHED IMPRP ELECT VDW BOUNDARY MISC KINETIC TOTAL TEMP POTENTIAL TOTAL3 TEMPAVG PRESSURE GPRESSURE VOLUME PRESSAVG GPRESSAVG
ENERGY: 200000 0.5250 2.2236 0.4762 0.0000 -14351.3582 2501.8503 0.0000 0.0000 364.7302 -11481.5529 61.4362 -11846.2831 -11480.9249 61.4362 223.6576 286.9416 28902.2579 223.6576 286.9416
ENERGY: 300000 2.3039 0.7836 1.1693 0.0000 -14219.2318 2485.1905 0.0000 0.0000 540.7627 -11189.0218 91.0876 -11729.7845 -11187.6038 89.9070 392.7796 449.1678 29124.4562 2.6434 2.7353
TCL: Running 100000 steps at 120 kelvin.
TCL: Setting parameter langevinTemp to 120
TCL: Running for 100000 steps
ETITLE: TS BOND ANGLE DIHED IMPRP ELECT VDW BOUNDARY MISC KINETIC TOTAL TEMP POTENTIAL TOTAL3 TEMPAVG PRESSURE GPRESSURE VOLUME PRESSAVG GPRESSAVG
ENERGY: 300000 2.3039 0.7836 1.1693 0.0000 -14219.2318 2485.1905 0.0000 0.0000 540.4929 -11189.2916 91.0421 -11729.7845 -11188.1486 91.0421 395.3611 449.0148 29124.4562 395.3611 449.0148
ENERGY: 400000 0.9214 1.2984 1.0054 0.0000 -13871.6033 2249.7394 0.0000 0.0000 692.8925 -10925.7462 116.7128 -11618.6387 -10923.5545 120.1494 -1004.6707 -952.2321 29151.5054 3.5744 3.6462
TCL: Running 100000 steps at 150 kelvin.
TCL: Setting parameter langevinTemp to 150
TCL: Running for 100000 steps
ETITLE: TS BOND ANGLE DIHED IMPRP ELECT VDW BOUNDARY MISC KINETIC TOTAL TEMP POTENTIAL TOTAL3 TEMPAVG PRESSURE GPRESSURE VOLUME PRESSAVG GPRESSAVG
ENERGY: 400000 0.9214 1.2984 1.0054 0.0000 -13871.6033 2249.7394 0.0000 0.0000 692.5509 -10926.0879 116.6552 -11618.6387 -10924.4842 116.6552 -1008.8423 -952.0168 29151.5054 -1008.8423 -952.0168
ENERGY: 500000 2.0394 1.6598 2.0529 0.0000 -13683.6249 2255.9214 0.0000 0.0000 899.5436 -10522.4078 151.5216 -11421.9514 -10519.7516 149.7843 -285.2980 -219.4498 29170.8944 4.0983 4.1432
TCL: Running 100000 steps at 180 kelvin.
TCL: Setting parameter langevinTemp to 180
TCL: Running for 100000 steps
ETITLE: TS BOND ANGLE DIHED IMPRP ELECT VDW BOUNDARY MISC KINETIC TOTAL TEMP POTENTIAL TOTAL3 TEMPAVG PRESSURE GPRESSURE VOLUME PRESSAVG GPRESSAVG
ENERGY: 500000 2.0394 1.6598 2.0529 0.0000 -13683.6249 2255.9214 0.0000 0.0000 899.1085 -10522.8429 151.4484 -11421.9514 -10520.8251 151.4484 -282.5259 -218.8829 29170.8944 -282.5259 -218.8829
ENERGY: 600000 0.9463 2.2055 0.6543 0.0000 -13204.6359 2083.7826 0.0000 0.0000 1070.1599 -10046.8873 180.2607 -11117.0473 -10045.6577 179.9577 -476.5504 -349.8554 29189.0100 4.4979 4.6329
TCL: Running 100000 steps at 210 kelvin.
TCL: Setting parameter langevinTemp to 210
TCL: Running for 100000 steps
ETITLE: TS BOND ANGLE DIHED IMPRP ELECT VDW BOUNDARY MISC KINETIC TOTAL TEMP POTENTIAL TOTAL3 TEMPAVG PRESSURE GPRESSURE VOLUME PRESSAVG GPRESSAVG
ENERGY: 600000 0.9463 2.2055 0.6543 0.0000 -13204.6359 2083.7826 0.0000 0.0000 1069.6333 -10047.4139 180.1720 -11117.0473 -10045.5334 180.1720 -422.0998 -350.3300 29189.0100 -422.0998 -350.3300
ENERGY: 700000 1.4557 2.5887 1.1988 0.0000 -12448.7947 1815.0646 0.0000 0.0000 1240.2897 -9388.1972 208.9179 -10628.4869 -9384.9797 209.9247 -552.9747 -515.7424 28765.8245 3.3738 3.2929
TCL: Running 100000 steps at 240 kelvin.
TCL: Setting parameter langevinTemp to 240
TCL: Running for 100000 steps
ETITLE: TS BOND ANGLE DIHED IMPRP ELECT VDW BOUNDARY MISC KINETIC TOTAL TEMP POTENTIAL TOTAL3 TEMPAVG PRESSURE GPRESSURE VOLUME PRESSAVG GPRESSAVG
ENERGY: 700000 1.4557 2.5887 1.1988 0.0000 -12448.7947 1815.0646 0.0000 0.0000 1239.6291 -9388.8579 208.8066 -10628.4869 -9386.3855 208.8066 -581.3008 -515.3594 28765.8245 -581.3008 -515.3594
ENERGY: 800000 1.7094 2.7264 1.2377 0.0000 -11897.0361 1695.5346 0.0000 0.0000 1435.5834 -8760.2446 241.8137 -10195.8280 -8756.2513 239.8996 -248.1272 -185.6203 29242.5936 3.9745 4.0797
TCL: Running 100000 steps at 270 kelvin.
TCL: Setting parameter langevinTemp to 270
TCL: Running for 100000 steps
ETITLE: TS BOND ANGLE DIHED IMPRP ELECT VDW BOUNDARY MISC KINETIC TOTAL TEMP POTENTIAL TOTAL3 TEMPAVG PRESSURE GPRESSURE VOLUME PRESSAVG GPRESSAVG
ENERGY: 800000 1.7094 2.7264 1.2377 0.0000 -11897.0361 1695.5346 0.0000 0.0000 1434.8844 -8760.9436 241.6960 -10195.8280 -8758.4001 241.6960 -269.6163 -185.0051 29242.5936 -269.6163 -185.0051
ENERGY: 900000 3.1416 5.2858 0.8606 0.0000 -11394.3968 1614.8473 0.0000 0.0000 1591.9605 -8178.3010 268.1543 -9770.2615 -8176.1058 270.3617 151.6447 228.2606 29987.7977 2.8185 2.9489
TCL: Running 1000000 steps at 300 kelvin.
TCL: Setting parameter langevinTemp to 300
TCL: Running for 1000000 steps
ETITLE: TS BOND ANGLE DIHED IMPRP ELECT VDW BOUNDARY MISC KINETIC TOTAL TEMP POTENTIAL TOTAL3 TEMPAVG PRESSURE GPRESSURE VOLUME PRESSAVG GPRESSAVG
ENERGY: 900000 3.1416 5.2858 0.8606 0.0000 -11394.3968 1614.8473 0.0000 0.0000 1591.1543 -8179.1073 268.0185 -9770.2615 -8176.6725 268.0185 146.1127 227.4413 29987.7977 146.1127 227.4413
ENERGY: 1100000 4.7786 5.7942 2.6813 0.0000 -10761.3823 1356.6686 0.0000 0.0000 1771.0629 -7620.3967 298.3228 -9391.4596 -7615.9738 300.0494 -1207.8149 -1138.5726 31018.2174 3.0888 3.2204
ENERGY: 1300000 3.0471 5.5743 3.8031 0.0000 -10892.5361 1427.1837 0.0000 0.0000 1800.1875 -7652.7404 303.2286 -9452.9278 -7650.0770 300.2624 -453.9514 -377.6797 31044.1478 2.1798 2.2649
ENERGY: 1500000 3.0952 5.2245 2.5014 0.0000 -10939.9226 1552.4819 0.0000 0.0000 1772.8716 -7603.7479 298.6275 -9376.6195 -7599.8163 299.8614 953.7201 1004.5888 30254.5150 3.3857 3.5568
ENERGY: 1700000 2.8076 5.7205 3.5408 0.0000 -10926.8312 1564.8149 0.0000 0.0000 1717.0068 -7632.9406 289.2174 -9349.9474 -7630.8212 299.9699 784.3477 890.3424 30850.1938 3.9632 3.9064
ENERGY: 1900000 1.9072 4.4920 3.6762 0.0000 -10791.4372 1370.1977 0.0000 0.0000 1772.6806 -7638.4835 298.5953 -9411.1641 -7631.8937 300.4152 -783.3258 -664.7059 30551.0964 3.3929 3.3364
TCL: Exiting due to exit command.
