Info: SIMULATION PARAMETERS:
Info: TIMESTEP               2
Info: NUMBER OF STEPS        0
Info: STEPS PER CYCLE        10
Info: PERIODIC CELL BASIS 1  35.01 0 0
Info: PERIODIC CELL BASIS 2  0 34.26 0
Info: PERIODIC CELL BASIS 3  0 0 36.199
Info: PERIODIC CELL CENTER   0 0 0
Info: WRAPPING WATERS AROUND PERIODIC BOUNDARIES ON OUTPUT.
Info: WRAPPING ALL CLUSTERS AROUND PERIODIC BOUNDARIES ON OUTPUT.
Info: FIRST LDB TIMESTEP     50
Info: LAST LDB TIMESTEP     -1
Info: HOM BACKGROUND SCALING 1
Info: PME BACKGROUND SCALING 1
Info: MIN ATOMS PER PATCH    40
Info: EMPTY PATCH LOAD       40 ATOMS
Info: INITIAL TEMPERATURE    300
Info: CENTER OF MASS MOVING INITIALLY? NO
Info: DIELECTRIC             1
Info: EXCLUDE                SCALED ONE-FOUR
Info: 1-4 ELECTROSTATICS SCALED BY 0.833333
Info: MODIFIED 1-4 VDW PARAMETERS WILL BE USED
Info: DCD FILENAME           mobley_6235784_equil.dcd
Info: DCD FREQUENCY          100000
Info: DCD FIRST STEP         100000
Info: DCD FILE WILL CONTAIN UNIT CELL DATA
Info: XST FILENAME           mobley_6235784_equil.xst
Info: XST FREQUENCY          100000
Info: NO VELOCITY DCD OUTPUT
Info: NO FORCE DCD OUTPUT
Info: OUTPUT FILENAME        mobley_6235784_equil
Info: BINARY OUTPUT FILES WILL BE USED
Info: RESTART FILENAME       mobley_6235784_equil.restart
Info: RESTART FREQUENCY      100000
Info: BINARY RESTART FILES WILL BE USED
Info: CUTOFF                 9
Info: PAIRLIST DISTANCE      11
Info: PAIRLIST SHRINK RATE   0.01
Info: PAIRLIST GROW RATE     0.01
Info: PAIRLIST TRIGGER       0.3
Info: PAIRLISTS PER CYCLE    2
Info: PAIRLISTS ENABLED
Info: MARGIN                 8
Info: HYDROGEN GROUP CUTOFF  2.5
Info: PATCH DIMENSION        21.5
Info: ENERGY OUTPUT STEPS    100000
Info: ENERGY EVALUATION STEPS    100000
Info: OUTPUT ENERGY PRECISION 4
Info: CROSSTERM ENERGY INCLUDED IN DIHEDRAL
Info: TIMING OUTPUT STEPS    1000000
Info: PRESSURE OUTPUT STEPS  100000
Info: LANGEVIN DYNAMICS ACTIVE
Info: LANGEVIN TEMPERATURE   30
Info: LANGEVIN USING BBK INTEGRATOR
Info: LANGEVIN DAMPING COEFFICIENT IS 1 INVERSE PS
Info: LANGEVIN DYNAMICS APPLIED TO HYDROGENS
Info: LANGEVIN PISTON PRESSURE CONTROL ACTIVE
Info:        TARGET PRESSURE IS 1.01325 BAR
Info:     OSCILLATION PERIOD IS 50 FS
Info:             DECAY TIME IS 25 FS
Info:     PISTON TEMPERATURE IS 300 K
Info:       PRESSURE CONTROL IS GROUP-BASED
Info:    INITIAL STRAIN RATE IS 0 0 0
Info:       CELL FLUCTUATION IS ISOTROPIC
Info: PARTICLE MESH EWALD (PME) ACTIVE
Info: PME TOLERANCE               1e-06
Info: PME EWALD COEFFICIENT       0.348832
Info: PME INTERPOLATION ORDER     4
Info: PME GRID DIMENSIONS         36 36 40
Info: PME MAXIMUM GRID SPACING    1
Info: FULL ELECTROSTATIC EVALUATION FREQUENCY      2
Info: USING VERLET I (r-RESPA) MTS SCHEME.
Info: C1 SPLITTING OF LONG RANGE ELECTROSTATICS
Info: PLACING ATOMS IN PATCHES BY HYDROGEN GROUPS
Info: RIGID BONDS TO HYDROGEN : ALL
Info:         ERROR TOLERANCE : 1e-08
Info:          MAX ITERATIONS : 100
Info: RIGID WATER USING SETTLE ALGORITHM
Info: RANDOM NUMBER SEED     1743227954
Info: USE HYDROGEN BONDS?    NO
Info: Using AMBER format force field!
Info: AMBER PARM FILE        mobley_6235784.prmtop
Info: COORDINATE PDB         mobley_6235784.pdb
Info: Exclusions will be read from PARM file!
Info: SCNB (VDW SCALING)     2
Info: USING ARITHMETIC MEAN TO COMBINE L-J SIGMA PARAMETERS
Info: BINARY COORDINATES     mobley_6235784_min.coor
Info: SUMMARY OF PARAMETERS:
Info: 6 BONDS
Info: 6 ANGLES
Info: 8 DIHEDRAL
Info: 0 IMPROPER
Info: 0 CROSSTERM
Info: 0 VDW
Info: 21 VDW_PAIRS
Info: 0 NBTHOLE_PAIRS
Info: STRUCTURE SUMMARY:
Info: 2939 ATOMS
Info: 2938 BONDS
Info: 24 ANGLES
Info: 34 DIHEDRALS
Info: 0 IMPROPERS
Info: 0 CROSSTERMS
Info: 2989 EXCLUSIONS
Info: 2934 RIGID BONDS
Info: 5883 DEGREES OF FREEDOM
Info: 980 HYDROGEN GROUPS
Info: 4 ATOMS IN LARGEST HYDROGEN GROUP
Info: 980 MIGRATION GROUPS
Info: 4 ATOMS IN LARGEST MIGRATION GROUP
Info: TOTAL MASS = 17658.2 amu
Info: TOTAL CHARGE = -1.49012e-08 e
Info: MASS DENSITY = 0.67535 g/cm^3
Info: ATOM DENSITY = 0.0676898 atoms/A^3
Info: ADDED 0 IMPLICIT EXCLUSIONS
Info: NONBONDED TABLE R-SQUARED SPACING: 0.0625
Info: NONBONDED TABLE SIZE: 705 POINTS
Info: REMOVING COM VELOCITY 0.0869697 0.00892984 0.114528
TCL: Running for 100000 steps
ETITLE: TS BOND ANGLE DIHED IMPRP ELECT VDW BOUNDARY MISC KINETIC TOTAL TEMP POTENTIAL TOTAL3 TEMPAVG PRESSURE GPRESSURE VOLUME PRESSAVG GPRESSAVG
ENERGY: 0 0.0535 0.2771 1.6519 0.0000 -13636.2276 2404.9764 0.0000 0.0000 1711.7879 -9517.4809 292.8475 -11229.2687 -9517.1548 292.8475 367.7969 399.3136 43418.6227 367.7969 399.3136
ENERGY: 100000 0.1153 1.1341 1.6533 0.0000 -14182.2573 2502.3192 0.0000 0.0000 178.1527 -11498.8827 30.4778 -11677.0355 -11498.2922 30.8670 521.9595 578.1550 28576.4189 4.5966 4.6550
TCL: Running 100000 steps at 60 kelvin.
TCL: Setting parameter langevinTemp to 60
TCL: Running for 100000 steps
ETITLE: TS BOND ANGLE DIHED IMPRP ELECT VDW BOUNDARY MISC KINETIC TOTAL TEMP POTENTIAL TOTAL3 TEMPAVG PRESSURE GPRESSURE VOLUME PRESSAVG GPRESSAVG
ENERGY: 100000 0.1153 1.1341 1.6533 0.0000 -14182.2573 2502.3192 0.0000 0.0000 178.0664 -11498.9690 30.4631 -11677.0355 -11498.6791 30.4631 528.6506 578.3324 28576.4189 528.6506 578.3324
ENERGY: 200000 0.4235 1.5916 1.6366 0.0000 -14008.8285 2377.1182 0.0000 0.0000 353.5672 -11274.4913 60.4872 -11628.0585 -11272.9974 59.9009 -56.6445 -16.5025 28221.3301 2.0744 2.0925
TCL: Running 100000 steps at 90 kelvin.
TCL: Setting parameter langevinTemp to 90
TCL: Running for 100000 steps
ETITLE: TS BOND ANGLE DIHED IMPRP ELECT VDW BOUNDARY MISC KINETIC TOTAL TEMP POTENTIAL TOTAL3 TEMPAVG PRESSURE GPRESSURE VOLUME PRESSAVG GPRESSAVG
ENERGY: 200000 0.4235 1.5916 1.6366 0.0000 -14008.8285 2377.1182 0.0000 0.0000 353.3843 -11274.6742 60.4559 -11628.0585 -11273.8639 60.4559 -76.7897 -16.2013 28221.3301 -76.7897 -16.2013
ENERGY: 300000 0.5158 1.7254 2.1209 0.0000 -14030.6835 2486.1431 0.0000 0.0000 534.2349 -11005.9434 91.3953 -11540.1783 -11005.1953 89.9975 1066.1608 1081.3677 28162.0510 3.4746 3.5552
TCL: Running 100000 steps at 120 kelvin.
TCL: Setting parameter langevinTemp to 120
TCL: Running for 100000 steps
ETITLE: TS BOND ANGLE DIHED IMPRP ELECT VDW BOUNDARY MISC KINETIC TOTAL TEMP POTENTIAL TOTAL3 TEMPAVG PRESSURE GPRESSURE VOLUME PRESSAVG GPRESSAVG
ENERGY: 300000 0.5158 1.7254 2.1209 0.0000 -14030.6835 2486.1431 0.0000 0.0000 533.9683 -11006.2101 91.3497 -11540.1783 -11005.0980 91.3497 1037.2411 1081.0469 28162.0510 1037.2411 1081.0469
ENERGY: 400000 1.2286 1.7460 2.1858 0.0000 -13796.0442 2389.8498 0.0000 0.0000 708.9358 -10692.0981 121.2826 -11401.0340 -10690.3885 119.9274 391.2598 434.3721 28815.5392 3.5265 3.5665
TCL: Running 100000 steps at 150 kelvin.
TCL: Setting parameter langevinTemp to 150
TCL: Running for 100000 steps
ETITLE: TS BOND ANGLE DIHED IMPRP ELECT VDW BOUNDARY MISC KINETIC TOTAL TEMP POTENTIAL TOTAL3 TEMPAVG PRESSURE GPRESSURE VOLUME PRESSAVG GPRESSAVG
ENERGY: 400000 1.2286 1.7460 2.1858 0.0000 -13796.0442 2389.8498 0.0000 0.0000 708.5807 -10692.4533 121.2218 -11401.0340 -10690.9062 121.2218 379.9575 434.7023 28815.5392 379.9575 434.7023
ENERGY: 500000 1.4425 3.1950 1.5698 0.0000 -13475.0583 2272.0343 0.0000 0.0000 880.6774 -10316.1393 150.6636 -11196.8167 -10314.7167 150.2254 175.7819 221.7777 28954.3723 4.9624 4.9972
TCL: Running 100000 steps at 180 kelvin.
TCL: Setting parameter langevinTemp to 180
TCL: Running for 100000 steps
ETITLE: TS BOND ANGLE DIHED IMPRP ELECT VDW BOUNDARY MISC KINETIC TOTAL TEMP POTENTIAL TOTAL3 TEMPAVG PRESSURE GPRESSURE VOLUME PRESSAVG GPRESSAVG
ENERGY: 500000 1.4425 3.1950 1.5698 0.0000 -13475.0583 2272.0343 0.0000 0.0000 880.2328 -10316.5838 150.5876 -11196.8167 -10315.1958 150.5876 175.8872 221.2341 28954.3723 175.8872 221.2341
ENERGY: 600000 0.6806 4.2820 2.2575 0.0000 -13124.8977 2185.0523 0.0000 0.0000 1025.5465 -9907.0787 175.4474 -10932.6252 -9905.8130 179.8200 719.3352 825.7229 28636.7486 3.6177 3.6388
TCL: Running 100000 steps at 210 kelvin.
TCL: Setting parameter langevinTemp to 210
TCL: Running for 100000 steps
ETITLE: TS BOND ANGLE DIHED IMPRP ELECT VDW BOUNDARY MISC KINETIC TOTAL TEMP POTENTIAL TOTAL3 TEMPAVG PRESSURE GPRESSURE VOLUME PRESSAVG GPRESSAVG
ENERGY: 600000 0.6806 4.2820 2.2575 0.0000 -13124.8977 2185.0523 0.0000 0.0000 1025.0168 -9907.6084 175.3568 -10932.6252 -9906.3535 175.3568 748.1642 824.6583 28636.7486 748.1642 824.6583
ENERGY: 700000 0.4604 5.2307 2.8635 0.0000 -12381.6776 1863.1730 0.0000 0.0000 1263.5408 -9246.4093 216.1627 -10509.9501 -9244.9294 210.1661 -228.1586 -151.4721 28480.1723 4.3166 4.5090
TCL: Running 100000 steps at 240 kelvin.
TCL: Setting parameter langevinTemp to 240
TCL: Running for 100000 steps
ETITLE: TS BOND ANGLE DIHED IMPRP ELECT VDW BOUNDARY MISC KINETIC TOTAL TEMP POTENTIAL TOTAL3 TEMPAVG PRESSURE GPRESSURE VOLUME PRESSAVG GPRESSAVG
ENERGY: 700000 0.4604 5.2307 2.8635 0.0000 -12381.6776 1863.1730 0.0000 0.0000 1262.9234 -9247.0267 216.0571 -10509.9501 -9244.4675 216.0571 -238.3709 -155.0909 28480.1723 -238.3709 -155.0909
ENERGY: 800000 1.6911 3.5120 2.8302 0.0000 -11746.5918 1729.5443 0.0000 0.0000 1402.8012 -8606.2131 239.9870 -10009.0143 -8602.0515 239.7242 282.9669 342.4315 28909.9709 4.7381 4.9395
TCL: Running 100000 steps at 270 kelvin.
TCL: Setting parameter langevinTemp to 270
TCL: Running for 100000 steps
ETITLE: TS BOND ANGLE DIHED IMPRP ELECT VDW BOUNDARY MISC KINETIC TOTAL TEMP POTENTIAL TOTAL3 TEMPAVG PRESSURE GPRESSURE VOLUME PRESSAVG GPRESSAVG
ENERGY: 800000 1.6911 3.5120 2.8302 0.0000 -11746.5918 1729.5443 0.0000 0.0000 1402.1083 -8606.9060 239.8684 -10009.0143 -8605.0571 239.8684 257.8008 343.4549 28909.9709 257.8008 343.4549
ENERGY: 900000 0.5914 5.4149 2.3051 0.0000 -11268.5767 1632.3622 0.0000 0.0000 1577.1981 -8050.7050 269.8223 -9627.9031 -8049.8364 269.9111 505.8741 650.8955 29441.7802 3.3137 3.4294
TCL: Running 1000000 steps at 300 kelvin.
TCL: Setting parameter langevinTemp to 300
TCL: Running for 1000000 steps
ETITLE: TS BOND ANGLE DIHED IMPRP ELECT VDW BOUNDARY MISC KINETIC TOTAL TEMP POTENTIAL TOTAL3 TEMPAVG PRESSURE GPRESSURE VOLUME PRESSAVG GPRESSAVG
ENERGY: 900000 0.5914 5.4149 2.3051 0.0000 -11268.5767 1632.3622 0.0000 0.0000 1576.4325 -8051.4706 269.6913 -9627.9031 -8048.7550 269.6913 571.6132 649.9616 29441.7802 571.6132 649.9616
ENERGY: 1100000 0.8211 5.0262 3.4393 0.0000 -10614.2252 1389.5157 0.0000 0.0000 1781.4770 -7433.9461 304.7697 -9215.4230 -7431.2767 300.2333 -437.5045 -327.6930 30423.6791 2.4126 2.5014
ENERGY: 1300000 2.1107 4.5145 1.8673 0.0000 -10649.8168 1432.6925 0.0000 0.0000 1763.1266 -7445.5052 301.6304 -9208.6319 -7443.4892 299.9704 -77.7354 12.5303 30510.0821 4.0898 3.9177
ENERGY: 1500000 0.6894 3.9369 2.6769 0.0000 -10622.8459 1433.9627 0.0000 0.0000 1775.1119 -7406.4681 303.6808 -9181.5799 -7403.0841 301.1837 55.5406 216.6605 30488.3713 2.4797 2.5026
ENERGY: 1700000 1.6530 9.2327 2.7955 0.0000 -10696.9341 1474.9517 0.0000 0.0000 1772.3388 -7435.9624 303.2063 -9208.3012 -7432.6060 300.0810 344.6835 413.9936 30230.4620 2.7032 2.8753
ENERGY: 1900000 1.8362 6.5888 4.1271 0.0000 -10600.7865 1349.3499 0.0000 0.0000 1740.1301 -7498.7544 297.6962 -9238.8845 -7494.6968 300.1187 -667.2185 -563.8562 29954.3841 4.3055 4.3510
TCL: Exiting due to exit command.
