Info: SIMULATION PARAMETERS:
Info: TIMESTEP               2
Info: NUMBER OF STEPS        0
Info: STEPS PER CYCLE        10
Info: PERIODIC CELL BASIS 1  36.592 0 0
Info: PERIODIC CELL BASIS 2  0 36.451 0
Info: PERIODIC CELL BASIS 3  0 0 33.27
Info: PERIODIC CELL CENTER   0 0 0
Info: WRAPPING WATERS AROUND PERIODIC BOUNDARIES ON OUTPUT.
Info: WRAPPING ALL CLUSTERS AROUND PERIODIC BOUNDARIES ON OUTPUT.
Info: FIRST LDB TIMESTEP     50
Info: LAST LDB TIMESTEP     -1
Info: HOM BACKGROUND SCALING 1
Info: PME BACKGROUND SCALING 1
Info: MIN ATOMS PER PATCH    40
Info: EMPTY PATCH LOAD       40 ATOMS
Info: INITIAL TEMPERATURE    300
Info: CENTER OF MASS MOVING INITIALLY? NO
Info: DIELECTRIC             1
Info: EXCLUDE                SCALED ONE-FOUR
Info: 1-4 ELECTROSTATICS SCALED BY 0.833333
Info: MODIFIED 1-4 VDW PARAMETERS WILL BE USED
Info: DCD FILENAME           mobley_3715043_equil.dcd
Info: DCD FREQUENCY          100000
Info: DCD FIRST STEP         100000
Info: DCD FILE WILL CONTAIN UNIT CELL DATA
Info: XST FILENAME           mobley_3715043_equil.xst
Info: XST FREQUENCY          100000
Info: NO VELOCITY DCD OUTPUT
Info: NO FORCE DCD OUTPUT
Info: OUTPUT FILENAME        mobley_3715043_equil
Info: BINARY OUTPUT FILES WILL BE USED
Info: RESTART FILENAME       mobley_3715043_equil.restart
Info: RESTART FREQUENCY      100000
Info: BINARY RESTART FILES WILL BE USED
Info: CUTOFF                 9
Info: PAIRLIST DISTANCE      11
Info: PAIRLIST SHRINK RATE   0.01
Info: PAIRLIST GROW RATE     0.01
Info: PAIRLIST TRIGGER       0.3
Info: PAIRLISTS PER CYCLE    2
Info: PAIRLISTS ENABLED
Info: MARGIN                 8
Info: HYDROGEN GROUP CUTOFF  2.5
Info: PATCH DIMENSION        21.5
Info: ENERGY OUTPUT STEPS    100000
Info: ENERGY EVALUATION STEPS    100000
Info: OUTPUT ENERGY PRECISION 4
Info: CROSSTERM ENERGY INCLUDED IN DIHEDRAL
Info: TIMING OUTPUT STEPS    1000000
Info: PRESSURE OUTPUT STEPS  100000
Info: LANGEVIN DYNAMICS ACTIVE
Info: LANGEVIN TEMPERATURE   30
Info: LANGEVIN USING BBK INTEGRATOR
Info: LANGEVIN DAMPING COEFFICIENT IS 1 INVERSE PS
Info: LANGEVIN DYNAMICS APPLIED TO HYDROGENS
Info: LANGEVIN PISTON PRESSURE CONTROL ACTIVE
Info:        TARGET PRESSURE IS 1.01325 BAR
Info:     OSCILLATION PERIOD IS 50 FS
Info:             DECAY TIME IS 25 FS
Info:     PISTON TEMPERATURE IS 300 K
Info:       PRESSURE CONTROL IS GROUP-BASED
Info:    INITIAL STRAIN RATE IS 0 0 0
Info:       CELL FLUCTUATION IS ISOTROPIC
Info: PARTICLE MESH EWALD (PME) ACTIVE
Info: PME TOLERANCE               1e-06
Info: PME EWALD COEFFICIENT       0.348832
Info: PME INTERPOLATION ORDER     4
Info: PME GRID DIMENSIONS         40 40 36
Info: PME MAXIMUM GRID SPACING    1
Info: FULL ELECTROSTATIC EVALUATION FREQUENCY      2
Info: USING VERLET I (r-RESPA) MTS SCHEME.
Info: C1 SPLITTING OF LONG RANGE ELECTROSTATICS
Info: PLACING ATOMS IN PATCHES BY HYDROGEN GROUPS
Info: RIGID BONDS TO HYDROGEN : ALL
Info:         ERROR TOLERANCE : 1e-08
Info:          MAX ITERATIONS : 100
Info: RIGID WATER USING SETTLE ALGORITHM
Info: RANDOM NUMBER SEED     1743221080
Info: USE HYDROGEN BONDS?    NO
Info: Using AMBER format force field!
Info: AMBER PARM FILE        mobley_3715043.prmtop
Info: COORDINATE PDB         mobley_3715043.pdb
Info: Exclusions will be read from PARM file!
Info: SCNB (VDW SCALING)     2
Info: USING ARITHMETIC MEAN TO COMBINE L-J SIGMA PARAMETERS
Info: BINARY COORDINATES     mobley_3715043_min.coor
Info: SUMMARY OF PARAMETERS:
Info: 6 BONDS
Info: 5 ANGLES
Info:   5 HARMONIC
Info:   0 COSINE-BASED
Info: 3 DIHEDRAL
Info: 0 IMPROPER
Info: 0 CROSSTERM
Info: 0 VDW
Info: 21 VDW_PAIRS
Info: 0 NBTHOLE_PAIRS
Info: STRUCTURE SUMMARY:
Info: 2904 ATOMS
Info: 2905 BONDS
Info: 42 ANGLES
Info: 66 DIHEDRALS
Info: 0 IMPROPERS
Info: 0 CROSSTERMS
Info: 2997 EXCLUSIONS
Info: 2892 RIGID BONDS
Info: 5820 DEGREES OF FREEDOM
Info: 972 HYDROGEN GROUPS
Info: 4 ATOMS IN LARGEST HYDROGEN GROUP
Info: 972 MIGRATION GROUPS
Info: 4 ATOMS IN LARGEST MIGRATION GROUP
Info: TOTAL MASS = 17451.6 amu
Info: TOTAL CHARGE = -0.000100028 e
Info: MASS DENSITY = 0.653049 g/cm^3
Info: ATOM DENSITY = 0.0654407 atoms/A^3
Info: ADDED 0 IMPLICIT EXCLUSIONS
Info: NONBONDED TABLE R-SQUARED SPACING: 0.0625
Info: NONBONDED TABLE SIZE: 705 POINTS
Info: REMOVING COM VELOCITY 0.0120346 -0.0339977 0.0921462
TCL: Running for 100000 steps
ETITLE: TS BOND ANGLE DIHED IMPRP ELECT VDW BOUNDARY MISC KINETIC TOTAL TEMP POTENTIAL TOTAL3 TEMPAVG PRESSURE GPRESSURE VOLUME PRESSAVG GPRESSAVG
ENERGY: 0 0.7751 0.6163 0.1303 0.0000 -13388.7399 2379.6556 0.0000 0.0000 1714.1921 -9293.3705 296.4332 -11007.5626 -9293.0348 296.4332 445.3127 476.7302 44376.0248 445.3127 476.7302
ENERGY: 100000 1.6321 1.1547 0.5277 0.0000 -13834.0912 2370.9167 0.0000 0.0000 170.9253 -11288.9348 29.5579 -11459.8601 -11288.4435 30.9069 -544.4058 -494.8876 28840.5958 4.6153 4.6678
TCL: Running 100000 steps at 60 kelvin.
TCL: Setting parameter langevinTemp to 60
TCL: Running for 100000 steps
ETITLE: TS BOND ANGLE DIHED IMPRP ELECT VDW BOUNDARY MISC KINETIC TOTAL TEMP POTENTIAL TOTAL3 TEMPAVG PRESSURE GPRESSURE VOLUME PRESSAVG GPRESSAVG
ENERGY: 100000 1.6321 1.1547 0.5277 0.0000 -13834.0912 2370.9167 0.0000 0.0000 170.8400 -11289.0201 29.5432 -11459.8601 -11288.6683 29.5432 -546.7164 -495.1480 28840.5958 -546.7164 -495.1480
ENERGY: 200000 0.9242 3.1245 1.0425 0.0000 -13977.7826 2522.3176 0.0000 0.0000 351.9170 -11098.4568 60.8566 -11450.3738 -11097.8865 60.1189 1274.2494 1281.1360 27968.5788 4.1987 4.2481
TCL: Running 100000 steps at 90 kelvin.
TCL: Setting parameter langevinTemp to 90
TCL: Running for 100000 steps
ETITLE: TS BOND ANGLE DIHED IMPRP ELECT VDW BOUNDARY MISC KINETIC TOTAL TEMP POTENTIAL TOTAL3 TEMPAVG PRESSURE GPRESSURE VOLUME PRESSAVG GPRESSAVG
ENERGY: 200000 0.9242 3.1245 1.0425 0.0000 -13977.7826 2522.3176 0.0000 0.0000 351.7382 -11098.6356 60.8257 -11450.3738 -11098.0142 60.8257 1233.7432 1281.1216 27968.5788 1233.7432 1281.1216
ENERGY: 300000 1.2860 4.1997 1.6094 0.0000 -13616.7411 2266.0049 0.0000 0.0000 519.0008 -10824.6404 89.7502 -11343.6411 -10823.1174 89.9747 -623.1825 -568.7488 28395.2700 3.7271 3.7862
TCL: Running 100000 steps at 120 kelvin.
TCL: Setting parameter langevinTemp to 120
TCL: Running for 100000 steps
ETITLE: TS BOND ANGLE DIHED IMPRP ELECT VDW BOUNDARY MISC KINETIC TOTAL TEMP POTENTIAL TOTAL3 TEMPAVG PRESSURE GPRESSURE VOLUME PRESSAVG GPRESSAVG
ENERGY: 300000 1.2860 4.1997 1.6094 0.0000 -13616.7411 2266.0049 0.0000 0.0000 518.7527 -10824.8884 89.7073 -11343.6411 -10823.7715 89.7073 -629.2574 -568.6539 28395.2700 -629.2574 -568.6539
ENERGY: 400000 3.1903 5.9223 2.2155 0.0000 -13531.7511 2288.4046 0.0000 0.0000 679.1354 -10552.8830 117.4421 -11232.0184 -10551.3329 119.8647 -126.2056 -63.1678 28237.9592 4.0603 4.0168
TCL: Running 100000 steps at 150 kelvin.
TCL: Setting parameter langevinTemp to 150
TCL: Running for 100000 steps
ETITLE: TS BOND ANGLE DIHED IMPRP ELECT VDW BOUNDARY MISC KINETIC TOTAL TEMP POTENTIAL TOTAL3 TEMPAVG PRESSURE GPRESSURE VOLUME PRESSAVG GPRESSAVG
ENERGY: 400000 3.1903 5.9223 2.2155 0.0000 -13531.7511 2288.4046 0.0000 0.0000 678.7941 -10553.2243 117.3831 -11232.0184 -10552.0157 117.3831 -106.4548 -64.3060 28237.9592 -106.4548 -64.3060
ENERGY: 500000 1.9855 4.4009 4.7905 0.0000 -13262.8468 2178.0603 0.0000 0.0000 891.8722 -10181.7376 154.2304 -11073.6097 -10179.0482 150.3610 -366.8279 -302.4576 28447.5216 3.4975 3.3814
TCL: Running 100000 steps at 180 kelvin.
TCL: Setting parameter langevinTemp to 180
TCL: Running for 100000 steps
ETITLE: TS BOND ANGLE DIHED IMPRP ELECT VDW BOUNDARY MISC KINETIC TOTAL TEMP POTENTIAL TOTAL3 TEMPAVG PRESSURE GPRESSURE VOLUME PRESSAVG GPRESSAVG
ENERGY: 500000 1.9855 4.4009 4.7905 0.0000 -13262.8468 2178.0603 0.0000 0.0000 891.4294 -10182.1803 154.1538 -11073.6097 -10180.1128 154.1538 -344.2043 -303.1742 28447.5216 -344.2043 -303.1742
ENERGY: 600000 5.5745 3.5990 1.4908 0.0000 -12864.1692 2058.9613 0.0000 0.0000 1074.3757 -9720.1680 185.7905 -10794.5437 -9716.4493 179.9748 -477.5251 -463.1816 28657.9110 2.9032 3.1292
TCL: Running 100000 steps at 210 kelvin.
TCL: Setting parameter langevinTemp to 210
TCL: Running for 100000 steps
ETITLE: TS BOND ANGLE DIHED IMPRP ELECT VDW BOUNDARY MISC KINETIC TOTAL TEMP POTENTIAL TOTAL3 TEMPAVG PRESSURE GPRESSURE VOLUME PRESSAVG GPRESSAVG
ENERGY: 600000 5.5745 3.5990 1.4908 0.0000 -12864.1692 2058.9613 0.0000 0.0000 1073.8677 -9720.6760 185.7027 -10794.5437 -9718.6739 185.7027 -512.3545 -462.1331 28657.9110 -512.3545 -462.1331
ENERGY: 700000 2.2602 7.8478 2.5217 0.0000 -12239.4501 1906.9769 0.0000 0.0000 1212.1947 -9107.6489 209.6234 -10319.8436 -9105.0963 209.9786 247.7789 328.4124 28383.6673 3.6215 3.7006
TCL: Running 100000 steps at 240 kelvin.
TCL: Setting parameter langevinTemp to 240
TCL: Running for 100000 steps
ETITLE: TS BOND ANGLE DIHED IMPRP ELECT VDW BOUNDARY MISC KINETIC TOTAL TEMP POTENTIAL TOTAL3 TEMPAVG PRESSURE GPRESSURE VOLUME PRESSAVG GPRESSAVG
ENERGY: 700000 2.2602 7.8478 2.5217 0.0000 -12239.4501 1906.9769 0.0000 0.0000 1211.5940 -9108.2496 209.5195 -10319.8436 -9106.2034 209.5195 235.0557 327.7086 28383.6673 235.0557 327.7086
ENERGY: 800000 2.3985 6.8709 2.9668 0.0000 -11750.2040 1826.2928 0.0000 0.0000 1391.5566 -8520.1183 240.6403 -9911.6749 -8514.3929 239.5638 1038.6298 1131.0487 28543.3677 3.2522 3.1244
TCL: Running 100000 steps at 270 kelvin.
TCL: Setting parameter langevinTemp to 270
TCL: Running for 100000 steps
ETITLE: TS BOND ANGLE DIHED IMPRP ELECT VDW BOUNDARY MISC KINETIC TOTAL TEMP POTENTIAL TOTAL3 TEMPAVG PRESSURE GPRESSURE VOLUME PRESSAVG GPRESSAVG
ENERGY: 800000 2.3985 6.8709 2.9668 0.0000 -11750.2040 1826.2928 0.0000 0.0000 1390.8566 -8520.8184 240.5192 -9911.6749 -8518.2361 240.5192 1042.6260 1132.5520 28543.3677 1042.6260 1132.5520
ENERGY: 900000 4.1515 3.4519 4.6200 0.0000 -10904.2119 1484.1590 0.0000 0.0000 1513.9762 -7893.8533 261.8101 -9407.8295 -7889.1811 269.7674 -725.7496 -648.4380 29731.4187 4.6977 4.7607
TCL: Running 1000000 steps at 300 kelvin.
TCL: Setting parameter langevinTemp to 300
TCL: Running for 1000000 steps
ETITLE: TS BOND ANGLE DIHED IMPRP ELECT VDW BOUNDARY MISC KINETIC TOTAL TEMP POTENTIAL TOTAL3 TEMPAVG PRESSURE GPRESSURE VOLUME PRESSAVG GPRESSAVG
ENERGY: 900000 4.1515 3.4519 4.6200 0.0000 -10904.2119 1484.1590 0.0000 0.0000 1513.1945 -7894.6350 261.6750 -9407.8295 -7892.0916 261.6750 -736.3438 -646.6024 29731.4187 -736.3438 -646.6024
ENERGY: 1100000 6.9270 9.6281 2.0990 0.0000 -10439.1083 1373.6442 0.0000 0.0000 1721.5989 -7325.2110 297.7141 -9046.8100 -7323.2529 300.0086 -439.0444 -377.8290 29688.8722 4.1188 4.2889
ENERGY: 1300000 5.4325 10.7716 2.4770 0.0000 -10460.3530 1357.4668 0.0000 0.0000 1788.3493 -7295.8557 309.2572 -9084.2051 -7294.7308 300.2678 -485.1549 -416.3070 29785.7151 4.0258 3.8966
ENERGY: 1500000 5.8309 4.7537 6.6348 0.0000 -10446.1637 1354.4430 0.0000 0.0000 1761.9222 -7312.5791 304.6871 -9074.5013 -7309.8900 300.1412 -678.9419 -600.9475 30189.4073 3.6465 3.7356
ENERGY: 1700000 2.9760 6.2364 8.6005 0.0000 -10430.4425 1359.6492 0.0000 0.0000 1768.9594 -7284.0209 305.9041 -9052.9804 -7280.8384 299.9780 -266.1760 -163.9827 29964.8113 4.4453 4.4647
ENERGY: 1900000 3.3074 5.3161 3.3023 0.0000 -10626.9117 1478.1512 0.0000 0.0000 1708.6841 -7428.1505 295.4807 -9136.8346 -7427.4420 300.4116 651.0186 674.7610 29244.3129 3.3722 3.4007
TCL: Exiting due to exit command.
