Info: SIMULATION PARAMETERS:
Info: TIMESTEP               2
Info: NUMBER OF STEPS        0
Info: STEPS PER CYCLE        10
Info: PERIODIC CELL BASIS 1  35.01 0 0
Info: PERIODIC CELL BASIS 2  0 33.404 0
Info: PERIODIC CELL BASIS 3  0 0 37.195
Info: PERIODIC CELL CENTER   0 0 0
Info: WRAPPING WATERS AROUND PERIODIC BOUNDARIES ON OUTPUT.
Info: WRAPPING ALL CLUSTERS AROUND PERIODIC BOUNDARIES ON OUTPUT.
Info: FIRST LDB TIMESTEP     50
Info: LAST LDB TIMESTEP     -1
Info: HOM BACKGROUND SCALING 1
Info: PME BACKGROUND SCALING 1
Info: MIN ATOMS PER PATCH    40
Info: EMPTY PATCH LOAD       40 ATOMS
Info: INITIAL TEMPERATURE    300
Info: CENTER OF MASS MOVING INITIALLY? NO
Info: DIELECTRIC             1
Info: EXCLUDE                SCALED ONE-FOUR
Info: 1-4 ELECTROSTATICS SCALED BY 0.833333
Info: MODIFIED 1-4 VDW PARAMETERS WILL BE USED
Info: DCD FILENAME           mobley_8691603_equil.dcd
Info: DCD FREQUENCY          100000
Info: DCD FIRST STEP         100000
Info: DCD FILE WILL CONTAIN UNIT CELL DATA
Info: XST FILENAME           mobley_8691603_equil.xst
Info: XST FREQUENCY          100000
Info: NO VELOCITY DCD OUTPUT
Info: NO FORCE DCD OUTPUT
Info: OUTPUT FILENAME        mobley_8691603_equil
Info: BINARY OUTPUT FILES WILL BE USED
Info: RESTART FILENAME       mobley_8691603_equil.restart
Info: RESTART FREQUENCY      100000
Info: BINARY RESTART FILES WILL BE USED
Info: CUTOFF                 9
Info: PAIRLIST DISTANCE      11
Info: PAIRLIST SHRINK RATE   0.01
Info: PAIRLIST GROW RATE     0.01
Info: PAIRLIST TRIGGER       0.3
Info: PAIRLISTS PER CYCLE    2
Info: PAIRLISTS ENABLED
Info: MARGIN                 8
Info: HYDROGEN GROUP CUTOFF  2.5
Info: PATCH DIMENSION        21.5
Info: ENERGY OUTPUT STEPS    100000
Info: ENERGY EVALUATION STEPS    100000
Info: OUTPUT ENERGY PRECISION 4
Info: CROSSTERM ENERGY INCLUDED IN DIHEDRAL
Info: TIMING OUTPUT STEPS    1000000
Info: PRESSURE OUTPUT STEPS  100000
Info: LANGEVIN DYNAMICS ACTIVE
Info: LANGEVIN TEMPERATURE   30
Info: LANGEVIN USING BBK INTEGRATOR
Info: LANGEVIN DAMPING COEFFICIENT IS 1 INVERSE PS
Info: LANGEVIN DYNAMICS APPLIED TO HYDROGENS
Info: LANGEVIN PISTON PRESSURE CONTROL ACTIVE
Info:        TARGET PRESSURE IS 1.01325 BAR
Info:     OSCILLATION PERIOD IS 50 FS
Info:             DECAY TIME IS 25 FS
Info:     PISTON TEMPERATURE IS 300 K
Info:       PRESSURE CONTROL IS GROUP-BASED
Info:    INITIAL STRAIN RATE IS 0 0 0
Info:       CELL FLUCTUATION IS ISOTROPIC
Info: PARTICLE MESH EWALD (PME) ACTIVE
Info: PME TOLERANCE               1e-06
Info: PME EWALD COEFFICIENT       0.348832
Info: PME INTERPOLATION ORDER     4
Info: PME GRID DIMENSIONS         36 36 40
Info: PME MAXIMUM GRID SPACING    1
Info: FULL ELECTROSTATIC EVALUATION FREQUENCY      2
Info: USING VERLET I (r-RESPA) MTS SCHEME.
Info: C1 SPLITTING OF LONG RANGE ELECTROSTATICS
Info: PLACING ATOMS IN PATCHES BY HYDROGEN GROUPS
Info: RIGID BONDS TO HYDROGEN : ALL
Info:         ERROR TOLERANCE : 1e-08
Info:          MAX ITERATIONS : 100
Info: RIGID WATER USING SETTLE ALGORITHM
Info: RANDOM NUMBER SEED     1743213064
Info: USE HYDROGEN BONDS?    NO
Info: Using AMBER format force field!
Info: AMBER PARM FILE        mobley_8691603.prmtop
Info: COORDINATE PDB         mobley_8691603.pdb
Info: Exclusions will be read from PARM file!
Info: SCNB (VDW SCALING)     2
Info: USING ARITHMETIC MEAN TO COMBINE L-J SIGMA PARAMETERS
Info: BINARY COORDINATES     mobley_8691603_min.coor
Info: SUMMARY OF PARAMETERS:
Info: 8 BONDS
Info: 7 ANGLES
Info:   7 HARMONIC
Info:   0 COSINE-BASED
Info: 4 DIHEDRAL
Info: 0 IMPROPER
Info: 0 CROSSTERM
Info: 0 VDW
Info: 28 VDW_PAIRS
Info: 0 NBTHOLE_PAIRS
Info: STRUCTURE SUMMARY:
Info: 2947 ATOMS
Info: 2947 BONDS
Info: 25 ANGLES
Info: 38 DIHEDRALS
Info: 0 IMPROPERS
Info: 0 CROSSTERMS
Info: 3001 EXCLUSIONS
Info: 2939 RIGID BONDS
Info: 5902 DEGREES OF FREEDOM
Info: 985 HYDROGEN GROUPS
Info: 4 ATOMS IN LARGEST HYDROGEN GROUP
Info: 985 MIGRATION GROUPS
Info: 4 ATOMS IN LARGEST MIGRATION GROUP
Info: TOTAL MASS = 17709.8 amu
Info: TOTAL CHARGE = -3.35276e-08 e
Info: MASS DENSITY = 0.676078 g/cm^3
Info: ATOM DENSITY = 0.0677493 atoms/A^3
Info: ADDED 0 IMPLICIT EXCLUSIONS
Info: NONBONDED TABLE R-SQUARED SPACING: 0.0625
Info: NONBONDED TABLE SIZE: 705 POINTS
Info: REMOVING COM VELOCITY 0.145462 0.0592069 0.129139
TCL: Running for 100000 steps
ETITLE: TS BOND ANGLE DIHED IMPRP ELECT VDW BOUNDARY MISC KINETIC TOTAL TEMP POTENTIAL TOTAL3 TEMPAVG PRESSURE GPRESSURE VOLUME PRESSAVG GPRESSAVG
ENERGY: 0 0.1215 0.0751 0.4817 0.0000 -13663.4623 2423.0524 0.0000 0.0000 1738.0408 -9501.6909 296.3815 -11239.7317 -9501.3850 296.3815 602.0889 639.2070 43498.5869 602.0889 639.2070
ENERGY: 100000 0.0949 0.5218 0.3180 0.0000 -14242.6390 2503.8440 0.0000 0.0000 174.3084 -11563.5520 29.7242 -11737.8604 -11563.0074 30.9161 338.4302 387.9958 28817.2777 5.2363 5.2081
TCL: Running 100000 steps at 60 kelvin.
TCL: Setting parameter langevinTemp to 60
TCL: Running for 100000 steps
ETITLE: TS BOND ANGLE DIHED IMPRP ELECT VDW BOUNDARY MISC KINETIC TOTAL TEMP POTENTIAL TOTAL3 TEMPAVG PRESSURE GPRESSURE VOLUME PRESSAVG GPRESSAVG
ENERGY: 100000 0.0949 0.5218 0.3180 0.0000 -14242.6390 2503.8440 0.0000 0.0000 174.2223 -11563.6381 29.7095 -11737.8604 -11563.2494 29.7095 333.9419 388.1159 28817.2777 333.9419 388.1159
ENERGY: 200000 0.3956 1.2900 0.7173 0.0000 -14064.5717 2366.5081 0.0000 0.0000 351.0285 -11344.6322 59.8596 -11695.6607 -11343.9810 59.8411 -468.4180 -412.9652 28490.3047 3.1781 3.1006
TCL: Running 100000 steps at 90 kelvin.
TCL: Setting parameter langevinTemp to 90
TCL: Running for 100000 steps
ETITLE: TS BOND ANGLE DIHED IMPRP ELECT VDW BOUNDARY MISC KINETIC TOTAL TEMP POTENTIAL TOTAL3 TEMPAVG PRESSURE GPRESSURE VOLUME PRESSAVG GPRESSAVG
ENERGY: 200000 0.3956 1.2900 0.7173 0.0000 -14064.5717 2366.5081 0.0000 0.0000 350.8566 -11344.8041 59.8303 -11695.6607 -11343.9846 59.8303 -467.0143 -413.3338 28490.3047 -467.0143 -413.3338
ENERGY: 300000 0.6663 1.9342 1.1783 0.0000 -13960.9354 2355.7515 0.0000 0.0000 528.3164 -11073.0887 90.0918 -11601.4051 -11072.2868 89.8672 -250.4028 -206.9081 28487.4567 4.0511 4.0536
TCL: Running 100000 steps at 120 kelvin.
TCL: Setting parameter langevinTemp to 120
TCL: Running for 100000 steps
ETITLE: TS BOND ANGLE DIHED IMPRP ELECT VDW BOUNDARY MISC KINETIC TOTAL TEMP POTENTIAL TOTAL3 TEMPAVG PRESSURE GPRESSURE VOLUME PRESSAVG GPRESSAVG
ENERGY: 300000 0.6663 1.9342 1.1783 0.0000 -13960.9354 2355.7515 0.0000 0.0000 528.0634 -11073.3416 90.0487 -11601.4051 -11072.3451 90.0487 -250.1973 -207.5109 28487.4567 -250.1973 -207.5109
ENERGY: 400000 1.4563 1.1814 0.9148 0.0000 -13846.0053 2364.3134 0.0000 0.0000 741.3350 -10736.8044 126.4171 -11478.1394 -10735.2546 119.9785 233.6673 279.2199 28510.5000 4.0214 4.0471
TCL: Running 100000 steps at 150 kelvin.
TCL: Setting parameter langevinTemp to 150
TCL: Running for 100000 steps
ETITLE: TS BOND ANGLE DIHED IMPRP ELECT VDW BOUNDARY MISC KINETIC TOTAL TEMP POTENTIAL TOTAL3 TEMPAVG PRESSURE GPRESSURE VOLUME PRESSAVG GPRESSAVG
ENERGY: 400000 1.4563 1.1814 0.9148 0.0000 -13846.0053 2364.3134 0.0000 0.0000 740.9675 -10737.1719 126.3544 -11478.1394 -10735.6322 126.3544 220.4456 278.0529 28510.5000 220.4456 278.0529
ENERGY: 500000 0.7276 2.7872 1.6320 0.0000 -13586.3199 2290.3048 0.0000 0.0000 877.3935 -10413.4746 149.6186 -11290.8682 -10412.2728 149.9007 258.4054 315.7969 28791.3894 4.6264 4.6515
TCL: Running 100000 steps at 180 kelvin.
TCL: Setting parameter langevinTemp to 180
TCL: Running for 100000 steps
ETITLE: TS BOND ANGLE DIHED IMPRP ELECT VDW BOUNDARY MISC KINETIC TOTAL TEMP POTENTIAL TOTAL3 TEMPAVG PRESSURE GPRESSURE VOLUME PRESSAVG GPRESSAVG
ENERGY: 500000 0.7276 2.7872 1.6320 0.0000 -13586.3199 2290.3048 0.0000 0.0000 876.9588 -10413.9094 149.5445 -11290.8682 -10412.0667 149.5445 253.1804 314.6992 28791.3894 253.1804 314.6992
ENERGY: 600000 4.3274 2.9366 1.9316 0.0000 -13010.3173 2068.8622 0.0000 0.0000 1065.5173 -9866.7421 181.6986 -10932.2595 -9864.0257 179.7815 -340.2386 -308.5572 28898.1877 3.7104 3.7458
TCL: Running 100000 steps at 210 kelvin.
TCL: Setting parameter langevinTemp to 210
TCL: Running for 100000 steps
ETITLE: TS BOND ANGLE DIHED IMPRP ELECT VDW BOUNDARY MISC KINETIC TOTAL TEMP POTENTIAL TOTAL3 TEMPAVG PRESSURE GPRESSURE VOLUME PRESSAVG GPRESSAVG
ENERGY: 600000 4.3274 2.9366 1.9316 0.0000 -13010.3173 2068.8622 0.0000 0.0000 1064.9969 -9867.2625 181.6099 -10932.2595 -9865.8428 181.6099 -350.7808 -306.9725 28898.1877 -350.7808 -306.9725
ENERGY: 700000 2.3957 3.2886 2.5119 0.0000 -12501.1012 1967.6705 0.0000 0.0000 1244.2696 -9280.9648 212.1806 -10525.2345 -9278.4405 209.5113 560.3588 645.9589 28508.0887 4.3315 4.2125
TCL: Running 100000 steps at 240 kelvin.
TCL: Setting parameter langevinTemp to 240
TCL: Running for 100000 steps
ETITLE: TS BOND ANGLE DIHED IMPRP ELECT VDW BOUNDARY MISC KINETIC TOTAL TEMP POTENTIAL TOTAL3 TEMPAVG PRESSURE GPRESSURE VOLUME PRESSAVG GPRESSAVG
ENERGY: 700000 2.3957 3.2886 2.5119 0.0000 -12501.1012 1967.6705 0.0000 0.0000 1243.6628 -9281.5716 212.0771 -10525.2345 -9279.8885 212.0771 572.7735 646.8779 28508.0887 572.7735 646.8779
ENERGY: 800000 2.3097 4.4663 1.9648 0.0000 -11827.7761 1691.2480 0.0000 0.0000 1394.2808 -8733.5065 237.7614 -10127.7873 -8728.7465 239.6167 -573.5767 -502.7559 29400.3976 3.0642 3.0155
TCL: Running 100000 steps at 270 kelvin.
TCL: Setting parameter langevinTemp to 270
TCL: Running for 100000 steps
ETITLE: TS BOND ANGLE DIHED IMPRP ELECT VDW BOUNDARY MISC KINETIC TOTAL TEMP POTENTIAL TOTAL3 TEMPAVG PRESSURE GPRESSURE VOLUME PRESSAVG GPRESSAVG
ENERGY: 800000 2.3097 4.4663 1.9648 0.0000 -11827.7761 1691.2480 0.0000 0.0000 1393.5701 -8734.2172 237.6403 -10127.7873 -8732.3665 237.6403 -572.1320 -501.4821 29400.3976 -572.1320 -501.4821
ENERGY: 900000 4.3141 6.6424 2.2092 0.0000 -11258.7030 1528.5323 0.0000 0.0000 1627.7332 -8089.2718 277.5712 -9717.0049 -8084.3993 269.9273 -743.1713 -660.2201 29683.4792 2.5064 2.6046
TCL: Running 1000000 steps at 300 kelvin.
TCL: Setting parameter langevinTemp to 300
TCL: Running for 1000000 steps
ETITLE: TS BOND ANGLE DIHED IMPRP ELECT VDW BOUNDARY MISC KINETIC TOTAL TEMP POTENTIAL TOTAL3 TEMPAVG PRESSURE GPRESSURE VOLUME PRESSAVG GPRESSAVG
ENERGY: 900000 4.3141 6.6424 2.2092 0.0000 -11258.7030 1528.5323 0.0000 0.0000 1626.9223 -8090.0827 277.4329 -9717.0049 -8087.4610 277.4329 -749.0839 -659.8694 29683.4792 -749.0839 -659.8694
ENERGY: 1100000 6.1509 4.1023 1.8708 0.0000 -10573.8454 1377.0890 0.0000 0.0000 1766.3315 -7418.3008 301.2058 -9184.6323 -7414.8965 299.8387 -314.7032 -180.4963 30311.0515 3.6880 3.6995
ENERGY: 1300000 1.5170 6.5750 2.7611 0.0000 -10607.5919 1361.7291 0.0000 0.0000 1730.7332 -7504.2765 295.1354 -9235.0097 -7501.4716 300.2926 -389.2075 -258.9451 30213.5010 3.4637 3.7035
ENERGY: 1500000 4.4355 6.1963 2.9860 0.0000 -10582.8448 1345.3266 0.0000 0.0000 1787.0080 -7436.8925 304.7317 -9223.9005 -7432.5621 300.4593 -775.5725 -689.9104 30529.6955 3.0339 2.9930
ENERGY: 1700000 3.2041 4.4112 3.2223 0.0000 -10711.3041 1446.5186 0.0000 0.0000 1748.0812 -7505.8668 298.0937 -9253.9480 -7501.9540 299.7294 200.6707 255.1836 30263.6296 4.2100 4.0588
ENERGY: 1900000 2.7638 5.5481 0.9144 0.0000 -10678.6139 1403.7131 0.0000 0.0000 1781.9133 -7483.7611 303.8630 -9265.6745 -7479.5276 300.3229 -513.3744 -408.5273 30450.7905 3.2382 3.4556
TCL: Exiting due to exit command.
