Info: SIMULATION PARAMETERS:
Info: TIMESTEP               2
Info: NUMBER OF STEPS        0
Info: STEPS PER CYCLE        10
Info: PERIODIC CELL BASIS 1  35.89 0 0
Info: PERIODIC CELL BASIS 2  0 36.451 0
Info: PERIODIC CELL BASIS 3  0 0 34.229
Info: PERIODIC CELL CENTER   0 0 0
Info: WRAPPING WATERS AROUND PERIODIC BOUNDARIES ON OUTPUT.
Info: WRAPPING ALL CLUSTERS AROUND PERIODIC BOUNDARIES ON OUTPUT.
Info: FIRST LDB TIMESTEP     50
Info: LAST LDB TIMESTEP     -1
Info: HOM BACKGROUND SCALING 1
Info: PME BACKGROUND SCALING 1
Info: MIN ATOMS PER PATCH    40
Info: EMPTY PATCH LOAD       40 ATOMS
Info: INITIAL TEMPERATURE    300
Info: CENTER OF MASS MOVING INITIALLY? NO
Info: DIELECTRIC             1
Info: EXCLUDE                SCALED ONE-FOUR
Info: 1-4 ELECTROSTATICS SCALED BY 0.833333
Info: MODIFIED 1-4 VDW PARAMETERS WILL BE USED
Info: DCD FILENAME           mobley_6474572_equil.dcd
Info: DCD FREQUENCY          100000
Info: DCD FIRST STEP         100000
Info: DCD FILE WILL CONTAIN UNIT CELL DATA
Info: XST FILENAME           mobley_6474572_equil.xst
Info: XST FREQUENCY          100000
Info: NO VELOCITY DCD OUTPUT
Info: NO FORCE DCD OUTPUT
Info: OUTPUT FILENAME        mobley_6474572_equil
Info: BINARY OUTPUT FILES WILL BE USED
Info: RESTART FILENAME       mobley_6474572_equil.restart
Info: RESTART FREQUENCY      100000
Info: BINARY RESTART FILES WILL BE USED
Info: CUTOFF                 9
Info: PAIRLIST DISTANCE      11
Info: PAIRLIST SHRINK RATE   0.01
Info: PAIRLIST GROW RATE     0.01
Info: PAIRLIST TRIGGER       0.3
Info: PAIRLISTS PER CYCLE    2
Info: PAIRLISTS ENABLED
Info: MARGIN                 8
Info: HYDROGEN GROUP CUTOFF  2.5
Info: PATCH DIMENSION        21.5
Info: ENERGY OUTPUT STEPS    100000
Info: ENERGY EVALUATION STEPS    100000
Info: OUTPUT ENERGY PRECISION 4
Info: CROSSTERM ENERGY INCLUDED IN DIHEDRAL
Info: TIMING OUTPUT STEPS    1000000
Info: PRESSURE OUTPUT STEPS  100000
Info: LANGEVIN DYNAMICS ACTIVE
Info: LANGEVIN TEMPERATURE   30
Info: LANGEVIN USING BBK INTEGRATOR
Info: LANGEVIN DAMPING COEFFICIENT IS 1 INVERSE PS
Info: LANGEVIN DYNAMICS APPLIED TO HYDROGENS
Info: LANGEVIN PISTON PRESSURE CONTROL ACTIVE
Info:        TARGET PRESSURE IS 1.01325 BAR
Info:     OSCILLATION PERIOD IS 50 FS
Info:             DECAY TIME IS 25 FS
Info:     PISTON TEMPERATURE IS 300 K
Info:       PRESSURE CONTROL IS GROUP-BASED
Info:    INITIAL STRAIN RATE IS 0 0 0
Info:       CELL FLUCTUATION IS ISOTROPIC
Info: PARTICLE MESH EWALD (PME) ACTIVE
Info: PME TOLERANCE               1e-06
Info: PME EWALD COEFFICIENT       0.348832
Info: PME INTERPOLATION ORDER     4
Info: PME GRID DIMENSIONS         36 40 36
Info: PME MAXIMUM GRID SPACING    1
Info: FULL ELECTROSTATIC EVALUATION FREQUENCY      2
Info: USING VERLET I (r-RESPA) MTS SCHEME.
Info: C1 SPLITTING OF LONG RANGE ELECTROSTATICS
Info: PLACING ATOMS IN PATCHES BY HYDROGEN GROUPS
Info: RIGID BONDS TO HYDROGEN : ALL
Info:         ERROR TOLERANCE : 1e-08
Info:          MAX ITERATIONS : 100
Info: RIGID WATER USING SETTLE ALGORITHM
Info: RANDOM NUMBER SEED     1743156146
Info: USE HYDROGEN BONDS?    NO
Info: Using AMBER format force field!
Info: AMBER PARM FILE        mobley_6474572.prmtop
Info: COORDINATE PDB         mobley_6474572.pdb
Info: Exclusions will be read from PARM file!
Info: SCNB (VDW SCALING)     2
Info: USING ARITHMETIC MEAN TO COMBINE L-J SIGMA PARAMETERS
Info: BINARY COORDINATES     mobley_6474572_min.coor
Info: SUMMARY OF PARAMETERS:
Info: 6 BONDS
Info: 5 ANGLES
Info:   5 HARMONIC
Info:   0 COSINE-BASED
Info: 2 DIHEDRAL
Info: 0 IMPROPER
Info: 0 CROSSTERM
Info: 0 VDW
Info: 21 VDW_PAIRS
Info: 0 NBTHOLE_PAIRS
Info: STRUCTURE SUMMARY:
Info: 2919 ATOMS
Info: 2918 BONDS
Info: 6 ANGLES
Info: 6 DIHEDRALS
Info: 0 IMPROPERS
Info: 0 CROSSTERMS
Info: 2928 EXCLUSIONS
Info: 2916 RIGID BONDS
Info: 5841 DEGREES OF FREEDOM
Info: 974 HYDROGEN GROUPS
Info: 3 ATOMS IN LARGEST HYDROGEN GROUP
Info: 974 MIGRATION GROUPS
Info: 3 ATOMS IN LARGEST MIGRATION GROUP
Info: TOTAL MASS = 17556 amu
Info: TOTAL CHARGE = 1.49012e-08 e
Info: MASS DENSITY = 0.651041 g/cm^3
Info: ATOM DENSITY = 0.0651864 atoms/A^3
Info: ADDED 0 IMPLICIT EXCLUSIONS
Info: NONBONDED TABLE R-SQUARED SPACING: 0.0625
Info: NONBONDED TABLE SIZE: 705 POINTS
Info: REMOVING COM VELOCITY 0.238317 -0.0294392 0.0684189
TCL: Running for 100000 steps
ETITLE: TS BOND ANGLE DIHED IMPRP ELECT VDW BOUNDARY MISC KINETIC TOTAL TEMP POTENTIAL TOTAL3 TEMPAVG PRESSURE GPRESSURE VOLUME PRESSAVG GPRESSAVG
ENERGY: 0 0.0011 0.0326 0.0038 0.0000 -13484.0183 2383.2841 0.0000 0.0000 1750.4333 -9350.2633 301.6121 -11100.6967 -9349.8820 301.6121 523.1332 554.3595 44779.2811 523.1332 554.3595
ENERGY: 100000 0.4568 0.1451 0.1162 0.0000 -13929.1468 2296.8299 0.0000 0.0000 177.4634 -11454.1353 30.5782 -11631.5987 -11453.5065 30.9279 -1199.8793 -1130.8530 28728.2705 4.1695 4.1971
TCL: Running 100000 steps at 60 kelvin.
TCL: Setting parameter langevinTemp to 60
TCL: Running for 100000 steps
ETITLE: TS BOND ANGLE DIHED IMPRP ELECT VDW BOUNDARY MISC KINETIC TOTAL TEMP POTENTIAL TOTAL3 TEMPAVG PRESSURE GPRESSURE VOLUME PRESSAVG GPRESSAVG
ENERGY: 100000 0.4568 0.1451 0.1162 0.0000 -13929.1468 2296.8299 0.0000 0.0000 177.3776 -11454.2211 30.5634 -11631.5987 -11453.8188 30.5634 -1190.3436 -1130.9516 28728.2705 -1190.3436 -1130.9516
ENERGY: 200000 0.2990 0.2900 0.1125 0.0000 -13995.2953 2428.3586 0.0000 0.0000 356.8528 -11209.3824 61.4883 -11566.2351 -11208.5458 60.0099 272.9830 359.0723 28247.6830 3.8049 3.8631
TCL: Running 100000 steps at 90 kelvin.
TCL: Setting parameter langevinTemp to 90
TCL: Running for 100000 steps
ETITLE: TS BOND ANGLE DIHED IMPRP ELECT VDW BOUNDARY MISC KINETIC TOTAL TEMP POTENTIAL TOTAL3 TEMPAVG PRESSURE GPRESSURE VOLUME PRESSAVG GPRESSAVG
ENERGY: 200000 0.2990 0.2900 0.1125 0.0000 -13995.2953 2428.3586 0.0000 0.0000 356.6811 -11209.5540 61.4587 -11566.2351 -11208.8517 61.4587 289.6065 358.9580 28247.6830 289.6065 358.9580
ENERGY: 300000 0.0553 1.3024 0.7549 0.0000 -13848.3890 2365.9706 0.0000 0.0000 520.7804 -10959.5253 89.7342 -11480.3056 -10957.7965 89.6738 16.4070 30.0862 28296.7558 3.6274 3.6488
TCL: Running 100000 steps at 120 kelvin.
TCL: Setting parameter langevinTemp to 120
TCL: Running for 100000 steps
ETITLE: TS BOND ANGLE DIHED IMPRP ELECT VDW BOUNDARY MISC KINETIC TOTAL TEMP POTENTIAL TOTAL3 TEMPAVG PRESSURE GPRESSURE VOLUME PRESSAVG GPRESSAVG
ENERGY: 300000 0.0553 1.3024 0.7549 0.0000 -13848.3890 2365.9706 0.0000 0.0000 520.5159 -10959.7898 89.6886 -11480.3056 -10958.6636 89.6886 -3.2149 30.5810 28296.7558 -3.2149 30.5810
ENERGY: 400000 0.2690 0.2705 0.1016 0.0000 -13808.5252 2458.2741 0.0000 0.0000 694.1973 -10655.4127 119.6151 -11349.6101 -10653.8166 120.1773 1066.7182 1146.9612 28444.5859 3.7699 3.6911
TCL: Running 100000 steps at 150 kelvin.
TCL: Setting parameter langevinTemp to 150
TCL: Running for 100000 steps
ETITLE: TS BOND ANGLE DIHED IMPRP ELECT VDW BOUNDARY MISC KINETIC TOTAL TEMP POTENTIAL TOTAL3 TEMPAVG PRESSURE GPRESSURE VOLUME PRESSAVG GPRESSAVG
ENERGY: 400000 0.2690 0.2705 0.1016 0.0000 -13808.5252 2458.2741 0.0000 0.0000 693.8469 -10655.7632 119.5547 -11349.6101 -10654.3157 119.5547 1092.9973 1146.5705 28444.5859 1092.9973 1146.5705
ENERGY: 500000 0.2820 0.5116 0.1700 0.0000 -13483.2687 2283.9031 0.0000 0.0000 854.4144 -10343.9876 147.2217 -11198.4020 -10342.1942 149.5200 353.3160 423.0422 28395.1286 2.2100 2.2858
TCL: Running 100000 steps at 180 kelvin.
TCL: Setting parameter langevinTemp to 180
TCL: Running for 100000 steps
ETITLE: TS BOND ANGLE DIHED IMPRP ELECT VDW BOUNDARY MISC KINETIC TOTAL TEMP POTENTIAL TOTAL3 TEMPAVG PRESSURE GPRESSURE VOLUME PRESSAVG GPRESSAVG
ENERGY: 500000 0.2820 0.5116 0.1700 0.0000 -13483.2687 2283.9031 0.0000 0.0000 853.9994 -10344.4026 147.1502 -11198.4020 -10342.5341 147.1502 369.6943 422.2417 28395.1286 369.6943 422.2417
ENERGY: 600000 0.2190 0.7133 0.5107 0.0000 -12995.1698 2118.0053 0.0000 0.0000 1053.0617 -9822.6598 181.4500 -10875.7215 -9820.9536 180.5173 203.2945 335.7637 28381.0962 4.2635 4.1488
TCL: Running 100000 steps at 210 kelvin.
TCL: Setting parameter langevinTemp to 210
TCL: Running for 100000 steps
ETITLE: TS BOND ANGLE DIHED IMPRP ELECT VDW BOUNDARY MISC KINETIC TOTAL TEMP POTENTIAL TOTAL3 TEMPAVG PRESSURE GPRESSURE VOLUME PRESSAVG GPRESSAVG
ENERGY: 600000 0.2190 0.7133 0.5107 0.0000 -12995.1698 2118.0053 0.0000 0.0000 1052.5476 -9823.1739 181.3614 -10875.7215 -9821.4741 181.3614 277.8410 335.9993 28381.0962 277.8410 335.9993
ENERGY: 700000 0.1796 0.6419 0.2268 0.0000 -12254.7809 1849.8086 0.0000 0.0000 1188.2959 -9215.6281 204.7518 -10403.9241 -9213.4239 209.8249 -385.1982 -343.8981 28821.8507 4.0819 4.0302
TCL: Running 100000 steps at 240 kelvin.
TCL: Setting parameter langevinTemp to 240
TCL: Running for 100000 steps
ETITLE: TS BOND ANGLE DIHED IMPRP ELECT VDW BOUNDARY MISC KINETIC TOTAL TEMP POTENTIAL TOTAL3 TEMPAVG PRESSURE GPRESSURE VOLUME PRESSAVG GPRESSAVG
ENERGY: 700000 0.1796 0.6419 0.2268 0.0000 -12254.7809 1849.8086 0.0000 0.0000 1187.6838 -9216.2403 204.6463 -10403.9241 -9214.1917 204.6463 -420.4362 -344.2268 28821.8507 -420.4362 -344.2268
ENERGY: 800000 1.7759 1.1523 0.2800 0.0000 -11643.4347 1683.3987 0.0000 0.0000 1383.0470 -8573.7808 238.3088 -9956.8278 -8571.1394 239.3738 -27.5869 53.1707 28666.0098 3.4209 3.3585
TCL: Running 100000 steps at 270 kelvin.
TCL: Setting parameter langevinTemp to 270
TCL: Running for 100000 steps
ETITLE: TS BOND ANGLE DIHED IMPRP ELECT VDW BOUNDARY MISC KINETIC TOTAL TEMP POTENTIAL TOTAL3 TEMPAVG PRESSURE GPRESSURE VOLUME PRESSAVG GPRESSAVG
ENERGY: 800000 1.7759 1.1523 0.2800 0.0000 -11643.4347 1683.3987 0.0000 0.0000 1382.3197 -8574.5081 238.1835 -9956.8278 -8572.3008 238.1835 -40.9599 53.5410 28666.0098 -40.9599 53.5410
ENERGY: 900000 1.1669 1.1068 0.1778 0.0000 -11185.9033 1564.0493 0.0000 0.0000 1578.5677 -8040.8348 271.9984 -9619.4025 -8036.0908 269.7150 -54.7568 41.8718 29138.5187 4.4565 4.4246
TCL: Running 1000000 steps at 300 kelvin.
TCL: Setting parameter langevinTemp to 300
TCL: Running for 1000000 steps
ETITLE: TS BOND ANGLE DIHED IMPRP ELECT VDW BOUNDARY MISC KINETIC TOTAL TEMP POTENTIAL TOTAL3 TEMPAVG PRESSURE GPRESSURE VOLUME PRESSAVG GPRESSAVG
ENERGY: 900000 1.1669 1.1068 0.1778 0.0000 -11185.9033 1564.0493 0.0000 0.0000 1577.7936 -8041.6089 271.8650 -9619.4025 -8038.6288 271.8650 -47.4400 44.0467 29138.5187 -47.4400 44.0467
ENERGY: 1100000 0.0119 1.2306 1.2883 0.0000 -10657.2345 1475.4748 0.0000 0.0000 1760.7539 -7418.4750 303.3904 -9179.2290 -7415.4505 301.1130 735.4058 720.0149 29592.2437 2.2843 2.4503
ENERGY: 1300000 0.1290 1.1374 0.3443 0.0000 -10595.7937 1446.0434 0.0000 0.0000 1793.6649 -7354.4747 309.0612 -9148.1397 -7355.2152 301.1141 342.4496 423.2017 29978.6412 3.4639 3.6093
ENERGY: 1500000 0.5120 1.0973 0.8694 0.0000 -10574.6977 1402.1409 0.0000 0.0000 1726.5253 -7443.5528 297.4926 -9170.0780 -7440.2573 300.2133 -587.8327 -444.1648 30338.6521 3.7123 3.7718
ENERGY: 1700000 0.9801 0.8412 1.0559 0.0000 -10566.9439 1395.8989 0.0000 0.0000 1742.5409 -7425.6269 300.2522 -9168.1678 -7422.2348 300.2020 -283.1458 -227.8024 30155.8197 3.4061 3.2937
ENERGY: 1900000 1.7667 0.3493 0.6343 0.0000 -10629.4619 1500.0317 0.0000 0.0000 1827.6644 -7299.0155 314.9196 -9126.6799 -7294.1595 299.9065 613.9101 703.1850 30266.4837 2.8161 2.6578
TCL: Exiting due to exit command.
