Info: SIMULATION PARAMETERS:
Info: TIMESTEP               2
Info: NUMBER OF STEPS        0
Info: STEPS PER CYCLE        10
Info: PERIODIC CELL BASIS 1  36.592 0 0
Info: PERIODIC CELL BASIS 2  0 34.696 0
Info: PERIODIC CELL BASIS 3  0 0 34.954
Info: PERIODIC CELL CENTER   0 0 0
Info: WRAPPING WATERS AROUND PERIODIC BOUNDARIES ON OUTPUT.
Info: WRAPPING ALL CLUSTERS AROUND PERIODIC BOUNDARIES ON OUTPUT.
Info: FIRST LDB TIMESTEP     50
Info: LAST LDB TIMESTEP     -1
Info: HOM BACKGROUND SCALING 1
Info: PME BACKGROUND SCALING 1
Info: MIN ATOMS PER PATCH    40
Info: EMPTY PATCH LOAD       40 ATOMS
Info: INITIAL TEMPERATURE    300
Info: CENTER OF MASS MOVING INITIALLY? NO
Info: DIELECTRIC             1
Info: EXCLUDE                SCALED ONE-FOUR
Info: 1-4 ELECTROSTATICS SCALED BY 0.833333
Info: MODIFIED 1-4 VDW PARAMETERS WILL BE USED
Info: DCD FILENAME           mobley_1662128_equil.dcd
Info: DCD FREQUENCY          100000
Info: DCD FIRST STEP         100000
Info: DCD FILE WILL CONTAIN UNIT CELL DATA
Info: XST FILENAME           mobley_1662128_equil.xst
Info: XST FREQUENCY          100000
Info: NO VELOCITY DCD OUTPUT
Info: NO FORCE DCD OUTPUT
Info: OUTPUT FILENAME        mobley_1662128_equil
Info: BINARY OUTPUT FILES WILL BE USED
Info: RESTART FILENAME       mobley_1662128_equil.restart
Info: RESTART FREQUENCY      100000
Info: BINARY RESTART FILES WILL BE USED
Info: CUTOFF                 9
Info: PAIRLIST DISTANCE      11
Info: PAIRLIST SHRINK RATE   0.01
Info: PAIRLIST GROW RATE     0.01
Info: PAIRLIST TRIGGER       0.3
Info: PAIRLISTS PER CYCLE    2
Info: PAIRLISTS ENABLED
Info: MARGIN                 8
Info: HYDROGEN GROUP CUTOFF  2.5
Info: PATCH DIMENSION        21.5
Info: ENERGY OUTPUT STEPS    100000
Info: ENERGY EVALUATION STEPS    100000
Info: OUTPUT ENERGY PRECISION 4
Info: CROSSTERM ENERGY INCLUDED IN DIHEDRAL
Info: TIMING OUTPUT STEPS    1000000
Info: PRESSURE OUTPUT STEPS  100000
Info: LANGEVIN DYNAMICS ACTIVE
Info: LANGEVIN TEMPERATURE   30
Info: LANGEVIN USING BBK INTEGRATOR
Info: LANGEVIN DAMPING COEFFICIENT IS 1 INVERSE PS
Info: LANGEVIN DYNAMICS APPLIED TO HYDROGENS
Info: LANGEVIN PISTON PRESSURE CONTROL ACTIVE
Info:        TARGET PRESSURE IS 1.01325 BAR
Info:     OSCILLATION PERIOD IS 50 FS
Info:             DECAY TIME IS 25 FS
Info:     PISTON TEMPERATURE IS 300 K
Info:       PRESSURE CONTROL IS GROUP-BASED
Info:    INITIAL STRAIN RATE IS 0 0 0
Info:       CELL FLUCTUATION IS ISOTROPIC
Info: PARTICLE MESH EWALD (PME) ACTIVE
Info: PME TOLERANCE               1e-06
Info: PME EWALD COEFFICIENT       0.348832
Info: PME INTERPOLATION ORDER     4
Info: PME GRID DIMENSIONS         40 36 36
Info: PME MAXIMUM GRID SPACING    1
Info: FULL ELECTROSTATIC EVALUATION FREQUENCY      2
Info: USING VERLET I (r-RESPA) MTS SCHEME.
Info: C1 SPLITTING OF LONG RANGE ELECTROSTATICS
Info: PLACING ATOMS IN PATCHES BY HYDROGEN GROUPS
Info: RIGID BONDS TO HYDROGEN : ALL
Info:         ERROR TOLERANCE : 1e-08
Info:          MAX ITERATIONS : 100
Info: RIGID WATER USING SETTLE ALGORITHM
Info: RANDOM NUMBER SEED     1743225561
Info: USE HYDROGEN BONDS?    NO
Info: Using AMBER format force field!
Info: AMBER PARM FILE        mobley_1662128.prmtop
Info: COORDINATE PDB         mobley_1662128.pdb
Info: Exclusions will be read from PARM file!
Info: SCNB (VDW SCALING)     2
Info: USING ARITHMETIC MEAN TO COMBINE L-J SIGMA PARAMETERS
Info: BINARY COORDINATES     mobley_1662128_min.coor
Info: SUMMARY OF PARAMETERS:
Info: 7 BONDS
Info: 8 ANGLES
Info: 7 DIHEDRAL
Info: 0 IMPROPER
Info: 0 CROSSTERM
Info: 0 VDW
Info: 21 VDW_PAIRS
Info: 0 NBTHOLE_PAIRS
Info: STRUCTURE SUMMARY:
Info: 2970 ATOMS
Info: 2969 BONDS
Info: 18 ANGLES
Info: 25 DIHEDRALS
Info: 0 IMPROPERS
Info: 0 CROSSTERMS
Info: 3006 EXCLUSIONS
Info: 2966 RIGID BONDS
Info: 5944 DEGREES OF FREEDOM
Info: 990 HYDROGEN GROUPS
Info: 4 ATOMS IN LARGEST HYDROGEN GROUP
Info: 990 MIGRATION GROUPS
Info: 4 ATOMS IN LARGEST MIGRATION GROUP
Info: TOTAL MASS = 17819.9 amu
Info: TOTAL CHARGE = 9.99942e-05 e
Info: MASS DENSITY = 0.666809 g/cm^3
Info: ATOM DENSITY = 0.0669259 atoms/A^3
Info: ADDED 0 IMPLICIT EXCLUSIONS
Info: NONBONDED TABLE R-SQUARED SPACING: 0.0625
Info: NONBONDED TABLE SIZE: 705 POINTS
Info: REMOVING COM VELOCITY -0.127236 -0.0689379 -0.0158982
TCL: Running for 100000 steps
ETITLE: TS BOND ANGLE DIHED IMPRP ELECT VDW BOUNDARY MISC KINETIC TOTAL TEMP POTENTIAL TOTAL3 TEMPAVG PRESSURE GPRESSURE VOLUME PRESSAVG GPRESSAVG
ENERGY: 0 0.0156 0.1287 2.8212 0.0000 -13713.1754 2398.3570 0.0000 0.0000 1796.2360 -9515.6170 304.1410 -11311.8529 -9515.2552 304.1410 357.8581 391.0278 44377.4597 357.8581 391.0278
ENERGY: 100000 0.2570 1.3545 1.1902 0.0000 -14176.9736 2334.8081 0.0000 0.0000 172.8963 -11666.4675 29.2750 -11839.3638 -11665.9919 30.9372 -1246.0147 -1184.0947 28760.5166 3.8199 3.8551
TCL: Running 100000 steps at 60 kelvin.
TCL: Setting parameter langevinTemp to 60
TCL: Running for 100000 steps
ETITLE: TS BOND ANGLE DIHED IMPRP ELECT VDW BOUNDARY MISC KINETIC TOTAL TEMP POTENTIAL TOTAL3 TEMPAVG PRESSURE GPRESSURE VOLUME PRESSAVG GPRESSAVG
ENERGY: 100000 0.2570 1.3545 1.1902 0.0000 -14176.9736 2334.8081 0.0000 0.0000 172.8042 -11666.5597 29.2594 -11839.3638 -11666.1484 29.2594 -1251.2108 -1184.3674 28760.5166 -1251.2108 -1184.3674
ENERGY: 200000 1.1211 1.0513 1.2445 0.0000 -14324.6720 2541.2097 0.0000 0.0000 355.1775 -11424.8679 60.1391 -11780.0454 -11423.9619 59.8612 701.5886 750.9631 28406.8036 4.1302 4.0713
TCL: Running 100000 steps at 90 kelvin.
TCL: Setting parameter langevinTemp to 90
TCL: Running for 100000 steps
ETITLE: TS BOND ANGLE DIHED IMPRP ELECT VDW BOUNDARY MISC KINETIC TOTAL TEMP POTENTIAL TOTAL3 TEMPAVG PRESSURE GPRESSURE VOLUME PRESSAVG GPRESSAVG
ENERGY: 200000 1.1211 1.0513 1.2445 0.0000 -14324.6720 2541.2097 0.0000 0.0000 355.0009 -11425.0446 60.1092 -11780.0454 -11424.3523 60.1092 688.6271 750.7964 28406.8036 688.6271 750.7964
ENERGY: 300000 0.2969 1.1815 1.4249 0.0000 -14057.5175 2370.9418 0.0000 0.0000 536.7374 -11146.9351 90.8811 -11683.6725 -11144.9605 90.1090 -165.0925 -94.3364 28455.2714 2.9524 2.9373
TCL: Running 100000 steps at 120 kelvin.
TCL: Setting parameter langevinTemp to 120
TCL: Running for 100000 steps
ETITLE: TS BOND ANGLE DIHED IMPRP ELECT VDW BOUNDARY MISC KINETIC TOTAL TEMP POTENTIAL TOTAL3 TEMPAVG PRESSURE GPRESSURE VOLUME PRESSAVG GPRESSAVG
ENERGY: 300000 0.2969 1.1815 1.4249 0.0000 -14057.5175 2370.9418 0.0000 0.0000 536.4749 -11147.1976 90.8366 -11683.6725 -11146.0456 90.8366 -154.1690 -93.4067 28455.2714 -154.1690 -93.4067
ENERGY: 400000 1.3887 2.1535 1.6509 0.0000 -13823.5605 2271.4718 0.0000 0.0000 677.4387 -10869.4570 114.7048 -11546.8957 -10867.8844 119.8862 -788.0406 -728.3360 28978.1267 4.3217 4.3517
TCL: Running 100000 steps at 150 kelvin.
TCL: Setting parameter langevinTemp to 150
TCL: Running for 100000 steps
ETITLE: TS BOND ANGLE DIHED IMPRP ELECT VDW BOUNDARY MISC KINETIC TOTAL TEMP POTENTIAL TOTAL3 TEMPAVG PRESSURE GPRESSURE VOLUME PRESSAVG GPRESSAVG
ENERGY: 400000 1.3887 2.1535 1.6509 0.0000 -13823.5605 2271.4718 0.0000 0.0000 677.0754 -10869.8203 114.6433 -11546.8957 -10868.3080 114.6433 -796.2754 -728.5043 28978.1267 -796.2754 -728.5043
ENERGY: 500000 1.1355 4.3528 3.2988 0.0000 -13612.7412 2203.7152 0.0000 0.0000 886.7950 -10513.4439 150.1533 -11400.2389 -10510.3509 149.7830 -797.9365 -695.7337 28961.1926 4.4949 4.5724
TCL: Running 100000 steps at 180 kelvin.
TCL: Setting parameter langevinTemp to 180
TCL: Running for 100000 steps
ETITLE: TS BOND ANGLE DIHED IMPRP ELECT VDW BOUNDARY MISC KINETIC TOTAL TEMP POTENTIAL TOTAL3 TEMPAVG PRESSURE GPRESSURE VOLUME PRESSAVG GPRESSAVG
ENERGY: 500000 1.1355 4.3528 3.2988 0.0000 -13612.7412 2203.7152 0.0000 0.0000 886.3546 -10513.8843 150.0787 -11400.2389 -10512.1329 150.0787 -746.0082 -693.8337 28961.1926 -746.0082 -693.8337
ENERGY: 600000 0.2984 3.7122 1.7788 0.0000 -13320.2055 2226.2232 0.0000 0.0000 1063.6925 -10024.5005 180.1058 -11088.1930 -10024.1690 179.5281 497.3485 563.7076 29283.4375 5.1306 5.1807
TCL: Running 100000 steps at 210 kelvin.
TCL: Setting parameter langevinTemp to 210
TCL: Running for 100000 steps
ETITLE: TS BOND ANGLE DIHED IMPRP ELECT VDW BOUNDARY MISC KINETIC TOTAL TEMP POTENTIAL TOTAL3 TEMPAVG PRESSURE GPRESSURE VOLUME PRESSAVG GPRESSAVG
ENERGY: 600000 0.2984 3.7122 1.7788 0.0000 -13320.2055 2226.2232 0.0000 0.0000 1063.1571 -10025.0358 180.0151 -11088.1930 -10022.9954 180.0151 493.9702 563.1572 29283.4375 493.9702 563.1572
ENERGY: 700000 1.4030 2.5934 3.3554 0.0000 -12376.8554 1843.9856 0.0000 0.0000 1216.4902 -9309.0277 205.9777 -10525.5179 -9306.0644 209.6039 -326.0279 -265.3669 28946.5076 2.3636 2.3180
TCL: Running 100000 steps at 240 kelvin.
TCL: Setting parameter langevinTemp to 240
TCL: Running for 100000 steps
ETITLE: TS BOND ANGLE DIHED IMPRP ELECT VDW BOUNDARY MISC KINETIC TOTAL TEMP POTENTIAL TOTAL3 TEMPAVG PRESSURE GPRESSURE VOLUME PRESSAVG GPRESSAVG
ENERGY: 700000 1.4030 2.5934 3.3554 0.0000 -12376.8554 1843.9856 0.0000 0.0000 1215.8832 -9309.6347 205.8749 -10525.5179 -9307.9957 205.8749 -346.2638 -264.3190 28946.5076 -346.2638 -264.3190
ENERGY: 800000 1.7588 7.2248 4.1917 0.0000 -11789.3990 1633.6117 0.0000 0.0000 1414.7232 -8727.8888 239.5428 -10142.6121 -8723.8219 240.0756 -1044.5883 -1006.3573 29648.1100 3.5078 3.3180
TCL: Running 100000 steps at 270 kelvin.
TCL: Setting parameter langevinTemp to 270
TCL: Running for 100000 steps
ETITLE: TS BOND ANGLE DIHED IMPRP ELECT VDW BOUNDARY MISC KINETIC TOTAL TEMP POTENTIAL TOTAL3 TEMPAVG PRESSURE GPRESSURE VOLUME PRESSAVG GPRESSAVG
ENERGY: 800000 1.7588 7.2248 4.1917 0.0000 -11789.3990 1633.6117 0.0000 0.0000 1414.0097 -8728.6024 239.4220 -10142.6121 -8726.2508 239.4220 -1092.8123 -1005.6759 29648.1100 -1092.8123 -1005.6759
ENERGY: 900000 0.1098 3.8024 4.5180 0.0000 -11257.8852 1477.2967 0.0000 0.0000 1613.3551 -8158.8033 273.1754 -9772.1584 -8154.1058 269.8587 -961.7525 -894.9103 29999.5267 3.3772 3.3755
TCL: Running 1000000 steps at 300 kelvin.
TCL: Setting parameter langevinTemp to 300
TCL: Running for 1000000 steps
ETITLE: TS BOND ANGLE DIHED IMPRP ELECT VDW BOUNDARY MISC KINETIC TOTAL TEMP POTENTIAL TOTAL3 TEMPAVG PRESSURE GPRESSURE VOLUME PRESSAVG GPRESSAVG
ENERGY: 900000 0.1098 3.8024 4.5180 0.0000 -11257.8852 1477.2967 0.0000 0.0000 1612.5694 -8159.5890 273.0423 -9772.1584 -8156.1615 273.0423 -980.7858 -894.4118 29999.5267 -980.7858 -894.4118
ENERGY: 1100000 0.7941 3.0694 5.8247 0.0000 -10736.4830 1379.7715 0.0000 0.0000 1763.2701 -7583.7533 298.5592 -9347.0233 -7579.8451 300.2573 -607.9196 -531.2017 30621.5704 4.1769 4.2400
ENERGY: 1300000 1.2901 3.2186 4.4982 0.0000 -10784.4618 1460.6156 0.0000 0.0000 1718.7320 -7596.1073 291.0179 -9314.8393 -7593.8897 299.7583 191.5702 189.0406 30393.5452 3.3911 3.6437
ENERGY: 1500000 0.4378 6.4122 4.4723 0.0000 -10720.0811 1413.4086 0.0000 0.0000 1770.7431 -7524.6071 299.8245 -9295.3502 -7521.4374 300.6750 -90.8785 -57.4302 30362.5222 2.7352 2.7897
ENERGY: 1700000 3.6774 6.1897 2.0446 0.0000 -10858.0764 1515.1279 0.0000 0.0000 1760.5950 -7570.4418 298.1062 -9331.0368 -7567.1238 299.4733 442.4127 501.4372 30137.5420 3.1036 3.1064
ENERGY: 1900000 2.1413 2.2428 3.8057 0.0000 -10732.5639 1395.2172 0.0000 0.0000 1788.3204 -7540.8365 302.8007 -9329.1569 -7536.9022 300.3301 -260.5209 -158.1104 30172.1712 3.0741 3.1178
TCL: Exiting due to exit command.
