Info: SIMULATION PARAMETERS:
Info: TIMESTEP               2
Info: NUMBER OF STEPS        0
Info: STEPS PER CYCLE        10
Info: PERIODIC CELL BASIS 1  36.592 0 0
Info: PERIODIC CELL BASIS 2  0 34.696 0
Info: PERIODIC CELL BASIS 3  0 0 34.933
Info: PERIODIC CELL CENTER   0 0 0
Info: WRAPPING WATERS AROUND PERIODIC BOUNDARIES ON OUTPUT.
Info: WRAPPING ALL CLUSTERS AROUND PERIODIC BOUNDARIES ON OUTPUT.
Info: FIRST LDB TIMESTEP     50
Info: LAST LDB TIMESTEP     -1
Info: HOM BACKGROUND SCALING 1
Info: PME BACKGROUND SCALING 1
Info: MIN ATOMS PER PATCH    40
Info: EMPTY PATCH LOAD       40 ATOMS
Info: INITIAL TEMPERATURE    300
Info: CENTER OF MASS MOVING INITIALLY? NO
Info: DIELECTRIC             1
Info: EXCLUDE                SCALED ONE-FOUR
Info: 1-4 ELECTROSTATICS SCALED BY 0.833333
Info: MODIFIED 1-4 VDW PARAMETERS WILL BE USED
Info: DCD FILENAME           mobley_6081058_equil.dcd
Info: DCD FREQUENCY          100000
Info: DCD FIRST STEP         100000
Info: DCD FILE WILL CONTAIN UNIT CELL DATA
Info: XST FILENAME           mobley_6081058_equil.xst
Info: XST FREQUENCY          100000
Info: NO VELOCITY DCD OUTPUT
Info: NO FORCE DCD OUTPUT
Info: OUTPUT FILENAME        mobley_6081058_equil
Info: BINARY OUTPUT FILES WILL BE USED
Info: RESTART FILENAME       mobley_6081058_equil.restart
Info: RESTART FREQUENCY      100000
Info: BINARY RESTART FILES WILL BE USED
Info: CUTOFF                 9
Info: PAIRLIST DISTANCE      11
Info: PAIRLIST SHRINK RATE   0.01
Info: PAIRLIST GROW RATE     0.01
Info: PAIRLIST TRIGGER       0.3
Info: PAIRLISTS PER CYCLE    2
Info: PAIRLISTS ENABLED
Info: MARGIN                 8
Info: HYDROGEN GROUP CUTOFF  2.5
Info: PATCH DIMENSION        21.5
Info: ENERGY OUTPUT STEPS    100000
Info: ENERGY EVALUATION STEPS    100000
Info: OUTPUT ENERGY PRECISION 4
Info: CROSSTERM ENERGY INCLUDED IN DIHEDRAL
Info: TIMING OUTPUT STEPS    1000000
Info: PRESSURE OUTPUT STEPS  100000
Info: LANGEVIN DYNAMICS ACTIVE
Info: LANGEVIN TEMPERATURE   30
Info: LANGEVIN USING BBK INTEGRATOR
Info: LANGEVIN DAMPING COEFFICIENT IS 1 INVERSE PS
Info: LANGEVIN DYNAMICS APPLIED TO HYDROGENS
Info: LANGEVIN PISTON PRESSURE CONTROL ACTIVE
Info:        TARGET PRESSURE IS 1.01325 BAR
Info:     OSCILLATION PERIOD IS 50 FS
Info:             DECAY TIME IS 25 FS
Info:     PISTON TEMPERATURE IS 300 K
Info:       PRESSURE CONTROL IS GROUP-BASED
Info:    INITIAL STRAIN RATE IS 0 0 0
Info:       CELL FLUCTUATION IS ISOTROPIC
Info: PARTICLE MESH EWALD (PME) ACTIVE
Info: PME TOLERANCE               1e-06
Info: PME EWALD COEFFICIENT       0.348832
Info: PME INTERPOLATION ORDER     4
Info: PME GRID DIMENSIONS         40 36 36
Info: PME MAXIMUM GRID SPACING    1
Info: FULL ELECTROSTATIC EVALUATION FREQUENCY      2
Info: USING VERLET I (r-RESPA) MTS SCHEME.
Info: C1 SPLITTING OF LONG RANGE ELECTROSTATICS
Info: PLACING ATOMS IN PATCHES BY HYDROGEN GROUPS
Info: RIGID BONDS TO HYDROGEN : ALL
Info:         ERROR TOLERANCE : 1e-08
Info:          MAX ITERATIONS : 100
Info: RIGID WATER USING SETTLE ALGORITHM
Info: RANDOM NUMBER SEED     1743258752
Info: USE HYDROGEN BONDS?    NO
Info: Using AMBER format force field!
Info: AMBER PARM FILE        mobley_6081058.prmtop
Info: COORDINATE PDB         mobley_6081058.pdb
Info: Exclusions will be read from PARM file!
Info: SCNB (VDW SCALING)     2
Info: USING ARITHMETIC MEAN TO COMBINE L-J SIGMA PARAMETERS
Info: BINARY COORDINATES     mobley_6081058_min.coor
Info: SUMMARY OF PARAMETERS:
Info: 11 BONDS
Info: 14 ANGLES
Info:   14 HARMONIC
Info:   0 COSINE-BASED
Info: 11 DIHEDRAL
Info: 0 IMPROPER
Info: 0 CROSSTERM
Info: 0 VDW
Info: 36 VDW_PAIRS
Info: 0 NBTHOLE_PAIRS
Info: STRUCTURE SUMMARY:
Info: 2948 ATOMS
Info: 2947 BONDS
Info: 39 ANGLES
Info: 57 DIHEDRALS
Info: 0 IMPROPERS
Info: 0 CROSSTERMS
Info: 3036 EXCLUSIONS
Info: 2939 RIGID BONDS
Info: 5905 DEGREES OF FREEDOM
Info: 984 HYDROGEN GROUPS
Info: 4 ATOMS IN LARGEST HYDROGEN GROUP
Info: 984 MIGRATION GROUPS
Info: 4 ATOMS IN LARGEST MIGRATION GROUP
Info: TOTAL MASS = 17691.8 amu
Info: TOTAL CHARGE = -9.99868e-05 e
Info: MASS DENSITY = 0.662414 g/cm^3
Info: ATOM DENSITY = 0.0664701 atoms/A^3
Info: ADDED 0 IMPLICIT EXCLUSIONS
Info: NONBONDED TABLE R-SQUARED SPACING: 0.0625
Info: NONBONDED TABLE SIZE: 705 POINTS
Info: REMOVING COM VELOCITY 0.130377 0.14234 0.0762831
TCL: Running for 100000 steps
ETITLE: TS BOND ANGLE DIHED IMPRP ELECT VDW BOUNDARY MISC KINETIC TOTAL TEMP POTENTIAL TOTAL3 TEMPAVG PRESSURE GPRESSURE VOLUME PRESSAVG GPRESSAVG
ENERGY: 0 0.0809 0.3306 0.8634 0.0000 -13592.7475 2407.1029 0.0000 0.0000 1792.9128 -9391.4569 305.5833 -11184.3698 -9391.0837 305.5833 453.6681 490.6435 44350.7982 453.6681 490.6435
ENERGY: 100000 0.5774 1.5845 0.9307 0.0000 -14029.2914 2345.5346 0.0000 0.0000 180.5812 -11500.0830 30.7782 -11680.6642 -11499.7926 30.9483 -1054.7808 -1004.2692 29352.6300 2.9005 2.9235
TCL: Running 100000 steps at 60 kelvin.
TCL: Setting parameter langevinTemp to 60
TCL: Running for 100000 steps
ETITLE: TS BOND ANGLE DIHED IMPRP ELECT VDW BOUNDARY MISC KINETIC TOTAL TEMP POTENTIAL TOTAL3 TEMPAVG PRESSURE GPRESSURE VOLUME PRESSAVG GPRESSAVG
ENERGY: 100000 0.5774 1.5845 0.9307 0.0000 -14029.2914 2345.5346 0.0000 0.0000 180.4927 -11500.1715 30.7631 -11680.6642 -11499.7609 30.7631 -1058.2186 -1004.3561 29352.6300 -1058.2186 -1004.3561
ENERGY: 200000 0.4666 1.5137 1.8250 0.0000 -14010.6604 2381.3800 0.0000 0.0000 359.0853 -11266.3899 61.2023 -11625.4752 -11265.4267 60.0292 -320.0696 -266.0982 28792.4116 4.1498 4.1679
TCL: Running 100000 steps at 90 kelvin.
TCL: Setting parameter langevinTemp to 90
TCL: Running for 100000 steps
ETITLE: TS BOND ANGLE DIHED IMPRP ELECT VDW BOUNDARY MISC KINETIC TOTAL TEMP POTENTIAL TOTAL3 TEMPAVG PRESSURE GPRESSURE VOLUME PRESSAVG GPRESSAVG
ENERGY: 200000 0.4666 1.5137 1.8250 0.0000 -14010.6604 2381.3800 0.0000 0.0000 358.9001 -11266.5752 61.1708 -11625.4752 -11265.6230 61.1708 -310.7498 -266.1684 28792.4116 -310.7498 -266.1684
ENERGY: 300000 1.1000 3.0800 1.7065 0.0000 -13948.1058 2430.0503 0.0000 0.0000 521.9228 -10990.2461 88.9563 -11512.1690 -10988.2263 90.0418 452.0385 498.8583 28659.8446 3.6697 3.5756
TCL: Running 100000 steps at 120 kelvin.
TCL: Setting parameter langevinTemp to 120
TCL: Running for 100000 steps
ETITLE: TS BOND ANGLE DIHED IMPRP ELECT VDW BOUNDARY MISC KINETIC TOTAL TEMP POTENTIAL TOTAL3 TEMPAVG PRESSURE GPRESSURE VOLUME PRESSAVG GPRESSAVG
ENERGY: 300000 1.1000 3.0800 1.7065 0.0000 -13948.1058 2430.0503 0.0000 0.0000 521.6742 -10990.4947 88.9139 -11512.1690 -10989.3717 88.9139 453.1116 499.7961 28659.8446 453.1116 499.7961
ENERGY: 400000 1.2634 5.2181 1.8378 0.0000 -13690.3022 2285.4970 0.0000 0.0000 695.8830 -10700.6029 118.6060 -11396.4859 -10699.7646 119.6023 -160.6543 -80.3318 28394.8953 4.0831 3.9275
TCL: Running 100000 steps at 150 kelvin.
TCL: Setting parameter langevinTemp to 150
TCL: Running for 100000 steps
ETITLE: TS BOND ANGLE DIHED IMPRP ELECT VDW BOUNDARY MISC KINETIC TOTAL TEMP POTENTIAL TOTAL3 TEMPAVG PRESSURE GPRESSURE VOLUME PRESSAVG GPRESSAVG
ENERGY: 400000 1.2634 5.2181 1.8378 0.0000 -13690.3022 2285.4970 0.0000 0.0000 695.5419 -10700.9440 118.5479 -11396.4859 -10699.1561 118.5479 -138.6665 -81.7923 28394.8953 -138.6665 -81.7923
ENERGY: 500000 2.7848 4.4872 1.4563 0.0000 -13459.3083 2231.8803 0.0000 0.0000 876.7562 -10341.9435 149.4340 -11218.6998 -10341.3111 149.7633 21.8571 58.9913 28619.0305 5.0917 5.1469
TCL: Running 100000 steps at 180 kelvin.
TCL: Setting parameter langevinTemp to 180
TCL: Running for 100000 steps
ETITLE: TS BOND ANGLE DIHED IMPRP ELECT VDW BOUNDARY MISC KINETIC TOTAL TEMP POTENTIAL TOTAL3 TEMPAVG PRESSURE GPRESSURE VOLUME PRESSAVG GPRESSAVG
ENERGY: 500000 2.7848 4.4872 1.4563 0.0000 -13459.3083 2231.8803 0.0000 0.0000 876.3054 -10342.3944 149.3571 -11218.6998 -10340.9664 149.3571 2.6904 58.7127 28619.0305 2.6904 58.7127
ENERGY: 600000 1.2801 6.6190 3.4491 0.0000 -12977.7073 2016.2641 0.0000 0.0000 1025.1167 -9924.9782 174.7205 -10950.0949 -9921.8601 180.0013 -649.5743 -599.6407 28677.4189 2.9129 2.9271
TCL: Running 100000 steps at 210 kelvin.
TCL: Setting parameter langevinTemp to 210
TCL: Running for 100000 steps
ETITLE: TS BOND ANGLE DIHED IMPRP ELECT VDW BOUNDARY MISC KINETIC TOTAL TEMP POTENTIAL TOTAL3 TEMPAVG PRESSURE GPRESSURE VOLUME PRESSAVG GPRESSAVG
ENERGY: 600000 1.2801 6.6190 3.4491 0.0000 -12977.7073 2016.2641 0.0000 0.0000 1024.5890 -9925.5060 174.6305 -10950.0949 -9923.3348 174.6305 -682.3308 -600.2864 28677.4189 -682.3308 -600.2864
ENERGY: 700000 3.1439 6.4375 2.9978 0.0000 -12431.4768 1980.9721 0.0000 0.0000 1248.9708 -9188.9548 212.8741 -10437.9256 -9187.5315 209.5440 1068.0253 1115.6525 28567.4436 4.2301 4.2128
TCL: Running 100000 steps at 240 kelvin.
TCL: Setting parameter langevinTemp to 240
TCL: Running for 100000 steps
ETITLE: TS BOND ANGLE DIHED IMPRP ELECT VDW BOUNDARY MISC KINETIC TOTAL TEMP POTENTIAL TOTAL3 TEMPAVG PRESSURE GPRESSURE VOLUME PRESSAVG GPRESSAVG
ENERGY: 700000 3.1439 6.4375 2.9978 0.0000 -12431.4768 1980.9721 0.0000 0.0000 1248.3524 -9189.5732 212.7687 -10437.9256 -9187.5255 212.7687 1020.8903 1115.1980 28567.4436 1020.8903 1115.1980
ENERGY: 800000 1.7552 7.8014 3.3920 0.0000 -11612.1050 1622.1315 0.0000 0.0000 1371.4906 -8605.5342 233.7563 -9977.0249 -8602.4765 239.7370 -501.3259 -391.8913 28823.8613 1.9610 1.9229
TCL: Running 100000 steps at 270 kelvin.
TCL: Setting parameter langevinTemp to 270
TCL: Running for 100000 steps
ETITLE: TS BOND ANGLE DIHED IMPRP ELECT VDW BOUNDARY MISC KINETIC TOTAL TEMP POTENTIAL TOTAL3 TEMPAVG PRESSURE GPRESSURE VOLUME PRESSAVG GPRESSAVG
ENERGY: 800000 1.7552 7.8014 3.3920 0.0000 -11612.1050 1622.1315 0.0000 0.0000 1370.7893 -8606.2356 233.6368 -9977.0249 -8603.5970 233.6368 -488.6794 -392.3925 28823.8613 -488.6794 -392.3925
ENERGY: 900000 2.3697 9.4588 4.1124 0.0000 -11123.7440 1515.3968 0.0000 0.0000 1562.7533 -8029.6530 266.3550 -9592.4063 -8027.1168 269.7956 -267.8294 -185.2231 29461.6978 2.5136 2.5672
TCL: Running 1000000 steps at 300 kelvin.
TCL: Setting parameter langevinTemp to 300
TCL: Running for 1000000 steps
ETITLE: TS BOND ANGLE DIHED IMPRP ELECT VDW BOUNDARY MISC KINETIC TOTAL TEMP POTENTIAL TOTAL3 TEMPAVG PRESSURE GPRESSURE VOLUME PRESSAVG GPRESSAVG
ENERGY: 900000 2.3697 9.4588 4.1124 0.0000 -11123.7440 1515.3968 0.0000 0.0000 1561.9480 -8030.4582 266.2178 -9592.4063 -8028.0096 266.2178 -278.0948 -185.4730 29461.6978 -278.0948 -185.4730
ENERGY: 1100000 2.7933 7.1761 6.2495 0.0000 -10688.9644 1447.0086 0.0000 0.0000 1742.2002 -7483.5368 296.9399 -9225.7370 -7480.3590 300.3219 -6.0242 86.3694 30790.2763 3.3964 3.3013
ENERGY: 1300000 2.3266 10.5417 2.7655 0.0000 -10462.5943 1322.0089 0.0000 0.0000 1736.8671 -7388.0845 296.0309 -9124.9516 -7386.0798 300.1149 -857.4531 -826.6964 30867.7076 3.3476 3.2982
ENERGY: 1500000 1.5153 13.3447 1.5335 0.0000 -10632.7039 1392.6089 0.0000 0.0000 1739.5871 -7484.1145 296.4945 -9223.7016 -7480.1462 299.9850 -220.9116 -123.6716 30117.3155 1.5965 1.5483
ENERGY: 1700000 1.2357 8.7114 2.5705 0.0000 -10716.4950 1430.4928 0.0000 0.0000 1772.5351 -7500.9494 302.1102 -9273.4845 -7496.8027 300.0376 -19.2900 102.7043 30329.7440 3.0559 3.1061
ENERGY: 1900000 1.9625 8.2166 4.0645 0.0000 -10550.9878 1397.5466 0.0000 0.0000 1744.7440 -7394.4535 297.3734 -9139.1975 -7392.3468 299.7255 134.4398 172.1597 30408.1700 2.8975 2.9348
TCL: Exiting due to exit command.
