Info: SIMULATION PARAMETERS:
Info: TIMESTEP               2
Info: NUMBER OF STEPS        0
Info: STEPS PER CYCLE        10
Info: PERIODIC CELL BASIS 1  34.986 0 0
Info: PERIODIC CELL BASIS 2  0 34.26 0
Info: PERIODIC CELL BASIS 3  0 0 37.195
Info: PERIODIC CELL CENTER   0 0 0
Info: WRAPPING WATERS AROUND PERIODIC BOUNDARIES ON OUTPUT.
Info: WRAPPING ALL CLUSTERS AROUND PERIODIC BOUNDARIES ON OUTPUT.
Info: FIRST LDB TIMESTEP     50
Info: LAST LDB TIMESTEP     -1
Info: HOM BACKGROUND SCALING 1
Info: PME BACKGROUND SCALING 1
Info: MIN ATOMS PER PATCH    40
Info: EMPTY PATCH LOAD       40 ATOMS
Info: INITIAL TEMPERATURE    300
Info: CENTER OF MASS MOVING INITIALLY? NO
Info: DIELECTRIC             1
Info: EXCLUDE                SCALED ONE-FOUR
Info: 1-4 ELECTROSTATICS SCALED BY 0.833333
Info: MODIFIED 1-4 VDW PARAMETERS WILL BE USED
Info: DCD FILENAME           mobley_6812653_equil.dcd
Info: DCD FREQUENCY          100000
Info: DCD FIRST STEP         100000
Info: DCD FILE WILL CONTAIN UNIT CELL DATA
Info: XST FILENAME           mobley_6812653_equil.xst
Info: XST FREQUENCY          100000
Info: NO VELOCITY DCD OUTPUT
Info: NO FORCE DCD OUTPUT
Info: OUTPUT FILENAME        mobley_6812653_equil
Info: BINARY OUTPUT FILES WILL BE USED
Info: RESTART FILENAME       mobley_6812653_equil.restart
Info: RESTART FREQUENCY      100000
Info: BINARY RESTART FILES WILL BE USED
Info: CUTOFF                 9
Info: PAIRLIST DISTANCE      11
Info: PAIRLIST SHRINK RATE   0.01
Info: PAIRLIST GROW RATE     0.01
Info: PAIRLIST TRIGGER       0.3
Info: PAIRLISTS PER CYCLE    2
Info: PAIRLISTS ENABLED
Info: MARGIN                 8
Info: HYDROGEN GROUP CUTOFF  2.5
Info: PATCH DIMENSION        21.5
Info: ENERGY OUTPUT STEPS    100000
Info: ENERGY EVALUATION STEPS    100000
Info: OUTPUT ENERGY PRECISION 4
Info: CROSSTERM ENERGY INCLUDED IN DIHEDRAL
Info: TIMING OUTPUT STEPS    1000000
Info: PRESSURE OUTPUT STEPS  100000
Info: LANGEVIN DYNAMICS ACTIVE
Info: LANGEVIN TEMPERATURE   30
Info: LANGEVIN USING BBK INTEGRATOR
Info: LANGEVIN DAMPING COEFFICIENT IS 1 INVERSE PS
Info: LANGEVIN DYNAMICS APPLIED TO HYDROGENS
Info: LANGEVIN PISTON PRESSURE CONTROL ACTIVE
Info:        TARGET PRESSURE IS 1.01325 BAR
Info:     OSCILLATION PERIOD IS 50 FS
Info:             DECAY TIME IS 25 FS
Info:     PISTON TEMPERATURE IS 300 K
Info:       PRESSURE CONTROL IS GROUP-BASED
Info:    INITIAL STRAIN RATE IS 0 0 0
Info:       CELL FLUCTUATION IS ISOTROPIC
Info: PARTICLE MESH EWALD (PME) ACTIVE
Info: PME TOLERANCE               1e-06
Info: PME EWALD COEFFICIENT       0.348832
Info: PME INTERPOLATION ORDER     4
Info: PME GRID DIMENSIONS         36 36 40
Info: PME MAXIMUM GRID SPACING    1
Info: FULL ELECTROSTATIC EVALUATION FREQUENCY      2
Info: USING VERLET I (r-RESPA) MTS SCHEME.
Info: C1 SPLITTING OF LONG RANGE ELECTROSTATICS
Info: PLACING ATOMS IN PATCHES BY HYDROGEN GROUPS
Info: RIGID BONDS TO HYDROGEN : ALL
Info:         ERROR TOLERANCE : 1e-08
Info:          MAX ITERATIONS : 100
Info: RIGID WATER USING SETTLE ALGORITHM
Info: RANDOM NUMBER SEED     1743251093
Info: USE HYDROGEN BONDS?    NO
Info: Using AMBER format force field!
Info: AMBER PARM FILE        mobley_6812653.prmtop
Info: COORDINATE PDB         mobley_6812653.pdb
Info: Exclusions will be read from PARM file!
Info: SCNB (VDW SCALING)     2
Info: USING ARITHMETIC MEAN TO COMBINE L-J SIGMA PARAMETERS
Info: BINARY COORDINATES     mobley_6812653_min.coor
Info: SUMMARY OF PARAMETERS:
Info: 4 BONDS
Info: 3 ANGLES
Info:   3 HARMONIC
Info:   0 COSINE-BASED
Info: 5 DIHEDRAL
Info: 0 IMPROPER
Info: 0 CROSSTERM
Info: 0 VDW
Info: 10 VDW_PAIRS
Info: 0 NBTHOLE_PAIRS
Info: STRUCTURE SUMMARY:
Info: 2987 ATOMS
Info: 2986 BONDS
Info: 36 ANGLES
Info: 51 DIHEDRALS
Info: 0 IMPROPERS
Info: 0 CROSSTERMS
Info: 3067 EXCLUSIONS
Info: 2981 RIGID BONDS
Info: 5980 DEGREES OF FREEDOM
Info: 995 HYDROGEN GROUPS
Info: 4 ATOMS IN LARGEST HYDROGEN GROUP
Info: 995 MIGRATION GROUPS
Info: 4 ATOMS IN LARGEST MIGRATION GROUP
Info: TOTAL MASS = 17904 amu
Info: TOTAL CHARGE = 0.000399999 e
Info: MASS DENSITY = 0.666873 g/cm^3
Info: ATOM DENSITY = 0.0669991 atoms/A^3
Info: ADDED 0 IMPLICIT EXCLUSIONS
Info: NONBONDED TABLE R-SQUARED SPACING: 0.0625
Info: NONBONDED TABLE SIZE: 705 POINTS
Info: REMOVING COM VELOCITY -0.0940029 -0.074579 -0.0170748
TCL: Running for 100000 steps
ETITLE: TS BOND ANGLE DIHED IMPRP ELECT VDW BOUNDARY MISC KINETIC TOTAL TEMP POTENTIAL TOTAL3 TEMPAVG PRESSURE GPRESSURE VOLUME PRESSAVG GPRESSAVG
ENERGY: 0 0.0584 0.1933 1.2468 0.0000 -13751.6342 2434.3811 0.0000 0.0000 1750.2182 -9565.5364 294.5652 -11315.7546 -9565.1903 294.5652 602.6303 639.5151 44582.6843 602.6303 639.5151
ENERGY: 100000 0.3184 0.9276 1.6902 0.0000 -14367.4860 2486.5000 0.0000 0.0000 180.4437 -11697.6061 30.3690 -11878.0498 -11696.7454 30.9716 -59.5939 13.6586 28798.9198 3.9220 3.8986
TCL: Running 100000 steps at 60 kelvin.
TCL: Setting parameter langevinTemp to 60
TCL: Running for 100000 steps
ETITLE: TS BOND ANGLE DIHED IMPRP ELECT VDW BOUNDARY MISC KINETIC TOTAL TEMP POTENTIAL TOTAL3 TEMPAVG PRESSURE GPRESSURE VOLUME PRESSAVG GPRESSAVG
ENERGY: 100000 0.3184 0.9276 1.6902 0.0000 -14367.4860 2486.5000 0.0000 0.0000 180.3526 -11697.6972 30.3537 -11878.0498 -11697.2831 30.3537 -47.6986 14.1116 28798.9198 -47.6986 14.1116
ENERGY: 200000 0.3223 2.1078 1.5097 0.0000 -14282.6823 2505.0707 0.0000 0.0000 351.0238 -11422.6481 59.0780 -11773.6718 -11421.5201 59.8842 514.9725 589.6975 28611.2938 4.7713 4.6928
TCL: Running 100000 steps at 90 kelvin.
TCL: Setting parameter langevinTemp to 90
TCL: Running for 100000 steps
ETITLE: TS BOND ANGLE DIHED IMPRP ELECT VDW BOUNDARY MISC KINETIC TOTAL TEMP POTENTIAL TOTAL3 TEMPAVG PRESSURE GPRESSURE VOLUME PRESSAVG GPRESSAVG
ENERGY: 200000 0.3223 2.1078 1.5097 0.0000 -14282.6823 2505.0707 0.0000 0.0000 350.8493 -11422.8225 59.0486 -11773.6718 -11422.0733 59.0486 528.5725 589.8606 28611.2938 528.5725 589.8606
ENERGY: 300000 0.2232 2.7913 1.7030 0.0000 -14133.0644 2421.0549 0.0000 0.0000 524.1997 -11183.0924 88.2238 -11707.2921 -11180.7792 90.1288 319.0381 342.3814 28376.0612 4.6975 4.6048
TCL: Running 100000 steps at 120 kelvin.
TCL: Setting parameter langevinTemp to 120
TCL: Running for 100000 steps
ETITLE: TS BOND ANGLE DIHED IMPRP ELECT VDW BOUNDARY MISC KINETIC TOTAL TEMP POTENTIAL TOTAL3 TEMPAVG PRESSURE GPRESSURE VOLUME PRESSAVG GPRESSAVG
ENERGY: 300000 0.2232 2.7913 1.7030 0.0000 -14133.0644 2421.0549 0.0000 0.0000 523.9409 -11183.3512 88.1803 -11707.2921 -11182.1991 88.1803 299.0317 343.0247 28376.0612 299.0317 343.0247
ENERGY: 400000 1.1343 4.2450 1.7962 0.0000 -13762.0638 2195.6155 0.0000 0.0000 701.5175 -10857.7554 118.0668 -11559.2728 -10855.8551 120.0705 -1381.5044 -1289.3677 29075.4442 5.1142 5.1898
TCL: Running 100000 steps at 150 kelvin.
TCL: Setting parameter langevinTemp to 150
TCL: Running for 100000 steps
ETITLE: TS BOND ANGLE DIHED IMPRP ELECT VDW BOUNDARY MISC KINETIC TOTAL TEMP POTENTIAL TOTAL3 TEMPAVG PRESSURE GPRESSURE VOLUME PRESSAVG GPRESSAVG
ENERGY: 400000 1.1343 4.2450 1.7962 0.0000 -13762.0638 2195.6155 0.0000 0.0000 701.1583 -10858.1145 118.0063 -11559.2728 -10856.6488 118.0063 -1341.5399 -1288.9691 29075.4442 -1341.5399 -1288.9691
ENERGY: 500000 0.0764 4.1153 1.7207 0.0000 -13755.7907 2329.8569 0.0000 0.0000 915.6011 -10504.4203 154.0975 -11420.0214 -10502.3064 149.9511 618.3193 657.2542 28598.4763 5.2239 5.2557
TCL: Running 100000 steps at 180 kelvin.
TCL: Setting parameter langevinTemp to 180
TCL: Running for 100000 steps
ETITLE: TS BOND ANGLE DIHED IMPRP ELECT VDW BOUNDARY MISC KINETIC TOTAL TEMP POTENTIAL TOTAL3 TEMPAVG PRESSURE GPRESSURE VOLUME PRESSAVG GPRESSAVG
ENERGY: 500000 0.0764 4.1153 1.7207 0.0000 -13755.7907 2329.8569 0.0000 0.0000 915.1561 -10504.8653 154.0226 -11420.0214 -10503.2014 154.0226 614.3313 657.8967 28598.4763 614.3313 657.8967
ENERGY: 600000 0.6552 5.7692 2.6779 0.0000 -13251.0291 2165.3340 0.0000 0.0000 1082.1891 -9994.4036 182.1346 -11076.5927 -9991.2842 179.6987 192.7874 253.0720 29343.8606 3.0781 2.9616
TCL: Running 100000 steps at 210 kelvin.
TCL: Setting parameter langevinTemp to 210
TCL: Running for 100000 steps
ETITLE: TS BOND ANGLE DIHED IMPRP ELECT VDW BOUNDARY MISC KINETIC TOTAL TEMP POTENTIAL TOTAL3 TEMPAVG PRESSURE GPRESSURE VOLUME PRESSAVG GPRESSAVG
ENERGY: 600000 0.6552 5.7692 2.6779 0.0000 -13251.0291 2165.3340 0.0000 0.0000 1081.6815 -9994.9112 182.0491 -11076.5927 -9993.0904 182.0491 198.7102 254.0666 29343.8606 198.7102 254.0666
ENERGY: 700000 0.6355 6.6560 2.9430 0.0000 -12558.3396 1890.8502 0.0000 0.0000 1231.7628 -9425.4921 207.3081 -10657.2549 -9422.2110 209.6969 -361.7485 -259.1713 29126.7612 3.4505 3.5097
TCL: Running 100000 steps at 240 kelvin.
TCL: Setting parameter langevinTemp to 240
TCL: Running for 100000 steps
ETITLE: TS BOND ANGLE DIHED IMPRP ELECT VDW BOUNDARY MISC KINETIC TOTAL TEMP POTENTIAL TOTAL3 TEMPAVG PRESSURE GPRESSURE VOLUME PRESSAVG GPRESSAVG
ENERGY: 700000 0.6355 6.6560 2.9430 0.0000 -12558.3396 1890.8502 0.0000 0.0000 1231.1399 -9426.1150 207.2033 -10657.2549 -9423.4890 207.2033 -336.5833 -260.2007 29126.7612 -336.5833 -260.2007
ENERGY: 800000 0.6860 5.7962 1.7957 0.0000 -11963.8966 1796.8523 0.0000 0.0000 1465.7558 -8693.0106 246.6896 -10158.7664 -8689.4553 239.7164 603.9931 685.3331 29330.4895 2.5068 2.6530
TCL: Running 100000 steps at 270 kelvin.
TCL: Setting parameter langevinTemp to 270
TCL: Running for 100000 steps
ETITLE: TS BOND ANGLE DIHED IMPRP ELECT VDW BOUNDARY MISC KINETIC TOTAL TEMP POTENTIAL TOTAL3 TEMPAVG PRESSURE GPRESSURE VOLUME PRESSAVG GPRESSAVG
ENERGY: 800000 0.6860 5.7962 1.7957 0.0000 -11963.8966 1796.8523 0.0000 0.0000 1465.0563 -8693.7101 246.5719 -10158.7664 -8692.0131 246.5719 601.0447 684.1469 29330.4895 601.0447 684.1469
ENERGY: 900000 1.4154 8.5038 2.0536 0.0000 -11389.4441 1621.1885 0.0000 0.0000 1642.1669 -8114.1159 276.3799 -9756.2828 -8110.2604 270.3747 366.6501 451.3569 29863.3466 3.6181 3.6722
TCL: Running 1000000 steps at 300 kelvin.
TCL: Setting parameter langevinTemp to 300
TCL: Running for 1000000 steps
ETITLE: TS BOND ANGLE DIHED IMPRP ELECT VDW BOUNDARY MISC KINETIC TOTAL TEMP POTENTIAL TOTAL3 TEMPAVG PRESSURE GPRESSURE VOLUME PRESSAVG GPRESSAVG
ENERGY: 900000 1.4154 8.5038 2.0536 0.0000 -11389.4441 1621.1885 0.0000 0.0000 1641.3767 -8114.9060 276.2469 -9756.2828 -8111.9153 276.2469 368.7276 452.1553 29863.3466 368.7276 452.1553
ENERGY: 1100000 2.1832 9.1597 3.7723 0.0000 -10640.6256 1340.3941 0.0000 0.0000 1783.5168 -7501.5995 300.1694 -9285.1163 -7497.6038 300.3242 -765.1191 -708.8707 31181.1006 2.6238 2.5782
ENERGY: 1300000 2.4130 8.5127 2.6522 0.0000 -10590.5593 1309.4966 0.0000 0.0000 1744.8325 -7522.6522 293.6587 -9267.4847 -7520.6740 300.4465 -824.4822 -765.2758 30635.0643 3.2756 3.2421
ENERGY: 1500000 1.5281 10.3307 2.1261 0.0000 -10760.5061 1477.9107 0.0000 0.0000 1759.2842 -7509.3262 296.0910 -9268.6104 -7503.6127 300.6414 174.1916 213.7107 31062.0887 2.6545 2.5051
ENERGY: 1700000 2.3611 13.5509 2.5568 0.0000 -10640.6491 1326.4935 0.0000 0.0000 1795.5506 -7500.1362 302.1947 -9295.6868 -7494.1454 300.4814 -794.7001 -729.8090 30857.8472 2.2268 2.1217
ENERGY: 1900000 0.5532 7.6877 2.0538 0.0000 -10793.0171 1390.1071 0.0000 0.0000 1744.4702 -7648.1452 293.5978 -9392.6154 -7644.5277 300.0368 -820.4436 -706.1015 30992.7249 1.8787 1.7415
TCL: Exiting due to exit command.
