Info: SIMULATION PARAMETERS:
Info: TIMESTEP               2
Info: NUMBER OF STEPS        0
Info: STEPS PER CYCLE        10
Info: PERIODIC CELL BASIS 1  35.89 0 0
Info: PERIODIC CELL BASIS 2  0 34.457 0
Info: PERIODIC CELL BASIS 3  0 0 35.723
Info: PERIODIC CELL CENTER   0 0 0
Info: WRAPPING WATERS AROUND PERIODIC BOUNDARIES ON OUTPUT.
Info: WRAPPING ALL CLUSTERS AROUND PERIODIC BOUNDARIES ON OUTPUT.
Info: FIRST LDB TIMESTEP     50
Info: LAST LDB TIMESTEP     -1
Info: HOM BACKGROUND SCALING 1
Info: PME BACKGROUND SCALING 1
Info: MIN ATOMS PER PATCH    40
Info: EMPTY PATCH LOAD       40 ATOMS
Info: INITIAL TEMPERATURE    300
Info: CENTER OF MASS MOVING INITIALLY? NO
Info: DIELECTRIC             1
Info: EXCLUDE                SCALED ONE-FOUR
Info: 1-4 ELECTROSTATICS SCALED BY 0.833333
Info: MODIFIED 1-4 VDW PARAMETERS WILL BE USED
Info: DCD FILENAME           mobley_5200358_equil.dcd
Info: DCD FREQUENCY          100000
Info: DCD FIRST STEP         100000
Info: DCD FILE WILL CONTAIN UNIT CELL DATA
Info: XST FILENAME           mobley_5200358_equil.xst
Info: XST FREQUENCY          100000
Info: NO VELOCITY DCD OUTPUT
Info: NO FORCE DCD OUTPUT
Info: OUTPUT FILENAME        mobley_5200358_equil
Info: BINARY OUTPUT FILES WILL BE USED
Info: RESTART FILENAME       mobley_5200358_equil.restart
Info: RESTART FREQUENCY      100000
Info: BINARY RESTART FILES WILL BE USED
Info: CUTOFF                 9
Info: PAIRLIST DISTANCE      11
Info: PAIRLIST SHRINK RATE   0.01
Info: PAIRLIST GROW RATE     0.01
Info: PAIRLIST TRIGGER       0.3
Info: PAIRLISTS PER CYCLE    2
Info: PAIRLISTS ENABLED
Info: MARGIN                 8
Info: HYDROGEN GROUP CUTOFF  2.5
Info: PATCH DIMENSION        21.5
Info: ENERGY OUTPUT STEPS    100000
Info: ENERGY EVALUATION STEPS    100000
Info: OUTPUT ENERGY PRECISION 4
Info: CROSSTERM ENERGY INCLUDED IN DIHEDRAL
Info: TIMING OUTPUT STEPS    1000000
Info: PRESSURE OUTPUT STEPS  100000
Info: LANGEVIN DYNAMICS ACTIVE
Info: LANGEVIN TEMPERATURE   30
Info: LANGEVIN USING BBK INTEGRATOR
Info: LANGEVIN DAMPING COEFFICIENT IS 1 INVERSE PS
Info: LANGEVIN DYNAMICS APPLIED TO HYDROGENS
Info: LANGEVIN PISTON PRESSURE CONTROL ACTIVE
Info:        TARGET PRESSURE IS 1.01325 BAR
Info:     OSCILLATION PERIOD IS 50 FS
Info:             DECAY TIME IS 25 FS
Info:     PISTON TEMPERATURE IS 300 K
Info:       PRESSURE CONTROL IS GROUP-BASED
Info:    INITIAL STRAIN RATE IS 0 0 0
Info:       CELL FLUCTUATION IS ISOTROPIC
Info: PARTICLE MESH EWALD (PME) ACTIVE
Info: PME TOLERANCE               1e-06
Info: PME EWALD COEFFICIENT       0.348832
Info: PME INTERPOLATION ORDER     4
Info: PME GRID DIMENSIONS         36 36 36
Info: PME MAXIMUM GRID SPACING    1
Info: FULL ELECTROSTATIC EVALUATION FREQUENCY      2
Info: USING VERLET I (r-RESPA) MTS SCHEME.
Info: C1 SPLITTING OF LONG RANGE ELECTROSTATICS
Info: PLACING ATOMS IN PATCHES BY HYDROGEN GROUPS
Info: RIGID BONDS TO HYDROGEN : ALL
Info:         ERROR TOLERANCE : 1e-08
Info:          MAX ITERATIONS : 100
Info: RIGID WATER USING SETTLE ALGORITHM
Info: RANDOM NUMBER SEED     1743252712
Info: USE HYDROGEN BONDS?    NO
Info: Using AMBER format force field!
Info: AMBER PARM FILE        mobley_5200358.prmtop
Info: COORDINATE PDB         mobley_5200358.pdb
Info: Exclusions will be read from PARM file!
Info: SCNB (VDW SCALING)     2
Info: USING ARITHMETIC MEAN TO COMBINE L-J SIGMA PARAMETERS
Info: BINARY COORDINATES     mobley_5200358_min.coor
Info: SUMMARY OF PARAMETERS:
Info: 15 BONDS
Info: 21 ANGLES
Info:   21 HARMONIC
Info:   0 COSINE-BASED
Info: 10 DIHEDRAL
Info: 0 IMPROPER
Info: 0 CROSSTERM
Info: 0 VDW
Info: 78 VDW_PAIRS
Info: 0 NBTHOLE_PAIRS
Info: STRUCTURE SUMMARY:
Info: 2903 ATOMS
Info: 2902 BONDS
Info: 42 ANGLES
Info: 49 DIHEDRALS
Info: 0 IMPROPERS
Info: 0 CROSSTERMS
Info: 2989 EXCLUSIONS
Info: 2891 RIGID BONDS
Info: 5818 DEGREES OF FREEDOM
Info: 971 HYDROGEN GROUPS
Info: 4 ATOMS IN LARGEST HYDROGEN GROUP
Info: 971 MIGRATION GROUPS
Info: 4 ATOMS IN LARGEST MIGRATION GROUP
Info: TOTAL MASS = 17467.6 amu
Info: TOTAL CHARGE = 0.000200003 e
Info: MASS DENSITY = 0.656589 g/cm^3
Info: ATOM DENSITY = 0.0657125 atoms/A^3
Info: ADDED 0 IMPLICIT EXCLUSIONS
Info: NONBONDED TABLE R-SQUARED SPACING: 0.0625
Info: NONBONDED TABLE SIZE: 705 POINTS
Info: REMOVING COM VELOCITY -0.138514 0.121394 0.101708
TCL: Running for 100000 steps
ETITLE: TS BOND ANGLE DIHED IMPRP ELECT VDW BOUNDARY MISC KINETIC TOTAL TEMP POTENTIAL TOTAL3 TEMPAVG PRESSURE GPRESSURE VOLUME PRESSAVG GPRESSAVG
ENERGY: 0 0.7804 3.8924 0.2865 0.0000 -13326.4304 2351.9759 0.0000 0.0000 1726.9981 -9242.4971 298.7504 -10969.4952 -9242.1516 298.7504 422.5270 464.8381 44177.2670 422.5270 464.8381
ENERGY: 100000 0.9147 5.5637 0.1625 0.0000 -13974.2940 2472.0760 0.0000 0.0000 177.8878 -11317.6895 30.7725 -11495.5772 -11317.2274 30.9929 483.5402 536.6147 28202.9517 5.1793 5.1220
TCL: Running 100000 steps at 60 kelvin.
TCL: Setting parameter langevinTemp to 60
TCL: Running for 100000 steps
ETITLE: TS BOND ANGLE DIHED IMPRP ELECT VDW BOUNDARY MISC KINETIC TOTAL TEMP POTENTIAL TOTAL3 TEMPAVG PRESSURE GPRESSURE VOLUME PRESSAVG GPRESSAVG
ENERGY: 100000 0.9147 5.5637 0.1625 0.0000 -13974.2940 2472.0760 0.0000 0.0000 177.8040 -11317.7732 30.7580 -11495.5772 -11317.3841 30.7580 479.4496 536.5923 28202.9517 479.4496 536.5923
ENERGY: 200000 1.1454 6.3124 1.1606 0.0000 -13851.6546 2397.1470 0.0000 0.0000 344.5066 -11101.3826 59.5956 -11445.8892 -11100.4747 59.9245 238.1928 309.5788 27990.0314 4.0524 4.0450
TCL: Running 100000 steps at 90 kelvin.
TCL: Setting parameter langevinTemp to 90
TCL: Running for 100000 steps
ETITLE: TS BOND ANGLE DIHED IMPRP ELECT VDW BOUNDARY MISC KINETIC TOTAL TEMP POTENTIAL TOTAL3 TEMPAVG PRESSURE GPRESSURE VOLUME PRESSAVG GPRESSAVG
ENERGY: 200000 1.1454 6.3124 1.1606 0.0000 -13851.6546 2397.1470 0.0000 0.0000 344.3351 -11101.5541 59.5659 -11445.8892 -11100.7483 59.5659 241.5981 309.2023 27990.0314 241.5981 309.2023
ENERGY: 300000 3.0219 6.2071 2.3856 0.0000 -13646.6034 2299.8586 0.0000 0.0000 493.1612 -10841.9691 85.3111 -11335.1303 -10840.7748 89.9227 -186.5792 -116.1480 28045.5718 3.4200 3.5881
TCL: Running 100000 steps at 120 kelvin.
TCL: Setting parameter langevinTemp to 120
TCL: Running for 100000 steps
ETITLE: TS BOND ANGLE DIHED IMPRP ELECT VDW BOUNDARY MISC KINETIC TOTAL TEMP POTENTIAL TOTAL3 TEMPAVG PRESSURE GPRESSURE VOLUME PRESSAVG GPRESSAVG
ENERGY: 300000 3.0219 6.2071 2.3856 0.0000 -13646.6034 2299.8586 0.0000 0.0000 492.9108 -10842.2195 85.2678 -11335.1303 -10841.2628 85.2678 -176.5020 -116.0896 28045.5718 -176.5020 -116.0896
ENERGY: 400000 1.1982 7.4455 1.6299 0.0000 -13539.3960 2311.8835 0.0000 0.0000 722.5565 -10494.6824 124.9938 -11217.2390 -10492.0346 119.7300 459.1232 537.6316 28047.8082 3.6851 3.6382
TCL: Running 100000 steps at 150 kelvin.
TCL: Setting parameter langevinTemp to 150
TCL: Running for 100000 steps
ETITLE: TS BOND ANGLE DIHED IMPRP ELECT VDW BOUNDARY MISC KINETIC TOTAL TEMP POTENTIAL TOTAL3 TEMPAVG PRESSURE GPRESSURE VOLUME PRESSAVG GPRESSAVG
ENERGY: 400000 1.1982 7.4455 1.6299 0.0000 -13539.3960 2311.8835 0.0000 0.0000 722.2137 -10495.0253 124.9345 -11217.2390 -10493.4601 124.9345 477.1376 538.3158 28047.8082 477.1376 538.3158
ENERGY: 500000 1.0234 8.5295 2.3131 0.0000 -13448.4754 2364.7922 0.0000 0.0000 879.2711 -10192.5460 152.1036 -11071.8171 -10189.7858 150.1906 1547.1839 1642.2251 27874.5809 3.3483 3.4075
TCL: Running 100000 steps at 180 kelvin.
TCL: Setting parameter langevinTemp to 180
TCL: Running for 100000 steps
ETITLE: TS BOND ANGLE DIHED IMPRP ELECT VDW BOUNDARY MISC KINETIC TOTAL TEMP POTENTIAL TOTAL3 TEMPAVG PRESSURE GPRESSURE VOLUME PRESSAVG GPRESSAVG
ENERGY: 500000 1.0234 8.5295 2.3131 0.0000 -13448.4754 2364.7922 0.0000 0.0000 878.8432 -10192.9739 152.0296 -11071.8171 -10191.1502 152.0296 1585.2253 1641.7601 27874.5809 1585.2253 1641.7601
ENERGY: 600000 3.8667 9.9923 1.9941 0.0000 -12723.9105 1988.2188 0.0000 0.0000 1021.8797 -9697.9589 176.7732 -10719.8386 -9695.2191 179.7739 -620.2748 -544.9181 28373.5159 3.2954 3.4432
TCL: Running 100000 steps at 210 kelvin.
TCL: Setting parameter langevinTemp to 210
TCL: Running for 100000 steps
ETITLE: TS BOND ANGLE DIHED IMPRP ELECT VDW BOUNDARY MISC KINETIC TOTAL TEMP POTENTIAL TOTAL3 TEMPAVG PRESSURE GPRESSURE VOLUME PRESSAVG GPRESSAVG
ENERGY: 600000 3.8667 9.9923 1.9941 0.0000 -12723.9105 1988.2188 0.0000 0.0000 1021.3452 -9698.4935 176.6807 -10719.8386 -9696.7419 176.6807 -606.6107 -543.8633 28373.5159 -606.6107 -543.8633
ENERGY: 700000 5.6179 7.9995 1.9629 0.0000 -12063.7616 1755.4470 0.0000 0.0000 1193.5207 -9099.2137 206.4651 -10292.7344 -9098.0653 209.8784 -1090.6691 -963.7581 28482.3484 2.2585 2.4235
TCL: Running 100000 steps at 240 kelvin.
TCL: Setting parameter langevinTemp to 240
TCL: Running for 100000 steps
ETITLE: TS BOND ANGLE DIHED IMPRP ELECT VDW BOUNDARY MISC KINETIC TOTAL TEMP POTENTIAL TOTAL3 TEMPAVG PRESSURE GPRESSURE VOLUME PRESSAVG GPRESSAVG
ENERGY: 700000 5.6179 7.9995 1.9629 0.0000 -12063.7616 1755.4470 0.0000 0.0000 1192.9210 -9099.8134 206.3613 -10292.7344 -9097.4757 206.3613 -1057.5938 -964.9661 28482.3484 -1057.5938 -964.9661
ENERGY: 800000 4.7112 12.4332 2.7845 0.0000 -11557.9263 1698.5905 0.0000 0.0000 1379.2538 -8460.1531 238.5947 -9839.4069 -8457.8501 239.8541 11.6308 78.2832 28789.3307 2.3505 2.3552
TCL: Running 100000 steps at 270 kelvin.
TCL: Setting parameter langevinTemp to 270
TCL: Running for 100000 steps
ETITLE: TS BOND ANGLE DIHED IMPRP ELECT VDW BOUNDARY MISC KINETIC TOTAL TEMP POTENTIAL TOTAL3 TEMPAVG PRESSURE GPRESSURE VOLUME PRESSAVG GPRESSAVG
ENERGY: 800000 4.7112 12.4332 2.7845 0.0000 -11557.9263 1698.5905 0.0000 0.0000 1378.5405 -8460.8664 238.4713 -9839.4069 -8458.5003 238.4713 -10.1517 77.2651 28789.3307 -10.1517 77.2651
ENERGY: 900000 2.8927 8.1345 5.2225 0.0000 -10916.1944 1437.1924 0.0000 0.0000 1553.0466 -7909.7058 268.6588 -9462.7524 -7906.2966 270.0553 -570.5204 -452.0772 28963.2217 3.9176 3.8962
TCL: Running 1000000 steps at 300 kelvin.
TCL: Setting parameter langevinTemp to 300
TCL: Running for 1000000 steps
ETITLE: TS BOND ANGLE DIHED IMPRP ELECT VDW BOUNDARY MISC KINETIC TOTAL TEMP POTENTIAL TOTAL3 TEMPAVG PRESSURE GPRESSURE VOLUME PRESSAVG GPRESSAVG
ENERGY: 900000 2.8927 8.1345 5.2225 0.0000 -10916.1944 1437.1924 0.0000 0.0000 1552.2641 -7910.4883 268.5235 -9462.7524 -7907.0948 268.5235 -538.6551 -452.4769 28963.2217 -538.6551 -452.4769
ENERGY: 1100000 6.0246 15.2084 3.0038 0.0000 -10392.6853 1383.4657 0.0000 0.0000 1747.1629 -7237.8198 302.2387 -8984.9827 -7236.4740 300.4523 -26.4968 92.9488 29909.3200 2.7124 2.4829
ENERGY: 1300000 7.3922 12.6756 4.7609 0.0000 -10415.3226 1291.3381 0.0000 0.0000 1736.4997 -7362.6560 300.3941 -9099.1557 -7357.5812 299.8464 -824.4741 -771.3949 29808.5929 2.1436 2.2993
ENERGY: 1500000 4.0558 14.7603 4.0581 0.0000 -10344.2007 1323.4183 0.0000 0.0000 1723.1592 -7274.7489 298.0863 -8997.9082 -7269.8635 299.8371 -466.5146 -450.5882 30133.8332 3.4940 3.5261
ENERGY: 1700000 5.0636 10.4434 1.9485 0.0000 -10482.6960 1371.1116 0.0000 0.0000 1717.6308 -7376.4981 297.1300 -9094.1289 -7372.7262 299.9440 -389.5228 -271.9205 29795.0208 3.8755 3.6643
ENERGY: 1900000 2.4296 16.0157 2.4639 0.0000 -10543.1860 1458.6020 0.0000 0.0000 1698.0390 -7365.6358 293.7408 -9063.6748 -7362.5967 300.0953 383.6688 428.7177 30212.3233 3.3611 3.5633
TCL: Exiting due to exit command.
