Info: SIMULATION PARAMETERS:
Info: TIMESTEP               2
Info: NUMBER OF STEPS        0
Info: STEPS PER CYCLE        10
Info: PERIODIC CELL BASIS 1  36.592 0 0
Info: PERIODIC CELL BASIS 2  0 35.779 0
Info: PERIODIC CELL BASIS 3  0 0 34.229
Info: PERIODIC CELL CENTER   0 0 0
Info: WRAPPING WATERS AROUND PERIODIC BOUNDARIES ON OUTPUT.
Info: WRAPPING ALL CLUSTERS AROUND PERIODIC BOUNDARIES ON OUTPUT.
Info: FIRST LDB TIMESTEP     50
Info: LAST LDB TIMESTEP     -1
Info: HOM BACKGROUND SCALING 1
Info: PME BACKGROUND SCALING 1
Info: MIN ATOMS PER PATCH    40
Info: EMPTY PATCH LOAD       40 ATOMS
Info: INITIAL TEMPERATURE    300
Info: CENTER OF MASS MOVING INITIALLY? NO
Info: DIELECTRIC             1
Info: EXCLUDE                SCALED ONE-FOUR
Info: 1-4 ELECTROSTATICS SCALED BY 0.833333
Info: MODIFIED 1-4 VDW PARAMETERS WILL BE USED
Info: DCD FILENAME           mobley_5263791_equil.dcd
Info: DCD FREQUENCY          100000
Info: DCD FIRST STEP         100000
Info: DCD FILE WILL CONTAIN UNIT CELL DATA
Info: XST FILENAME           mobley_5263791_equil.xst
Info: XST FREQUENCY          100000
Info: NO VELOCITY DCD OUTPUT
Info: NO FORCE DCD OUTPUT
Info: OUTPUT FILENAME        mobley_5263791_equil
Info: BINARY OUTPUT FILES WILL BE USED
Info: RESTART FILENAME       mobley_5263791_equil.restart
Info: RESTART FREQUENCY      100000
Info: BINARY RESTART FILES WILL BE USED
Info: CUTOFF                 9
Info: PAIRLIST DISTANCE      11
Info: PAIRLIST SHRINK RATE   0.01
Info: PAIRLIST GROW RATE     0.01
Info: PAIRLIST TRIGGER       0.3
Info: PAIRLISTS PER CYCLE    2
Info: PAIRLISTS ENABLED
Info: MARGIN                 8
Info: HYDROGEN GROUP CUTOFF  2.5
Info: PATCH DIMENSION        21.5
Info: ENERGY OUTPUT STEPS    100000
Info: ENERGY EVALUATION STEPS    100000
Info: OUTPUT ENERGY PRECISION 4
Info: CROSSTERM ENERGY INCLUDED IN DIHEDRAL
Info: TIMING OUTPUT STEPS    1000000
Info: PRESSURE OUTPUT STEPS  100000
Info: LANGEVIN DYNAMICS ACTIVE
Info: LANGEVIN TEMPERATURE   30
Info: LANGEVIN USING BBK INTEGRATOR
Info: LANGEVIN DAMPING COEFFICIENT IS 1 INVERSE PS
Info: LANGEVIN DYNAMICS APPLIED TO HYDROGENS
Info: LANGEVIN PISTON PRESSURE CONTROL ACTIVE
Info:        TARGET PRESSURE IS 1.01325 BAR
Info:     OSCILLATION PERIOD IS 50 FS
Info:             DECAY TIME IS 25 FS
Info:     PISTON TEMPERATURE IS 300 K
Info:       PRESSURE CONTROL IS GROUP-BASED
Info:    INITIAL STRAIN RATE IS 0 0 0
Info:       CELL FLUCTUATION IS ISOTROPIC
Info: PARTICLE MESH EWALD (PME) ACTIVE
Info: PME TOLERANCE               1e-06
Info: PME EWALD COEFFICIENT       0.348832
Info: PME INTERPOLATION ORDER     4
Info: PME GRID DIMENSIONS         40 36 36
Info: PME MAXIMUM GRID SPACING    1
Info: FULL ELECTROSTATIC EVALUATION FREQUENCY      2
Info: USING VERLET I (r-RESPA) MTS SCHEME.
Info: C1 SPLITTING OF LONG RANGE ELECTROSTATICS
Info: PLACING ATOMS IN PATCHES BY HYDROGEN GROUPS
Info: RIGID BONDS TO HYDROGEN : ALL
Info:         ERROR TOLERANCE : 1e-08
Info:          MAX ITERATIONS : 100
Info: RIGID WATER USING SETTLE ALGORITHM
Info: RANDOM NUMBER SEED     1743237672
Info: USE HYDROGEN BONDS?    NO
Info: Using AMBER format force field!
Info: AMBER PARM FILE        mobley_5263791.prmtop
Info: COORDINATE PDB         mobley_5263791.pdb
Info: Exclusions will be read from PARM file!
Info: SCNB (VDW SCALING)     2
Info: USING ARITHMETIC MEAN TO COMBINE L-J SIGMA PARAMETERS
Info: BINARY COORDINATES     mobley_5263791_min.coor
Info: SUMMARY OF PARAMETERS:
Info: 7 BONDS
Info: 7 ANGLES
Info: 5 DIHEDRAL
Info: 0 IMPROPER
Info: 0 CROSSTERM
Info: 0 VDW
Info: 21 VDW_PAIRS
Info: 0 NBTHOLE_PAIRS
Info: STRUCTURE SUMMARY:
Info: 2943 ATOMS
Info: 2944 BONDS
Info: 42 ANGLES
Info: 69 DIHEDRALS
Info: 0 IMPROPERS
Info: 0 CROSSTERMS
Info: 3039 EXCLUSIONS
Info: 2931 RIGID BONDS
Info: 5898 DEGREES OF FREEDOM
Info: 985 HYDROGEN GROUPS
Info: 4 ATOMS IN LARGEST HYDROGEN GROUP
Info: 985 MIGRATION GROUPS
Info: 4 ATOMS IN LARGEST MIGRATION GROUP
Info: TOTAL MASS = 17685.8 amu
Info: TOTAL CHARGE = 9.99849e-05 e
Info: MASS DENSITY = 0.655353 g/cm^3
Info: ATOM DENSITY = 0.0656722 atoms/A^3
Info: ADDED 0 IMPLICIT EXCLUSIONS
Info: NONBONDED TABLE R-SQUARED SPACING: 0.0625
Info: NONBONDED TABLE SIZE: 705 POINTS
Info: REMOVING COM VELOCITY 0.0309804 0.0597288 0.0393505
TCL: Running for 100000 steps
ETITLE: TS BOND ANGLE DIHED IMPRP ELECT VDW BOUNDARY MISC KINETIC TOTAL TEMP POTENTIAL TOTAL3 TEMPAVG PRESSURE GPRESSURE VOLUME PRESSAVG GPRESSAVG
ENERGY: 0 0.6377 0.6842 0.0510 0.0000 -13513.5862 2369.9361 0.0000 0.0000 1775.2950 -9366.9823 302.9397 -11142.2772 -9366.6175 302.9397 334.7314 361.9500 44813.4683 334.7314 361.9500
ENERGY: 100000 0.5539 1.3971 0.3783 0.0000 -14078.9117 2420.0682 0.0000 0.0000 176.6522 -11479.8620 30.1443 -11656.5142 -11479.2496 30.9601 -60.0666 -6.6887 28618.6914 5.5902 5.5931
TCL: Running 100000 steps at 60 kelvin.
TCL: Setting parameter langevinTemp to 60
TCL: Running for 100000 steps
ETITLE: TS BOND ANGLE DIHED IMPRP ELECT VDW BOUNDARY MISC KINETIC TOTAL TEMP POTENTIAL TOTAL3 TEMPAVG PRESSURE GPRESSURE VOLUME PRESSAVG GPRESSAVG
ENERGY: 100000 0.5539 1.3971 0.3783 0.0000 -14078.9117 2420.0682 0.0000 0.0000 176.5647 -11479.9495 30.1293 -11656.5142 -11479.5664 30.1293 -62.2202 -6.8031 28618.6914 -62.2202 -6.8031
ENERGY: 200000 0.7705 1.9458 1.2011 0.0000 -13899.4503 2310.6101 0.0000 0.0000 355.5811 -11229.3416 60.6770 -11584.9227 -11228.5512 59.8715 -778.5860 -691.2204 28712.4030 4.1270 4.1827
TCL: Running 100000 steps at 90 kelvin.
TCL: Setting parameter langevinTemp to 90
TCL: Running for 100000 steps
ETITLE: TS BOND ANGLE DIHED IMPRP ELECT VDW BOUNDARY MISC KINETIC TOTAL TEMP POTENTIAL TOTAL3 TEMPAVG PRESSURE GPRESSURE VOLUME PRESSAVG GPRESSAVG
ENERGY: 200000 0.7705 1.9458 1.2011 0.0000 -13899.4503 2310.6101 0.0000 0.0000 355.4059 -11229.5169 60.6471 -11584.9227 -11228.5847 60.6471 -767.0646 -691.4850 28712.4030 -767.0646 -691.4850
ENERGY: 300000 1.5990 2.6711 2.5242 0.0000 -14045.3646 2556.0033 0.0000 0.0000 520.9365 -10961.6304 88.8936 -11482.5669 -10960.9870 90.0012 1682.0328 1696.7978 28548.7834 4.9775 4.8503
TCL: Running 100000 steps at 120 kelvin.
TCL: Setting parameter langevinTemp to 120
TCL: Running for 100000 steps
ETITLE: TS BOND ANGLE DIHED IMPRP ELECT VDW BOUNDARY MISC KINETIC TOTAL TEMP POTENTIAL TOTAL3 TEMPAVG PRESSURE GPRESSURE VOLUME PRESSAVG GPRESSAVG
ENERGY: 300000 1.5990 2.6711 2.5242 0.0000 -14045.3646 2556.0033 0.0000 0.0000 520.6777 -10961.8893 88.8494 -11482.5669 -10961.0692 88.8494 1643.9118 1697.0336 28548.7834 1643.9118 1697.0336
ENERGY: 400000 2.0326 5.2060 1.7218 0.0000 -13746.2305 2360.3059 0.0000 0.0000 672.5035 -10704.4607 114.7573 -11376.9642 -10703.2637 119.7812 318.9163 396.4302 28573.7589 4.7064 4.6827
TCL: Running 100000 steps at 150 kelvin.
TCL: Setting parameter langevinTemp to 150
TCL: Running for 100000 steps
ETITLE: TS BOND ANGLE DIHED IMPRP ELECT VDW BOUNDARY MISC KINETIC TOTAL TEMP POTENTIAL TOTAL3 TEMPAVG PRESSURE GPRESSURE VOLUME PRESSAVG GPRESSAVG
ENERGY: 400000 2.0326 5.2060 1.7218 0.0000 -13746.2305 2360.3059 0.0000 0.0000 672.1650 -10704.7992 114.6995 -11376.9642 -10703.6030 114.6995 326.7842 395.7925 28573.7589 326.7842 395.7925
ENERGY: 500000 1.9965 4.1606 4.1239 0.0000 -13418.7434 2212.1117 0.0000 0.0000 859.1769 -10337.1738 146.6116 -11196.3507 -10334.6762 149.7560 -449.4946 -374.3433 29007.0333 2.9609 2.9022
TCL: Running 100000 steps at 180 kelvin.
TCL: Setting parameter langevinTemp to 180
TCL: Running for 100000 steps
ETITLE: TS BOND ANGLE DIHED IMPRP ELECT VDW BOUNDARY MISC KINETIC TOTAL TEMP POTENTIAL TOTAL3 TEMPAVG PRESSURE GPRESSURE VOLUME PRESSAVG GPRESSAVG
ENERGY: 500000 1.9965 4.1606 4.1239 0.0000 -13418.7434 2212.1117 0.0000 0.0000 858.7554 -10337.5953 146.5396 -11196.3507 -10335.9441 146.5396 -442.2017 -372.6816 29007.0333 -442.2017 -372.6816
ENERGY: 600000 3.0669 3.9375 3.2811 0.0000 -13012.1168 2129.8026 0.0000 0.0000 1086.3186 -9785.7102 185.3714 -10872.0288 -9783.5238 180.3178 467.6458 520.4337 28480.7615 4.2478 4.2993
TCL: Running 100000 steps at 210 kelvin.
TCL: Setting parameter langevinTemp to 210
TCL: Running for 100000 steps
ETITLE: TS BOND ANGLE DIHED IMPRP ELECT VDW BOUNDARY MISC KINETIC TOTAL TEMP POTENTIAL TOTAL3 TEMPAVG PRESSURE GPRESSURE VOLUME PRESSAVG GPRESSAVG
ENERGY: 600000 3.0669 3.9375 3.2811 0.0000 -13012.1168 2129.8026 0.0000 0.0000 1085.7982 -9786.2306 185.2826 -10872.0288 -9783.9070 185.2826 432.7390 521.0446 28480.7615 432.7390 521.0446
ENERGY: 700000 3.4493 3.6211 2.3503 0.0000 -12361.7606 1901.2196 0.0000 0.0000 1243.1849 -9207.9354 212.1394 -10451.1203 -9204.1002 209.6634 103.8475 214.8845 28697.2813 5.5039 5.5279
TCL: Running 100000 steps at 240 kelvin.
TCL: Setting parameter langevinTemp to 240
TCL: Running for 100000 steps
ETITLE: TS BOND ANGLE DIHED IMPRP ELECT VDW BOUNDARY MISC KINETIC TOTAL TEMP POTENTIAL TOTAL3 TEMPAVG PRESSURE GPRESSURE VOLUME PRESSAVG GPRESSAVG
ENERGY: 700000 3.4493 3.6211 2.3503 0.0000 -12361.7606 1901.2196 0.0000 0.0000 1242.5648 -9208.5555 212.0336 -10451.1203 -9206.6117 212.0336 133.4104 217.4570 28697.2813 133.4104 217.4570
ENERGY: 800000 6.3920 5.2694 3.3994 0.0000 -11622.5843 1630.5694 0.0000 0.0000 1426.3446 -8550.6094 243.3941 -9976.9540 -8547.0849 240.1829 -866.9612 -730.5720 29086.2832 1.7648 1.7546
TCL: Running 100000 steps at 270 kelvin.
TCL: Setting parameter langevinTemp to 270
TCL: Running for 100000 steps
ETITLE: TS BOND ANGLE DIHED IMPRP ELECT VDW BOUNDARY MISC KINETIC TOTAL TEMP POTENTIAL TOTAL3 TEMPAVG PRESSURE GPRESSURE VOLUME PRESSAVG GPRESSAVG
ENERGY: 800000 6.3920 5.2694 3.3994 0.0000 -11622.5843 1630.5694 0.0000 0.0000 1425.6571 -8551.2969 243.2768 -9976.9540 -8549.4316 243.2768 -808.5713 -729.5435 29086.2832 -808.5713 -729.5435
ENERGY: 900000 0.8270 6.2198 2.7440 0.0000 -11079.5279 1489.9631 0.0000 0.0000 1588.5183 -7991.2558 271.0677 -9579.7741 -7987.8867 269.9358 -385.7100 -354.8885 29721.5320 3.7032 3.7669
TCL: Running 1000000 steps at 300 kelvin.
TCL: Setting parameter langevinTemp to 300
TCL: Running for 1000000 steps
ETITLE: TS BOND ANGLE DIHED IMPRP ELECT VDW BOUNDARY MISC KINETIC TOTAL TEMP POTENTIAL TOTAL3 TEMPAVG PRESSURE GPRESSURE VOLUME PRESSAVG GPRESSAVG
ENERGY: 900000 0.8270 6.2198 2.7440 0.0000 -11079.5279 1489.9631 0.0000 0.0000 1587.7257 -7992.0484 270.9325 -9579.7741 -7989.2292 270.9325 -431.6058 -354.8208 29721.5320 -431.6058 -354.8208
ENERGY: 1100000 8.0624 15.0868 4.8441 0.0000 -10738.7718 1517.0739 0.0000 0.0000 1778.6691 -7415.0356 303.5154 -9193.7047 -7408.6945 299.8129 455.8489 528.0868 30415.1507 5.1731 5.2859
ENERGY: 1300000 3.0136 4.8300 3.3292 0.0000 -10699.7405 1503.5842 0.0000 0.0000 1750.3202 -7434.6634 298.6779 -9184.9835 -7432.8715 300.5380 850.5420 934.4084 30141.4340 2.6903 2.8137
ENERGY: 1500000 2.7491 7.0616 3.2585 0.0000 -10741.9615 1464.7641 0.0000 0.0000 1738.7742 -7525.3539 296.7077 -9264.1282 -7521.1853 299.6829 88.1882 201.6637 29960.7209 4.0588 3.9767
ENERGY: 1700000 2.3826 8.7766 4.7684 0.0000 -10607.7557 1442.8901 0.0000 0.0000 1762.3415 -7386.5965 300.7293 -9148.9380 -7383.6960 300.6246 262.9495 392.3339 29979.3534 2.7176 2.7893
ENERGY: 1900000 13.3563 8.0417 4.0851 0.0000 -10691.3361 1405.4766 0.0000 0.0000 1783.3785 -7476.9978 304.3191 -9260.3764 -7476.9949 300.6536 -256.1346 -179.0167 30358.3235 3.5593 3.4913
TCL: Exiting due to exit command.
