Info: SIMULATION PARAMETERS:
Info: TIMESTEP               2
Info: NUMBER OF STEPS        0
Info: STEPS PER CYCLE        10
Info: PERIODIC CELL BASIS 1  34.986 0 0
Info: PERIODIC CELL BASIS 2  0 33.314 0
Info: PERIODIC CELL BASIS 3  0 0 38.379
Info: PERIODIC CELL CENTER   0 0 0
Info: WRAPPING WATERS AROUND PERIODIC BOUNDARIES ON OUTPUT.
Info: WRAPPING ALL CLUSTERS AROUND PERIODIC BOUNDARIES ON OUTPUT.
Info: FIRST LDB TIMESTEP     50
Info: LAST LDB TIMESTEP     -1
Info: HOM BACKGROUND SCALING 1
Info: PME BACKGROUND SCALING 1
Info: MIN ATOMS PER PATCH    40
Info: EMPTY PATCH LOAD       40 ATOMS
Info: INITIAL TEMPERATURE    300
Info: CENTER OF MASS MOVING INITIALLY? NO
Info: DIELECTRIC             1
Info: EXCLUDE                SCALED ONE-FOUR
Info: 1-4 ELECTROSTATICS SCALED BY 0.833333
Info: MODIFIED 1-4 VDW PARAMETERS WILL BE USED
Info: DCD FILENAME           mobley_4494568_equil.dcd
Info: DCD FREQUENCY          100000
Info: DCD FIRST STEP         100000
Info: DCD FILE WILL CONTAIN UNIT CELL DATA
Info: XST FILENAME           mobley_4494568_equil.xst
Info: XST FREQUENCY          100000
Info: NO VELOCITY DCD OUTPUT
Info: NO FORCE DCD OUTPUT
Info: OUTPUT FILENAME        mobley_4494568_equil
Info: BINARY OUTPUT FILES WILL BE USED
Info: RESTART FILENAME       mobley_4494568_equil.restart
Info: RESTART FREQUENCY      100000
Info: BINARY RESTART FILES WILL BE USED
Info: CUTOFF                 9
Info: PAIRLIST DISTANCE      11
Info: PAIRLIST SHRINK RATE   0.01
Info: PAIRLIST GROW RATE     0.01
Info: PAIRLIST TRIGGER       0.3
Info: PAIRLISTS PER CYCLE    2
Info: PAIRLISTS ENABLED
Info: MARGIN                 8
Info: HYDROGEN GROUP CUTOFF  2.5
Info: PATCH DIMENSION        21.5
Info: ENERGY OUTPUT STEPS    100000
Info: ENERGY EVALUATION STEPS    100000
Info: OUTPUT ENERGY PRECISION 4
Info: CROSSTERM ENERGY INCLUDED IN DIHEDRAL
Info: TIMING OUTPUT STEPS    1000000
Info: PRESSURE OUTPUT STEPS  100000
Info: LANGEVIN DYNAMICS ACTIVE
Info: LANGEVIN TEMPERATURE   30
Info: LANGEVIN USING BBK INTEGRATOR
Info: LANGEVIN DAMPING COEFFICIENT IS 1 INVERSE PS
Info: LANGEVIN DYNAMICS APPLIED TO HYDROGENS
Info: LANGEVIN PISTON PRESSURE CONTROL ACTIVE
Info:        TARGET PRESSURE IS 1.01325 BAR
Info:     OSCILLATION PERIOD IS 50 FS
Info:             DECAY TIME IS 25 FS
Info:     PISTON TEMPERATURE IS 300 K
Info:       PRESSURE CONTROL IS GROUP-BASED
Info:    INITIAL STRAIN RATE IS 0 0 0
Info:       CELL FLUCTUATION IS ISOTROPIC
Info: PARTICLE MESH EWALD (PME) ACTIVE
Info: PME TOLERANCE               1e-06
Info: PME EWALD COEFFICIENT       0.348832
Info: PME INTERPOLATION ORDER     4
Info: PME GRID DIMENSIONS         36 36 40
Info: PME MAXIMUM GRID SPACING    1
Info: FULL ELECTROSTATIC EVALUATION FREQUENCY      2
Info: USING VERLET I (r-RESPA) MTS SCHEME.
Info: C1 SPLITTING OF LONG RANGE ELECTROSTATICS
Info: PLACING ATOMS IN PATCHES BY HYDROGEN GROUPS
Info: RIGID BONDS TO HYDROGEN : ALL
Info:         ERROR TOLERANCE : 1e-08
Info:          MAX ITERATIONS : 100
Info: RIGID WATER USING SETTLE ALGORITHM
Info: RANDOM NUMBER SEED     1743212017
Info: USE HYDROGEN BONDS?    NO
Info: Using AMBER format force field!
Info: AMBER PARM FILE        mobley_4494568.prmtop
Info: COORDINATE PDB         mobley_4494568.pdb
Info: Exclusions will be read from PARM file!
Info: SCNB (VDW SCALING)     2
Info: USING ARITHMETIC MEAN TO COMBINE L-J SIGMA PARAMETERS
Info: BINARY COORDINATES     mobley_4494568_min.coor
Info: SUMMARY OF PARAMETERS:
Info: 7 BONDS
Info: 6 ANGLES
Info:   6 HARMONIC
Info:   0 COSINE-BASED
Info: 3 DIHEDRAL
Info: 0 IMPROPER
Info: 0 CROSSTERM
Info: 0 VDW
Info: 28 VDW_PAIRS
Info: 0 NBTHOLE_PAIRS
Info: STRUCTURE SUMMARY:
Info: 2994 ATOMS
Info: 2994 BONDS
Info: 24 ANGLES
Info: 36 DIHEDRALS
Info: 0 IMPROPERS
Info: 0 CROSSTERMS
Info: 3045 EXCLUSIONS
Info: 2986 RIGID BONDS
Info: 5996 DEGREES OF FREEDOM
Info: 1001 HYDROGEN GROUPS
Info: 4 ATOMS IN LARGEST HYDROGEN GROUP
Info: 1001 MIGRATION GROUPS
Info: 4 ATOMS IN LARGEST MIGRATION GROUP
Info: TOTAL MASS = 18060.9 amu
Info: TOTAL CHARGE = 0.000200011 e
Info: MASS DENSITY = 0.670478 g/cm^3
Info: ATOM DENSITY = 0.0669325 atoms/A^3
Info: ADDED 0 IMPLICIT EXCLUSIONS
Info: NONBONDED TABLE R-SQUARED SPACING: 0.0625
Info: NONBONDED TABLE SIZE: 705 POINTS
Info: REMOVING COM VELOCITY 0.0446872 -0.17614 -0.0266504
TCL: Running for 100000 steps
ETITLE: TS BOND ANGLE DIHED IMPRP ELECT VDW BOUNDARY MISC KINETIC TOTAL TEMP POTENTIAL TOTAL3 TEMPAVG PRESSURE GPRESSURE VOLUME PRESSAVG GPRESSAVG
ENERGY: 0 0.1577 0.1000 0.0390 0.0000 -13844.9826 2435.2906 0.0000 0.0000 1754.3587 -9655.0365 294.4741 -11409.3952 -9654.6939 294.4741 481.4503 520.8295 44731.6304 481.4503 520.8295
ENERGY: 100000 1.3774 0.4250 0.1846 0.0000 -14421.1709 2509.7906 0.0000 0.0000 180.9158 -11728.4777 30.3672 -11909.3935 -11728.1876 30.8910 -133.0197 -70.9080 29258.8041 4.1683 4.1703
TCL: Running 100000 steps at 60 kelvin.
TCL: Setting parameter langevinTemp to 60
TCL: Running for 100000 steps
ETITLE: TS BOND ANGLE DIHED IMPRP ELECT VDW BOUNDARY MISC KINETIC TOTAL TEMP POTENTIAL TOTAL3 TEMPAVG PRESSURE GPRESSURE VOLUME PRESSAVG GPRESSAVG
ENERGY: 100000 1.3774 0.4250 0.1846 0.0000 -14421.1709 2509.7906 0.0000 0.0000 180.8307 -11728.5628 30.3530 -11909.3935 -11728.1474 30.3530 -131.3552 -71.0009 29258.8041 -131.3552 -71.0009
ENERGY: 200000 0.3640 0.7444 0.3776 0.0000 -14352.9560 2507.9330 0.0000 0.0000 365.8845 -11477.6524 61.4148 -11843.5369 -11476.3637 59.9946 328.4398 362.5877 29149.1733 2.7346 2.6729
TCL: Running 100000 steps at 90 kelvin.
TCL: Setting parameter langevinTemp to 90
TCL: Running for 100000 steps
ETITLE: TS BOND ANGLE DIHED IMPRP ELECT VDW BOUNDARY MISC KINETIC TOTAL TEMP POTENTIAL TOTAL3 TEMPAVG PRESSURE GPRESSURE VOLUME PRESSAVG GPRESSAVG
ENERGY: 200000 0.3640 0.7444 0.3776 0.0000 -14352.9560 2507.9330 0.0000 0.0000 365.7077 -11477.8292 61.3851 -11843.5369 -11477.0246 61.3851 308.8014 362.5549 29149.1733 308.8014 362.5549
ENERGY: 300000 0.5244 1.5576 0.7805 0.0000 -14152.5849 2407.8914 0.0000 0.0000 541.3671 -11200.4640 90.8700 -11741.8310 -11198.5229 90.1271 -168.9215 -95.6264 29313.8525 4.4591 4.3563
TCL: Running 100000 steps at 120 kelvin.
TCL: Setting parameter langevinTemp to 120
TCL: Running for 100000 steps
ETITLE: TS BOND ANGLE DIHED IMPRP ELECT VDW BOUNDARY MISC KINETIC TOTAL TEMP POTENTIAL TOTAL3 TEMPAVG PRESSURE GPRESSURE VOLUME PRESSAVG GPRESSAVG
ENERGY: 300000 0.5244 1.5576 0.7805 0.0000 -14152.5849 2407.8914 0.0000 0.0000 541.1086 -11200.7225 90.8266 -11741.8310 -11199.5579 90.8266 -147.7202 -95.4537 29313.8525 -147.7202 -95.4537
ENERGY: 400000 1.1933 1.8857 1.1037 0.0000 -13853.1489 2233.6125 0.0000 0.0000 713.0768 -10902.2769 119.6920 -11615.3537 -10900.4156 120.1065 -1060.8030 -998.0253 29431.3951 3.3374 3.1827
TCL: Running 100000 steps at 150 kelvin.
TCL: Setting parameter langevinTemp to 150
TCL: Running for 100000 steps
ETITLE: TS BOND ANGLE DIHED IMPRP ELECT VDW BOUNDARY MISC KINETIC TOTAL TEMP POTENTIAL TOTAL3 TEMPAVG PRESSURE GPRESSURE VOLUME PRESSAVG GPRESSAVG
ENERGY: 400000 1.1933 1.8857 1.1037 0.0000 -13853.1489 2233.6125 0.0000 0.0000 712.7204 -10902.6333 119.6322 -11615.3537 -10900.9160 119.6322 -1074.0689 -997.4580 29431.3951 -1074.0689 -997.4580
ENERGY: 500000 3.0969 3.6270 0.6234 0.0000 -13605.0037 2179.8182 0.0000 0.0000 913.9630 -10503.8753 153.4113 -11417.8383 -10502.1347 149.9078 -905.8204 -838.3955 29401.5674 4.8639 5.0526
TCL: Running 100000 steps at 180 kelvin.
TCL: Setting parameter langevinTemp to 180
TCL: Running for 100000 steps
ETITLE: TS BOND ANGLE DIHED IMPRP ELECT VDW BOUNDARY MISC KINETIC TOTAL TEMP POTENTIAL TOTAL3 TEMPAVG PRESSURE GPRESSURE VOLUME PRESSAVG GPRESSAVG
ENERGY: 500000 3.0969 3.6270 0.6234 0.0000 -13605.0037 2179.8182 0.0000 0.0000 913.5127 -10504.3255 153.3357 -11417.8383 -10502.1228 153.3357 -890.4281 -839.0008 29401.5674 -890.4281 -839.0008
ENERGY: 600000 1.9020 3.6779 3.8858 0.0000 -13447.2224 2237.2968 0.0000 0.0000 1041.4979 -10158.9620 174.8184 -11200.4599 -10155.1130 180.1286 185.4573 265.1191 29570.8940 3.8480 3.8681
TCL: Running 100000 steps at 210 kelvin.
TCL: Setting parameter langevinTemp to 210
TCL: Running for 100000 steps
ETITLE: TS BOND ANGLE DIHED IMPRP ELECT VDW BOUNDARY MISC KINETIC TOTAL TEMP POTENTIAL TOTAL3 TEMPAVG PRESSURE GPRESSURE VOLUME PRESSAVG GPRESSAVG
ENERGY: 600000 1.9020 3.6779 3.8858 0.0000 -13447.2224 2237.2968 0.0000 0.0000 1041.0042 -10159.4556 174.7355 -11200.4599 -10157.8760 174.7355 198.2517 266.8122 29570.8940 198.2517 266.8122
ENERGY: 700000 1.3491 2.6348 3.1083 0.0000 -12597.5278 1934.3218 0.0000 0.0000 1240.8219 -9415.2918 208.2755 -10656.1137 -9414.2761 210.1672 80.9522 164.7914 29271.3358 3.0537 3.0186
TCL: Running 100000 steps at 240 kelvin.
TCL: Setting parameter langevinTemp to 240
TCL: Running for 100000 steps
ETITLE: TS BOND ANGLE DIHED IMPRP ELECT VDW BOUNDARY MISC KINETIC TOTAL TEMP POTENTIAL TOTAL3 TEMPAVG PRESSURE GPRESSURE VOLUME PRESSAVG GPRESSAVG
ENERGY: 700000 1.3491 2.6348 3.1083 0.0000 -12597.5278 1934.3218 0.0000 0.0000 1240.2126 -9415.9011 208.1732 -10656.1137 -9413.5429 208.1732 99.2391 163.5087 29271.3358 99.2391 163.5087
ENERGY: 800000 1.0518 3.1742 3.0306 0.0000 -11974.4690 1717.6255 0.0000 0.0000 1480.6211 -8768.9657 248.5265 -10249.5868 -8765.4127 239.7111 -298.0451 -249.9535 29626.7750 4.1634 4.3420
TCL: Running 100000 steps at 270 kelvin.
TCL: Setting parameter langevinTemp to 270
TCL: Running for 100000 steps
ETITLE: TS BOND ANGLE DIHED IMPRP ELECT VDW BOUNDARY MISC KINETIC TOTAL TEMP POTENTIAL TOTAL3 TEMPAVG PRESSURE GPRESSURE VOLUME PRESSAVG GPRESSAVG
ENERGY: 800000 1.0518 3.1742 3.0306 0.0000 -11974.4690 1717.6255 0.0000 0.0000 1479.8901 -8769.6968 248.4038 -10249.5868 -8767.5668 248.4038 -339.7501 -249.8431 29626.7750 -339.7501 -249.8431
ENERGY: 900000 3.5624 2.8761 3.4648 0.0000 -11406.2652 1556.8613 0.0000 0.0000 1615.6880 -8223.8125 271.1979 -9839.5005 -8220.2607 269.9470 -611.6655 -569.6753 30226.3069 3.3361 3.1308
TCL: Running 1000000 steps at 300 kelvin.
TCL: Setting parameter langevinTemp to 300
TCL: Running for 1000000 steps
ETITLE: TS BOND ANGLE DIHED IMPRP ELECT VDW BOUNDARY MISC KINETIC TOTAL TEMP POTENTIAL TOTAL3 TEMPAVG PRESSURE GPRESSURE VOLUME PRESSAVG GPRESSAVG
ENERGY: 900000 3.5624 2.8761 3.4648 0.0000 -11406.2652 1556.8613 0.0000 0.0000 1614.8727 -8224.6279 271.0610 -9839.5005 -8221.3572 271.0610 -650.1863 -568.8688 30226.3069 -650.1863 -568.8688
ENERGY: 1100000 4.3568 5.8255 2.8122 0.0000 -10826.8853 1440.3446 0.0000 0.0000 1784.7045 -7588.8416 299.5678 -9373.5462 -7586.3278 300.1477 -26.2629 -17.2003 30991.6500 3.2264 3.1616
ENERGY: 1300000 2.5623 4.1928 2.3672 0.0000 -10838.1458 1464.7090 0.0000 0.0000 1754.8272 -7609.4873 294.5528 -9364.3145 -7608.2712 300.1551 81.8520 143.2475 30579.9489 3.2008 3.2130
ENERGY: 1500000 1.5425 5.0846 3.1157 0.0000 -10923.2307 1470.2264 0.0000 0.0000 1759.8976 -7683.3639 295.4039 -9443.2614 -7678.5063 300.1725 30.8072 106.4913 30593.9015 4.4613 4.4538
ENERGY: 1700000 2.0317 5.3065 6.6879 0.0000 -10822.4221 1414.9182 0.0000 0.0000 1819.1071 -7574.3707 305.3423 -9393.4779 -7568.7526 300.1028 -231.7396 -225.2465 30887.1604 2.6128 2.4598
ENERGY: 1900000 2.9063 4.0670 2.5597 0.0000 -10651.1730 1361.5015 0.0000 0.0000 1847.7325 -7432.4060 310.1472 -9280.1385 -7428.4323 299.5440 -455.6207 -339.6945 30882.1188 2.5760 2.5997
TCL: Exiting due to exit command.
