Info: SIMULATION PARAMETERS:
Info: TIMESTEP               2
Info: NUMBER OF STEPS        0
Info: STEPS PER CYCLE        10
Info: PERIODIC CELL BASIS 1  34.647 0 0
Info: PERIODIC CELL BASIS 2  0 33.542 0
Info: PERIODIC CELL BASIS 3  0 0 37.195
Info: PERIODIC CELL CENTER   0 0 0
Info: WRAPPING WATERS AROUND PERIODIC BOUNDARIES ON OUTPUT.
Info: WRAPPING ALL CLUSTERS AROUND PERIODIC BOUNDARIES ON OUTPUT.
Info: FIRST LDB TIMESTEP     50
Info: LAST LDB TIMESTEP     -1
Info: HOM BACKGROUND SCALING 1
Info: PME BACKGROUND SCALING 1
Info: MIN ATOMS PER PATCH    40
Info: EMPTY PATCH LOAD       40 ATOMS
Info: INITIAL TEMPERATURE    300
Info: CENTER OF MASS MOVING INITIALLY? NO
Info: DIELECTRIC             1
Info: EXCLUDE                SCALED ONE-FOUR
Info: 1-4 ELECTROSTATICS SCALED BY 0.833333
Info: MODIFIED 1-4 VDW PARAMETERS WILL BE USED
Info: DCD FILENAME           mobley_2484519_equil.dcd
Info: DCD FREQUENCY          100000
Info: DCD FIRST STEP         100000
Info: DCD FILE WILL CONTAIN UNIT CELL DATA
Info: XST FILENAME           mobley_2484519_equil.xst
Info: XST FREQUENCY          100000
Info: NO VELOCITY DCD OUTPUT
Info: NO FORCE DCD OUTPUT
Info: OUTPUT FILENAME        mobley_2484519_equil
Info: BINARY OUTPUT FILES WILL BE USED
Info: RESTART FILENAME       mobley_2484519_equil.restart
Info: RESTART FREQUENCY      100000
Info: BINARY RESTART FILES WILL BE USED
Info: CUTOFF                 9
Info: PAIRLIST DISTANCE      11
Info: PAIRLIST SHRINK RATE   0.01
Info: PAIRLIST GROW RATE     0.01
Info: PAIRLIST TRIGGER       0.3
Info: PAIRLISTS PER CYCLE    2
Info: PAIRLISTS ENABLED
Info: MARGIN                 8
Info: HYDROGEN GROUP CUTOFF  2.5
Info: PATCH DIMENSION        21.5
Info: ENERGY OUTPUT STEPS    100000
Info: ENERGY EVALUATION STEPS    100000
Info: OUTPUT ENERGY PRECISION 4
Info: CROSSTERM ENERGY INCLUDED IN DIHEDRAL
Info: TIMING OUTPUT STEPS    1000000
Info: PRESSURE OUTPUT STEPS  100000
Info: LANGEVIN DYNAMICS ACTIVE
Info: LANGEVIN TEMPERATURE   30
Info: LANGEVIN USING BBK INTEGRATOR
Info: LANGEVIN DAMPING COEFFICIENT IS 1 INVERSE PS
Info: LANGEVIN DYNAMICS APPLIED TO HYDROGENS
Info: LANGEVIN PISTON PRESSURE CONTROL ACTIVE
Info:        TARGET PRESSURE IS 1.01325 BAR
Info:     OSCILLATION PERIOD IS 50 FS
Info:             DECAY TIME IS 25 FS
Info:     PISTON TEMPERATURE IS 300 K
Info:       PRESSURE CONTROL IS GROUP-BASED
Info:    INITIAL STRAIN RATE IS 0 0 0
Info:       CELL FLUCTUATION IS ISOTROPIC
Info: PARTICLE MESH EWALD (PME) ACTIVE
Info: PME TOLERANCE               1e-06
Info: PME EWALD COEFFICIENT       0.348832
Info: PME INTERPOLATION ORDER     4
Info: PME GRID DIMENSIONS         36 36 40
Info: PME MAXIMUM GRID SPACING    1
Info: FULL ELECTROSTATIC EVALUATION FREQUENCY      2
Info: USING VERLET I (r-RESPA) MTS SCHEME.
Info: C1 SPLITTING OF LONG RANGE ELECTROSTATICS
Info: PLACING ATOMS IN PATCHES BY HYDROGEN GROUPS
Info: RIGID BONDS TO HYDROGEN : ALL
Info:         ERROR TOLERANCE : 1e-08
Info:          MAX ITERATIONS : 100
Info: RIGID WATER USING SETTLE ALGORITHM
Info: RANDOM NUMBER SEED     1743230256
Info: USE HYDROGEN BONDS?    NO
Info: Using AMBER format force field!
Info: AMBER PARM FILE        mobley_2484519.prmtop
Info: COORDINATE PDB         mobley_2484519.pdb
Info: Exclusions will be read from PARM file!
Info: SCNB (VDW SCALING)     2
Info: USING ARITHMETIC MEAN TO COMBINE L-J SIGMA PARAMETERS
Info: BINARY COORDINATES     mobley_2484519_min.coor
Info: SUMMARY OF PARAMETERS:
Info: 7 BONDS
Info: 7 ANGLES
Info:   7 HARMONIC
Info:   0 COSINE-BASED
Info: 3 DIHEDRAL
Info: 0 IMPROPER
Info: 0 CROSSTERM
Info: 0 VDW
Info: 28 VDW_PAIRS
Info: 0 NBTHOLE_PAIRS
Info: STRUCTURE SUMMARY:
Info: 2931 ATOMS
Info: 2931 BONDS
Info: 24 ANGLES
Info: 36 DIHEDRALS
Info: 0 IMPROPERS
Info: 0 CROSSTERMS
Info: 2982 EXCLUSIONS
Info: 2923 RIGID BONDS
Info: 5870 DEGREES OF FREEDOM
Info: 980 HYDROGEN GROUPS
Info: 3 ATOMS IN LARGEST HYDROGEN GROUP
Info: 980 MIGRATION GROUPS
Info: 3 ATOMS IN LARGEST MIGRATION GROUP
Info: TOTAL MASS = 17638.1 amu
Info: TOTAL CHARGE = -9.99719e-05 e
Info: MASS DENSITY = 0.677599 g/cm^3
Info: ATOM DENSITY = 0.0678073 atoms/A^3
Info: ADDED 0 IMPLICIT EXCLUSIONS
Info: NONBONDED TABLE R-SQUARED SPACING: 0.0625
Info: NONBONDED TABLE SIZE: 705 POINTS
Info: REMOVING COM VELOCITY 0.064984 -0.188648 -0.112805
TCL: Running for 100000 steps
ETITLE: TS BOND ANGLE DIHED IMPRP ELECT VDW BOUNDARY MISC KINETIC TOTAL TEMP POTENTIAL TOTAL3 TEMPAVG PRESSURE GPRESSURE VOLUME PRESSAVG GPRESSAVG
ENERGY: 0 0.1529 0.0863 0.0234 0.0000 -13508.3460 2365.2784 0.0000 0.0000 1793.4055 -9349.3995 307.4898 -11142.8050 -9349.0660 307.4898 498.3208 538.2244 43225.4132 498.3208 538.2244
ENERGY: 100000 0.4123 1.0229 0.1107 0.0000 -14040.5596 2372.9982 0.0000 0.0000 174.2245 -11491.7909 29.8718 -11666.0154 -11491.2129 30.9906 -886.0466 -826.1298 28848.1345 1.9776 2.0095
TCL: Running 100000 steps at 60 kelvin.
TCL: Setting parameter langevinTemp to 60
TCL: Running for 100000 steps
ETITLE: TS BOND ANGLE DIHED IMPRP ELECT VDW BOUNDARY MISC KINETIC TOTAL TEMP POTENTIAL TOTAL3 TEMPAVG PRESSURE GPRESSURE VOLUME PRESSAVG GPRESSAVG
ENERGY: 100000 0.4123 1.0229 0.1107 0.0000 -14040.5596 2372.9982 0.0000 0.0000 174.1399 -11491.8755 29.8573 -11666.0154 -11491.5008 29.8573 -887.6578 -826.0018 28848.1345 -887.6578 -826.0018
ENERGY: 200000 0.5971 1.2956 0.4024 0.0000 -13964.1729 2385.5556 0.0000 0.0000 345.0904 -11231.2319 59.1678 -11576.3223 -11230.1108 60.0220 -352.1769 -306.6740 28735.0506 3.5027 3.4932
TCL: Running 100000 steps at 90 kelvin.
TCL: Setting parameter langevinTemp to 90
TCL: Running for 100000 steps
ETITLE: TS BOND ANGLE DIHED IMPRP ELECT VDW BOUNDARY MISC KINETIC TOTAL TEMP POTENTIAL TOTAL3 TEMPAVG PRESSURE GPRESSURE VOLUME PRESSAVG GPRESSAVG
ENERGY: 200000 0.5971 1.2956 0.4024 0.0000 -13964.1729 2385.5556 0.0000 0.0000 344.9193 -11231.4029 59.1384 -11576.3223 -11230.6758 59.1384 -371.3159 -306.9836 28735.0506 -371.3159 -306.9836
ENERGY: 300000 1.7788 1.2141 0.6848 0.0000 -13788.6921 2312.6711 0.0000 0.0000 506.6605 -10965.6829 86.8699 -11472.3434 -10964.5747 89.8502 -535.8059 -471.3235 28758.2096 5.0303 5.0661
TCL: Running 100000 steps at 120 kelvin.
TCL: Setting parameter langevinTemp to 120
TCL: Running for 100000 steps
ETITLE: TS BOND ANGLE DIHED IMPRP ELECT VDW BOUNDARY MISC KINETIC TOTAL TEMP POTENTIAL TOTAL3 TEMPAVG PRESSURE GPRESSURE VOLUME PRESSAVG GPRESSAVG
ENERGY: 300000 1.7788 1.2141 0.6848 0.0000 -13788.6921 2312.6711 0.0000 0.0000 506.4042 -10965.9391 86.8260 -11472.3434 -10964.6648 86.8260 -524.7896 -471.9357 28758.2096 -524.7896 -471.9357
ENERGY: 400000 0.4372 1.8715 1.0655 0.0000 -13676.0339 2331.7983 0.0000 0.0000 704.4804 -10636.3811 120.7873 -11340.8614 -10633.9157 120.1026 318.1069 353.6722 28399.1662 4.2245 4.1700
TCL: Running 100000 steps at 150 kelvin.
TCL: Setting parameter langevinTemp to 150
TCL: Running for 100000 steps
ETITLE: TS BOND ANGLE DIHED IMPRP ELECT VDW BOUNDARY MISC KINETIC TOTAL TEMP POTENTIAL TOTAL3 TEMPAVG PRESSURE GPRESSURE VOLUME PRESSAVG GPRESSAVG
ENERGY: 400000 0.4372 1.8715 1.0655 0.0000 -13676.0339 2331.7983 0.0000 0.0000 704.1477 -10636.7138 120.7302 -11340.8614 -10635.5562 120.7302 299.7996 354.6660 28399.1662 299.7996 354.6660
ENERGY: 500000 0.3587 1.1335 0.7536 0.0000 -13349.9906 2163.5366 0.0000 0.0000 870.5399 -10313.6683 149.2592 -11184.2082 -10311.6722 150.0031 -375.7529 -341.6792 28442.3484 4.9564 4.9421
TCL: Running 100000 steps at 180 kelvin.
TCL: Setting parameter langevinTemp to 180
TCL: Running for 100000 steps
ETITLE: TS BOND ANGLE DIHED IMPRP ELECT VDW BOUNDARY MISC KINETIC TOTAL TEMP POTENTIAL TOTAL3 TEMPAVG PRESSURE GPRESSURE VOLUME PRESSAVG GPRESSAVG
ENERGY: 500000 0.3587 1.1335 0.7536 0.0000 -13349.9906 2163.5366 0.0000 0.0000 870.1247 -10314.0835 149.1880 -11184.2082 -10312.0743 149.1880 -399.7468 -341.8656 28442.3484 -399.7468 -341.8656
ENERGY: 600000 0.9330 5.8524 1.0739 0.0000 -13254.7646 2305.2091 0.0000 0.0000 1052.0830 -9889.6132 180.3858 -10941.6962 -9887.8961 179.8164 1784.5210 1846.3399 28271.9456 4.1480 4.1180
TCL: Running 100000 steps at 210 kelvin.
TCL: Setting parameter langevinTemp to 210
TCL: Running for 100000 steps
ETITLE: TS BOND ANGLE DIHED IMPRP ELECT VDW BOUNDARY MISC KINETIC TOTAL TEMP POTENTIAL TOTAL3 TEMPAVG PRESSURE GPRESSURE VOLUME PRESSAVG GPRESSAVG
ENERGY: 600000 0.9330 5.8524 1.0739 0.0000 -13254.7646 2305.2091 0.0000 0.0000 1051.5500 -9890.1463 180.2944 -10941.6962 -9887.9572 180.2944 1802.5840 1846.2859 28271.9456 1802.5840 1846.2859
ENERGY: 700000 1.6989 5.3963 2.4734 0.0000 -12327.2199 1863.3997 0.0000 0.0000 1186.1756 -9268.0759 203.3767 -10454.2515 -9265.4315 209.6804 39.4996 102.0254 28354.5886 3.4366 3.3856
TCL: Running 100000 steps at 240 kelvin.
TCL: Setting parameter langevinTemp to 240
TCL: Running for 100000 steps
ETITLE: TS BOND ANGLE DIHED IMPRP ELECT VDW BOUNDARY MISC KINETIC TOTAL TEMP POTENTIAL TOTAL3 TEMPAVG PRESSURE GPRESSURE VOLUME PRESSAVG GPRESSAVG
ENERGY: 700000 1.6989 5.3963 2.4734 0.0000 -12327.2199 1863.3997 0.0000 0.0000 1185.5424 -9268.7091 203.2682 -10454.2515 -9266.9365 203.2682 22.7135 102.9224 28354.5886 22.7135 102.9224
ENERGY: 800000 1.8266 1.4517 1.4898 0.0000 -11737.2018 1731.0358 0.0000 0.0000 1383.7167 -8617.6813 237.2463 -10001.3980 -8613.8941 240.2606 268.8581 395.5967 28709.0428 2.9763 3.0785
TCL: Running 100000 steps at 270 kelvin.
TCL: Setting parameter langevinTemp to 270
TCL: Running for 100000 steps
ETITLE: TS BOND ANGLE DIHED IMPRP ELECT VDW BOUNDARY MISC KINETIC TOTAL TEMP POTENTIAL TOTAL3 TEMPAVG PRESSURE GPRESSURE VOLUME PRESSAVG GPRESSAVG
ENERGY: 800000 1.8266 1.4517 1.4898 0.0000 -11737.2018 1731.0358 0.0000 0.0000 1383.0094 -8618.3885 237.1250 -10001.3980 -8616.1976 237.1250 319.8916 397.7809 28709.0428 319.8916 397.7809
ENERGY: 900000 1.0820 4.1769 4.3944 0.0000 -11215.5944 1560.9889 0.0000 0.0000 1605.9380 -8039.0143 275.3474 -9644.9522 -8035.4214 270.5635 165.6930 352.1278 29014.7412 3.3461 3.3613
TCL: Running 1000000 steps at 300 kelvin.
TCL: Setting parameter langevinTemp to 300
TCL: Running for 1000000 steps
ETITLE: TS BOND ANGLE DIHED IMPRP ELECT VDW BOUNDARY MISC KINETIC TOTAL TEMP POTENTIAL TOTAL3 TEMPAVG PRESSURE GPRESSURE VOLUME PRESSAVG GPRESSAVG
ENERGY: 900000 1.0820 4.1769 4.3944 0.0000 -11215.5944 1560.9889 0.0000 0.0000 1605.1519 -8039.8004 275.2127 -9644.9522 -8037.6822 275.2127 252.3835 352.9757 29014.7412 252.3835 352.9757
ENERGY: 1100000 2.6319 2.4257 1.6786 0.0000 -10686.9324 1464.5276 0.0000 0.0000 1772.9006 -7442.7680 303.9742 -9215.6686 -7440.0462 299.9854 317.4655 358.2134 30017.8092 2.5318 2.5387
ENERGY: 1300000 4.6195 4.1781 1.3757 0.0000 -10616.8107 1407.6359 0.0000 0.0000 1748.5579 -7450.4437 299.8005 -9199.0015 -7449.3323 300.3520 -316.0657 -220.8531 30153.5605 2.9859 2.8965
ENERGY: 1500000 2.8688 1.3470 5.2613 0.0000 -10516.6759 1356.3959 0.0000 0.0000 1742.4286 -7408.3742 298.7496 -9150.8028 -7404.5183 300.1578 -560.4456 -477.0698 30438.4627 3.7226 3.6736
ENERGY: 1700000 2.4212 2.2325 2.0957 0.0000 -10519.1371 1311.5570 0.0000 0.0000 1758.0775 -7442.7532 301.4327 -9200.8307 -7440.8295 300.7102 -894.8178 -871.1440 30051.2915 3.2444 3.1138
ENERGY: 1900000 4.5215 7.3907 2.1880 0.0000 -10491.4084 1368.3118 0.0000 0.0000 1744.3163 -7364.6801 299.0732 -9108.9963 -7360.4291 300.3429 -242.5902 -106.4335 29917.4341 3.8441 3.8690
TCL: Exiting due to exit command.
