Info: SIMULATION PARAMETERS:
Info: TIMESTEP               2
Info: NUMBER OF STEPS        0
Info: STEPS PER CYCLE        10
Info: PERIODIC CELL BASIS 1  36.592 0 0
Info: PERIODIC CELL BASIS 2  0 36.762 0
Info: PERIODIC CELL BASIS 3  0 0 33.088
Info: PERIODIC CELL CENTER   0 0 0
Info: WRAPPING WATERS AROUND PERIODIC BOUNDARIES ON OUTPUT.
Info: WRAPPING ALL CLUSTERS AROUND PERIODIC BOUNDARIES ON OUTPUT.
Info: FIRST LDB TIMESTEP     50
Info: LAST LDB TIMESTEP     -1
Info: HOM BACKGROUND SCALING 1
Info: PME BACKGROUND SCALING 1
Info: MIN ATOMS PER PATCH    40
Info: EMPTY PATCH LOAD       40 ATOMS
Info: INITIAL TEMPERATURE    300
Info: CENTER OF MASS MOVING INITIALLY? NO
Info: DIELECTRIC             1
Info: EXCLUDE                SCALED ONE-FOUR
Info: 1-4 ELECTROSTATICS SCALED BY 0.833333
Info: MODIFIED 1-4 VDW PARAMETERS WILL BE USED
Info: DCD FILENAME           mobley_7039935_equil.dcd
Info: DCD FREQUENCY          100000
Info: DCD FIRST STEP         100000
Info: DCD FILE WILL CONTAIN UNIT CELL DATA
Info: XST FILENAME           mobley_7039935_equil.xst
Info: XST FREQUENCY          100000
Info: NO VELOCITY DCD OUTPUT
Info: NO FORCE DCD OUTPUT
Info: OUTPUT FILENAME        mobley_7039935_equil
Info: BINARY OUTPUT FILES WILL BE USED
Info: RESTART FILENAME       mobley_7039935_equil.restart
Info: RESTART FREQUENCY      100000
Info: BINARY RESTART FILES WILL BE USED
Info: CUTOFF                 9
Info: PAIRLIST DISTANCE      11
Info: PAIRLIST SHRINK RATE   0.01
Info: PAIRLIST GROW RATE     0.01
Info: PAIRLIST TRIGGER       0.3
Info: PAIRLISTS PER CYCLE    2
Info: PAIRLISTS ENABLED
Info: MARGIN                 8
Info: HYDROGEN GROUP CUTOFF  2.5
Info: PATCH DIMENSION        21.5
Info: ENERGY OUTPUT STEPS    100000
Info: ENERGY EVALUATION STEPS    100000
Info: OUTPUT ENERGY PRECISION 4
Info: CROSSTERM ENERGY INCLUDED IN DIHEDRAL
Info: TIMING OUTPUT STEPS    1000000
Info: PRESSURE OUTPUT STEPS  100000
Info: LANGEVIN DYNAMICS ACTIVE
Info: LANGEVIN TEMPERATURE   30
Info: LANGEVIN USING BBK INTEGRATOR
Info: LANGEVIN DAMPING COEFFICIENT IS 1 INVERSE PS
Info: LANGEVIN DYNAMICS APPLIED TO HYDROGENS
Info: LANGEVIN PISTON PRESSURE CONTROL ACTIVE
Info:        TARGET PRESSURE IS 1.01325 BAR
Info:     OSCILLATION PERIOD IS 50 FS
Info:             DECAY TIME IS 25 FS
Info:     PISTON TEMPERATURE IS 300 K
Info:       PRESSURE CONTROL IS GROUP-BASED
Info:    INITIAL STRAIN RATE IS 0 0 0
Info:       CELL FLUCTUATION IS ISOTROPIC
Info: PARTICLE MESH EWALD (PME) ACTIVE
Info: PME TOLERANCE               1e-06
Info: PME EWALD COEFFICIENT       0.348832
Info: PME INTERPOLATION ORDER     4
Info: PME GRID DIMENSIONS         40 40 36
Info: PME MAXIMUM GRID SPACING    1
Info: FULL ELECTROSTATIC EVALUATION FREQUENCY      2
Info: USING VERLET I (r-RESPA) MTS SCHEME.
Info: C1 SPLITTING OF LONG RANGE ELECTROSTATICS
Info: PLACING ATOMS IN PATCHES BY HYDROGEN GROUPS
Info: RIGID BONDS TO HYDROGEN : ALL
Info:         ERROR TOLERANCE : 1e-08
Info:          MAX ITERATIONS : 100
Info: RIGID WATER USING SETTLE ALGORITHM
Info: RANDOM NUMBER SEED     1743217351
Info: USE HYDROGEN BONDS?    NO
Info: Using AMBER format force field!
Info: AMBER PARM FILE        mobley_7039935.prmtop
Info: COORDINATE PDB         mobley_7039935.pdb
Info: Exclusions will be read from PARM file!
Info: SCNB (VDW SCALING)     2
Info: USING ARITHMETIC MEAN TO COMBINE L-J SIGMA PARAMETERS
Info: BINARY COORDINATES     mobley_7039935_min.coor
Info: SUMMARY OF PARAMETERS:
Info: 6 BONDS
Info: 4 ANGLES
Info:   4 HARMONIC
Info:   0 COSINE-BASED
Info: 3 DIHEDRAL
Info: 0 IMPROPER
Info: 0 CROSSTERM
Info: 0 VDW
Info: 15 VDW_PAIRS
Info: 0 NBTHOLE_PAIRS
Info: STRUCTURE SUMMARY:
Info: 2947 ATOMS
Info: 2948 BONDS
Info: 31 ANGLES
Info: 56 DIHEDRALS
Info: 0 IMPROPERS
Info: 0 CROSSTERMS
Info: 3019 EXCLUSIONS
Info: 2936 RIGID BONDS
Info: 5905 DEGREES OF FREEDOM
Info: 987 HYDROGEN GROUPS
Info: 3 ATOMS IN LARGEST HYDROGEN GROUP
Info: 987 MIGRATION GROUPS
Info: 3 ATOMS IN LARGEST MIGRATION GROUP
Info: TOTAL MASS = 17727.8 amu
Info: TOTAL CHARGE = 0.00019999 e
Info: MASS DENSITY = 0.66139 g/cm^3
Info: ATOM DENSITY = 0.0662101 atoms/A^3
Info: ADDED 0 IMPLICIT EXCLUSIONS
Info: NONBONDED TABLE R-SQUARED SPACING: 0.0625
Info: NONBONDED TABLE SIZE: 705 POINTS
Info: REMOVING COM VELOCITY 0.0206431 0.236786 0.0796119
TCL: Running for 100000 steps
ETITLE: TS BOND ANGLE DIHED IMPRP ELECT VDW BOUNDARY MISC KINETIC TOTAL TEMP POTENTIAL TOTAL3 TEMPAVG PRESSURE GPRESSURE VOLUME PRESSAVG GPRESSAVG
ENERGY: 0 0.3963 0.3004 0.3384 0.0000 -13571.7763 2406.5527 0.0000 0.0000 1686.5741 -9477.6145 287.4590 -11164.1885 -9477.2691 287.4590 408.5143 435.4507 44509.8156 408.5143 435.4507
ENERGY: 100000 0.8399 0.7562 0.9482 0.0000 -14284.3305 2559.7831 0.0000 0.0000 178.1299 -11543.8732 30.3604 -11722.0031 -11543.3408 30.9235 781.3199 845.2419 28969.5666 3.9746 3.9391
TCL: Running 100000 steps at 60 kelvin.
TCL: Setting parameter langevinTemp to 60
TCL: Running for 100000 steps
ETITLE: TS BOND ANGLE DIHED IMPRP ELECT VDW BOUNDARY MISC KINETIC TOTAL TEMP POTENTIAL TOTAL3 TEMPAVG PRESSURE GPRESSURE VOLUME PRESSAVG GPRESSAVG
ENERGY: 100000 0.8399 0.7562 0.9482 0.0000 -14284.3305 2559.7831 0.0000 0.0000 178.0402 -11543.9629 30.3451 -11722.0031 -11543.6481 30.3451 782.2279 845.2842 28969.5666 782.2279 845.2842
ENERGY: 200000 1.5688 0.7449 1.5409 0.0000 -13967.3183 2335.9404 0.0000 0.0000 354.2927 -11273.2305 60.3855 -11627.5232 -11272.5925 59.8174 -961.9919 -912.0566 29412.3378 3.9751 4.0085
TCL: Running 100000 steps at 90 kelvin.
TCL: Setting parameter langevinTemp to 90
TCL: Running for 100000 steps
ETITLE: TS BOND ANGLE DIHED IMPRP ELECT VDW BOUNDARY MISC KINETIC TOTAL TEMP POTENTIAL TOTAL3 TEMPAVG PRESSURE GPRESSURE VOLUME PRESSAVG GPRESSAVG
ENERGY: 200000 1.5688 0.7449 1.5409 0.0000 -13967.3183 2335.9404 0.0000 0.0000 354.1135 -11273.4097 60.3550 -11627.5232 -11272.5837 60.3550 -972.2989 -912.2047 29412.3378 -972.2989 -912.2047
ENERGY: 300000 1.3439 1.5036 2.4973 0.0000 -13937.3993 2418.9293 0.0000 0.0000 517.4317 -10995.6935 88.1909 -11513.1253 -10994.5222 89.8147 226.0546 266.3283 29296.5751 2.9260 2.9461
TCL: Running 100000 steps at 120 kelvin.
TCL: Setting parameter langevinTemp to 120
TCL: Running for 100000 steps
ETITLE: TS BOND ANGLE DIHED IMPRP ELECT VDW BOUNDARY MISC KINETIC TOTAL TEMP POTENTIAL TOTAL3 TEMPAVG PRESSURE GPRESSURE VOLUME PRESSAVG GPRESSAVG
ENERGY: 300000 1.3439 1.5036 2.4973 0.0000 -13937.3993 2418.9293 0.0000 0.0000 517.1726 -10995.9527 88.1467 -11513.1253 -10994.8312 88.1467 227.8128 266.6853 29296.5751 227.8128 266.6853
ENERGY: 400000 1.5843 3.0721 1.2580 0.0000 -13799.2497 2384.4094 0.0000 0.0000 698.5871 -10710.3388 119.0669 -11408.9259 -10709.2944 119.7575 526.8475 574.4135 28919.9880 4.1327 4.1244
TCL: Running 100000 steps at 150 kelvin.
TCL: Setting parameter langevinTemp to 150
TCL: Running for 100000 steps
ETITLE: TS BOND ANGLE DIHED IMPRP ELECT VDW BOUNDARY MISC KINETIC TOTAL TEMP POTENTIAL TOTAL3 TEMPAVG PRESSURE GPRESSURE VOLUME PRESSAVG GPRESSAVG
ENERGY: 400000 1.5843 3.0721 1.2580 0.0000 -13799.2497 2384.4094 0.0000 0.0000 698.2315 -10710.6944 119.0063 -11408.9259 -10709.3263 119.0063 528.7201 573.8448 28919.9880 528.7201 573.8448
ENERGY: 500000 2.0358 2.5902 2.2570 0.0000 -13633.8985 2346.8820 0.0000 0.0000 877.7026 -10402.4309 149.5953 -11280.1335 -10399.0789 149.9306 544.5668 640.5667 29054.7074 3.4627 3.4550
TCL: Running 100000 steps at 180 kelvin.
TCL: Setting parameter langevinTemp to 180
TCL: Running for 100000 steps
ETITLE: TS BOND ANGLE DIHED IMPRP ELECT VDW BOUNDARY MISC KINETIC TOTAL TEMP POTENTIAL TOTAL3 TEMPAVG PRESSURE GPRESSURE VOLUME PRESSAVG GPRESSAVG
ENERGY: 500000 2.0358 2.5902 2.2570 0.0000 -13633.8985 2346.8820 0.0000 0.0000 877.2651 -10402.8684 149.5207 -11280.1335 -10400.9496 149.5207 585.4932 641.3273 29054.7074 585.4932 641.3273
ENERGY: 600000 2.7302 1.6043 2.1475 0.0000 -12963.2382 2030.9823 0.0000 0.0000 1037.5297 -9888.2442 176.8361 -10925.7739 -9885.6353 180.0801 -643.8838 -623.1568 28979.2283 4.5836 4.5190
TCL: Running 100000 steps at 210 kelvin.
TCL: Setting parameter langevinTemp to 210
TCL: Running for 100000 steps
ETITLE: TS BOND ANGLE DIHED IMPRP ELECT VDW BOUNDARY MISC KINETIC TOTAL TEMP POTENTIAL TOTAL3 TEMPAVG PRESSURE GPRESSURE VOLUME PRESSAVG GPRESSAVG
ENERGY: 600000 2.7302 1.6043 2.1475 0.0000 -12963.2382 2030.9823 0.0000 0.0000 1037.0123 -9888.7615 176.7480 -10925.7739 -9886.8807 176.7480 -691.7813 -622.6174 28979.2283 -691.7813 -622.6174
ENERGY: 700000 2.5733 4.6407 2.7367 0.0000 -12293.4643 1843.6055 0.0000 0.0000 1251.5065 -9188.4015 213.3063 -10439.9080 -9186.0779 209.7751 -337.7243 -217.6911 28919.5387 2.7774 2.7430
TCL: Running 100000 steps at 240 kelvin.
TCL: Setting parameter langevinTemp to 240
TCL: Running for 100000 steps
ETITLE: TS BOND ANGLE DIHED IMPRP ELECT VDW BOUNDARY MISC KINETIC TOTAL TEMP POTENTIAL TOTAL3 TEMPAVG PRESSURE GPRESSURE VOLUME PRESSAVG GPRESSAVG
ENERGY: 700000 2.5733 4.6407 2.7367 0.0000 -12293.4643 1843.6055 0.0000 0.0000 1250.9034 -9189.0046 213.2035 -10439.9080 -9186.3920 213.2035 -287.7447 -218.9098 28919.5387 -287.7447 -218.9098
ENERGY: 800000 3.8783 3.9741 4.1190 0.0000 -11638.2256 1636.6696 0.0000 0.0000 1391.5852 -8597.9994 237.1812 -9989.5845 -8595.3546 239.2470 -197.5945 -160.4167 28721.7336 4.2664 4.3436
TCL: Running 100000 steps at 270 kelvin.
TCL: Setting parameter langevinTemp to 270
TCL: Running for 100000 steps
ETITLE: TS BOND ANGLE DIHED IMPRP ELECT VDW BOUNDARY MISC KINETIC TOTAL TEMP POTENTIAL TOTAL3 TEMPAVG PRESSURE GPRESSURE VOLUME PRESSAVG GPRESSAVG
ENERGY: 800000 3.8783 3.9741 4.1190 0.0000 -11638.2256 1636.6696 0.0000 0.0000 1390.8907 -8598.6938 237.0628 -9989.5845 -8596.2571 237.0628 -246.6631 -162.3822 28721.7336 -246.6631 -162.3822
ENERGY: 900000 6.0758 4.4422 6.5504 0.0000 -11221.0017 1585.0791 0.0000 0.0000 1587.8716 -8030.9827 270.6362 -9618.8543 -8027.8679 270.2238 359.8883 415.9619 29220.5267 3.0340 3.0363
TCL: Running 1000000 steps at 300 kelvin.
TCL: Setting parameter langevinTemp to 300
TCL: Running for 1000000 steps
ETITLE: TS BOND ANGLE DIHED IMPRP ELECT VDW BOUNDARY MISC KINETIC TOTAL TEMP POTENTIAL TOTAL3 TEMPAVG PRESSURE GPRESSURE VOLUME PRESSAVG GPRESSAVG
ENERGY: 900000 6.0758 4.4422 6.5504 0.0000 -11221.0017 1585.0791 0.0000 0.0000 1587.1048 -8031.7495 270.5055 -9618.8543 -8028.8975 270.5055 329.2974 414.1163 29220.5267 329.2974 414.1163
ENERGY: 1100000 3.0716 4.9863 3.0589 0.0000 -10636.7084 1477.0480 0.0000 0.0000 1773.1486 -7375.3949 302.2147 -9148.5435 -7372.2786 300.4458 627.5650 687.5306 30235.5616 3.5777 3.5356
ENERGY: 1300000 7.4286 4.6624 5.0661 0.0000 -10506.1396 1319.2981 0.0000 0.0000 1730.3055 -7439.3789 294.9126 -9169.6843 -7435.2661 300.2018 -667.8704 -615.7543 30339.4308 3.6665 3.8466
ENERGY: 1500000 5.2658 4.6213 5.7069 0.0000 -10747.5670 1511.6916 0.0000 0.0000 1721.1371 -7499.1443 293.3499 -9220.2814 -7496.0257 300.1161 627.6655 691.8372 30265.9670 4.3222 4.0886
ENERGY: 1700000 6.1962 6.1007 11.9868 0.0000 -10642.3643 1425.5509 0.0000 0.0000 1699.3909 -7493.1387 289.6435 -9192.5296 -7489.9153 300.3618 -354.0356 -253.2514 30703.6097 2.8046 2.6735
ENERGY: 1900000 2.6654 3.5805 5.0143 0.0000 -10631.9611 1389.1064 0.0000 0.0000 1767.0956 -7464.4990 301.1830 -9231.5945 -7460.4294 300.6682 -389.3103 -347.7474 30939.3041 2.8863 2.8784
TCL: Exiting due to exit command.
