Info: SIMULATION PARAMETERS:
Info: TIMESTEP               2
Info: NUMBER OF STEPS        0
Info: STEPS PER CYCLE        10
Info: PERIODIC CELL BASIS 1  34.207 0 0
Info: PERIODIC CELL BASIS 2  0 37.796 0
Info: PERIODIC CELL BASIS 3  0 0 34.954
Info: PERIODIC CELL CENTER   0 0 0
Info: WRAPPING WATERS AROUND PERIODIC BOUNDARIES ON OUTPUT.
Info: WRAPPING ALL CLUSTERS AROUND PERIODIC BOUNDARIES ON OUTPUT.
Info: FIRST LDB TIMESTEP     50
Info: LAST LDB TIMESTEP     -1
Info: HOM BACKGROUND SCALING 1
Info: PME BACKGROUND SCALING 1
Info: MIN ATOMS PER PATCH    40
Info: EMPTY PATCH LOAD       40 ATOMS
Info: INITIAL TEMPERATURE    300
Info: CENTER OF MASS MOVING INITIALLY? NO
Info: DIELECTRIC             1
Info: EXCLUDE                SCALED ONE-FOUR
Info: 1-4 ELECTROSTATICS SCALED BY 0.833333
Info: MODIFIED 1-4 VDW PARAMETERS WILL BE USED
Info: DCD FILENAME           mobley_8337722_equil.dcd
Info: DCD FREQUENCY          100000
Info: DCD FIRST STEP         100000
Info: DCD FILE WILL CONTAIN UNIT CELL DATA
Info: XST FILENAME           mobley_8337722_equil.xst
Info: XST FREQUENCY          100000
Info: NO VELOCITY DCD OUTPUT
Info: NO FORCE DCD OUTPUT
Info: OUTPUT FILENAME        mobley_8337722_equil
Info: BINARY OUTPUT FILES WILL BE USED
Info: RESTART FILENAME       mobley_8337722_equil.restart
Info: RESTART FREQUENCY      100000
Info: BINARY RESTART FILES WILL BE USED
Info: CUTOFF                 9
Info: PAIRLIST DISTANCE      11
Info: PAIRLIST SHRINK RATE   0.01
Info: PAIRLIST GROW RATE     0.01
Info: PAIRLIST TRIGGER       0.3
Info: PAIRLISTS PER CYCLE    2
Info: PAIRLISTS ENABLED
Info: MARGIN                 8
Info: HYDROGEN GROUP CUTOFF  2.5
Info: PATCH DIMENSION        21.5
Info: ENERGY OUTPUT STEPS    100000
Info: ENERGY EVALUATION STEPS    100000
Info: OUTPUT ENERGY PRECISION 4
Info: CROSSTERM ENERGY INCLUDED IN DIHEDRAL
Info: TIMING OUTPUT STEPS    1000000
Info: PRESSURE OUTPUT STEPS  100000
Info: LANGEVIN DYNAMICS ACTIVE
Info: LANGEVIN TEMPERATURE   30
Info: LANGEVIN USING BBK INTEGRATOR
Info: LANGEVIN DAMPING COEFFICIENT IS 1 INVERSE PS
Info: LANGEVIN DYNAMICS APPLIED TO HYDROGENS
Info: LANGEVIN PISTON PRESSURE CONTROL ACTIVE
Info:        TARGET PRESSURE IS 1.01325 BAR
Info:     OSCILLATION PERIOD IS 50 FS
Info:             DECAY TIME IS 25 FS
Info:     PISTON TEMPERATURE IS 300 K
Info:       PRESSURE CONTROL IS GROUP-BASED
Info:    INITIAL STRAIN RATE IS 0 0 0
Info:       CELL FLUCTUATION IS ISOTROPIC
Info: PARTICLE MESH EWALD (PME) ACTIVE
Info: PME TOLERANCE               1e-06
Info: PME EWALD COEFFICIENT       0.348832
Info: PME INTERPOLATION ORDER     4
Info: PME GRID DIMENSIONS         36 40 36
Info: PME MAXIMUM GRID SPACING    1
Info: FULL ELECTROSTATIC EVALUATION FREQUENCY      2
Info: USING VERLET I (r-RESPA) MTS SCHEME.
Info: C1 SPLITTING OF LONG RANGE ELECTROSTATICS
Info: PLACING ATOMS IN PATCHES BY HYDROGEN GROUPS
Info: RIGID BONDS TO HYDROGEN : ALL
Info:         ERROR TOLERANCE : 1e-08
Info:          MAX ITERATIONS : 100
Info: RIGID WATER USING SETTLE ALGORITHM
Info: RANDOM NUMBER SEED     1743238007
Info: USE HYDROGEN BONDS?    NO
Info: Using AMBER format force field!
Info: AMBER PARM FILE        mobley_8337722.prmtop
Info: COORDINATE PDB         mobley_8337722.pdb
Info: Exclusions will be read from PARM file!
Info: SCNB (VDW SCALING)     2
Info: USING ARITHMETIC MEAN TO COMBINE L-J SIGMA PARAMETERS
Info: BINARY COORDINATES     mobley_8337722_min.coor
Info: SUMMARY OF PARAMETERS:
Info: 7 BONDS
Info: 7 ANGLES
Info:   7 HARMONIC
Info:   0 COSINE-BASED
Info: 9 DIHEDRAL
Info: 0 IMPROPER
Info: 0 CROSSTERM
Info: 0 VDW
Info: 21 VDW_PAIRS
Info: 0 NBTHOLE_PAIRS
Info: STRUCTURE SUMMARY:
Info: 2935 ATOMS
Info: 2935 BONDS
Info: 61 ANGLES
Info: 126 DIHEDRALS
Info: 0 IMPROPERS
Info: 0 CROSSTERMS
Info: 3086 EXCLUSIONS
Info: 2924 RIGID BONDS
Info: 5881 DEGREES OF FREEDOM
Info: 979 HYDROGEN GROUPS
Info: 4 ATOMS IN LARGEST HYDROGEN GROUP
Info: 979 MIGRATION GROUPS
Info: 4 ATOMS IN LARGEST MIGRATION GROUP
Info: TOTAL MASS = 17595.7 amu
Info: TOTAL CHARGE = -1.86265e-08 e
Info: MASS DENSITY = 0.646561 g/cm^3
Info: ATOM DENSITY = 0.0649457 atoms/A^3
Info: ADDED 0 IMPLICIT EXCLUSIONS
Info: NONBONDED TABLE R-SQUARED SPACING: 0.0625
Info: NONBONDED TABLE SIZE: 705 POINTS
Info: REMOVING COM VELOCITY -0.280553 0.165305 0.0444164
TCL: Running for 100000 steps
ETITLE: TS BOND ANGLE DIHED IMPRP ELECT VDW BOUNDARY MISC KINETIC TOTAL TEMP POTENTIAL TOTAL3 TEMPAVG PRESSURE GPRESSURE VOLUME PRESSAVG GPRESSAVG
ENERGY: 0 0.6976 1.9641 8.9306 0.0000 -13524.6087 2387.5408 0.0000 0.0000 1746.1986 -9379.2770 298.8360 -11125.4756 -9378.9500 298.8360 524.5820 551.8300 45191.5992 524.5820 551.8300
ENERGY: 100000 1.7113 4.1500 9.3304 0.0000 -14010.2050 2416.4212 0.0000 0.0000 176.3630 -11402.2292 30.1819 -11578.5922 -11401.7361 30.8839 -260.1065 -230.9353 28913.0405 3.5782 3.5778
TCL: Running 100000 steps at 60 kelvin.
TCL: Setting parameter langevinTemp to 60
TCL: Running for 100000 steps
ETITLE: TS BOND ANGLE DIHED IMPRP ELECT VDW BOUNDARY MISC KINETIC TOTAL TEMP POTENTIAL TOTAL3 TEMPAVG PRESSURE GPRESSURE VOLUME PRESSAVG GPRESSAVG
ENERGY: 100000 1.7113 4.1500 9.3304 0.0000 -14010.2050 2416.4212 0.0000 0.0000 176.2726 -11402.3196 30.1664 -11578.5922 -11401.9303 30.1664 -279.6782 -230.8361 28913.0405 -279.6782 -230.8361
ENERGY: 200000 0.9488 4.8503 8.7300 0.0000 -13924.1011 2385.2182 0.0000 0.0000 347.7753 -11176.5785 59.5166 -11524.3538 -11175.4923 59.9228 -440.7959 -367.8800 29201.0278 5.3948 5.3775
TCL: Running 100000 steps at 90 kelvin.
TCL: Setting parameter langevinTemp to 90
TCL: Running for 100000 steps
ETITLE: TS BOND ANGLE DIHED IMPRP ELECT VDW BOUNDARY MISC KINETIC TOTAL TEMP POTENTIAL TOTAL3 TEMPAVG PRESSURE GPRESSURE VOLUME PRESSAVG GPRESSAVG
ENERGY: 200000 0.9488 4.8503 8.7300 0.0000 -13924.1011 2385.2182 0.0000 0.0000 347.6036 -11176.7502 59.4872 -11524.3538 -11175.7896 59.4872 -416.8886 -367.6738 29201.0278 -416.8886 -367.6738
ENERGY: 300000 1.2125 7.9266 8.7617 0.0000 -13847.5827 2405.1201 0.0000 0.0000 533.4472 -10891.1148 91.2916 -11424.5619 -10890.0113 90.0215 442.7285 492.0345 28705.2494 4.8725 4.8043
TCL: Running 100000 steps at 120 kelvin.
TCL: Setting parameter langevinTemp to 120
TCL: Running for 100000 steps
ETITLE: TS BOND ANGLE DIHED IMPRP ELECT VDW BOUNDARY MISC KINETIC TOTAL TEMP POTENTIAL TOTAL3 TEMPAVG PRESSURE GPRESSURE VOLUME PRESSAVG GPRESSAVG
ENERGY: 300000 1.2125 7.9266 8.7617 0.0000 -13847.5827 2405.1201 0.0000 0.0000 533.1960 -10891.3660 91.2486 -11424.5619 -10890.2657 91.2486 428.4316 491.3541 28705.2494 428.4316 491.3541
ENERGY: 400000 1.4937 9.2835 8.5267 0.0000 -13624.1671 2312.6707 0.0000 0.0000 694.9098 -10597.2826 118.9235 -11292.1925 -10595.6834 120.2000 55.2127 101.6692 28916.1423 5.2083 5.1403
TCL: Running 100000 steps at 150 kelvin.
TCL: Setting parameter langevinTemp to 150
TCL: Running for 100000 steps
ETITLE: TS BOND ANGLE DIHED IMPRP ELECT VDW BOUNDARY MISC KINETIC TOTAL TEMP POTENTIAL TOTAL3 TEMPAVG PRESSURE GPRESSURE VOLUME PRESSAVG GPRESSAVG
ENERGY: 400000 1.4937 9.2835 8.5267 0.0000 -13624.1671 2312.6707 0.0000 0.0000 694.5601 -10597.6324 118.8636 -11292.1925 -10596.2006 118.8636 44.7151 100.8474 28916.1423 44.7151 100.8474
ENERGY: 500000 2.1919 9.2298 8.8634 0.0000 -13293.4618 2196.9492 0.0000 0.0000 866.2803 -10209.9472 148.2510 -11076.2275 -10208.1176 150.2208 96.4996 130.5974 28480.9751 3.7758 3.6761
TCL: Running 100000 steps at 180 kelvin.
TCL: Setting parameter langevinTemp to 180
TCL: Running for 100000 steps
ETITLE: TS BOND ANGLE DIHED IMPRP ELECT VDW BOUNDARY MISC KINETIC TOTAL TEMP POTENTIAL TOTAL3 TEMPAVG PRESSURE GPRESSURE VOLUME PRESSAVG GPRESSAVG
ENERGY: 500000 2.1919 9.2298 8.8634 0.0000 -13293.4618 2196.9492 0.0000 0.0000 865.8286 -10210.3989 148.1737 -11076.2275 -10208.5633 148.1737 77.7783 130.4219 28480.9751 77.7783 130.4219
ENERGY: 600000 2.7465 12.0540 8.3213 0.0000 -13053.9614 2144.0435 0.0000 0.0000 1047.9429 -9838.8532 179.3399 -10886.7961 -9836.0508 180.0011 313.0827 387.6114 28687.7705 2.8299 2.7905
TCL: Running 100000 steps at 210 kelvin.
TCL: Setting parameter langevinTemp to 210
TCL: Running for 100000 steps
ETITLE: TS BOND ANGLE DIHED IMPRP ELECT VDW BOUNDARY MISC KINETIC TOTAL TEMP POTENTIAL TOTAL3 TEMPAVG PRESSURE GPRESSURE VOLUME PRESSAVG GPRESSAVG
ENERGY: 600000 2.7465 12.0540 8.3213 0.0000 -13053.9614 2144.0435 0.0000 0.0000 1047.4316 -9839.3646 179.2523 -10886.7961 -9837.2636 179.2523 317.2154 388.5840 28687.7705 317.2154 388.5840
ENERGY: 700000 1.3330 13.4044 9.4637 0.0000 -12179.4618 1809.5470 0.0000 0.0000 1264.0374 -9081.6762 216.3212 -10345.7136 -9080.5089 210.1306 -494.3926 -394.5202 28785.5547 3.5955 3.6538
TCL: Running 100000 steps at 240 kelvin.
TCL: Setting parameter langevinTemp to 240
TCL: Running for 100000 steps
ETITLE: TS BOND ANGLE DIHED IMPRP ELECT VDW BOUNDARY MISC KINETIC TOTAL TEMP POTENTIAL TOTAL3 TEMPAVG PRESSURE GPRESSURE VOLUME PRESSAVG GPRESSAVG
ENERGY: 700000 1.3330 13.4044 9.4637 0.0000 -12179.4618 1809.5470 0.0000 0.0000 1263.4559 -9082.2577 216.2217 -10345.7136 -9079.4208 216.2217 -475.0454 -396.8015 28785.5547 -475.0454 -396.8015
ENERGY: 800000 3.5067 17.3630 9.9721 0.0000 -11759.2203 1730.2292 0.0000 0.0000 1345.0074 -8653.1418 230.1780 -9998.1493 -8649.2982 239.9542 186.2764 196.7086 28697.9637 4.7907 4.8595
TCL: Running 100000 steps at 270 kelvin.
TCL: Setting parameter langevinTemp to 270
TCL: Running for 100000 steps
ETITLE: TS BOND ANGLE DIHED IMPRP ELECT VDW BOUNDARY MISC KINETIC TOTAL TEMP POTENTIAL TOTAL3 TEMPAVG PRESSURE GPRESSURE VOLUME PRESSAVG GPRESSAVG
ENERGY: 800000 3.5067 17.3630 9.9721 0.0000 -11759.2203 1730.2292 0.0000 0.0000 1344.2675 -8653.8818 230.0514 -9998.1493 -8651.8088 230.0514 120.8976 196.9871 28697.9637 120.8976 196.9871
ENERGY: 900000 5.4211 14.6937 8.8513 0.0000 -11089.2849 1548.1759 0.0000 0.0000 1580.4517 -7931.6911 270.4708 -9512.1428 -7930.5640 269.5983 -127.3646 -36.6462 29829.5999 4.4956 4.5745
TCL: Running 1000000 steps at 300 kelvin.
TCL: Setting parameter langevinTemp to 300
TCL: Running for 1000000 steps
ETITLE: TS BOND ANGLE DIHED IMPRP ELECT VDW BOUNDARY MISC KINETIC TOTAL TEMP POTENTIAL TOTAL3 TEMPAVG PRESSURE GPRESSURE VOLUME PRESSAVG GPRESSAVG
ENERGY: 900000 5.4211 14.6937 8.8513 0.0000 -11089.2849 1548.1759 0.0000 0.0000 1579.6497 -7932.4930 270.3336 -9512.1428 -7930.4430 270.3336 -120.0784 -37.9040 29829.5999 -120.0784 -37.9040
ENERGY: 1100000 4.6785 18.9101 11.8978 0.0000 -10550.0999 1441.6665 0.0000 0.0000 1754.3444 -7318.6026 300.2300 -9072.9471 -7314.3658 300.4226 94.2657 221.2877 30317.1616 4.5561 4.6865
ENERGY: 1300000 7.4296 20.6930 9.1231 0.0000 -10509.2997 1367.0972 0.0000 0.0000 1830.7660 -7274.1909 313.3084 -9104.9569 -7271.5797 300.4039 -374.8931 -288.8916 30672.3988 3.6878 3.6883
ENERGY: 1500000 8.0742 14.0569 9.1285 0.0000 -10410.0660 1315.6620 0.0000 0.0000 1749.4197 -7313.7246 299.3872 -9063.1443 -7309.0076 300.5997 -711.4101 -674.9997 30467.3307 4.2406 4.2124
ENERGY: 1700000 1.8612 9.8863 8.8889 0.0000 -10533.0199 1365.6960 0.0000 0.0000 1763.3852 -7383.3024 301.7772 -9146.6876 -7380.7399 301.0179 -207.0300 -67.2296 29964.9525 3.0220 2.8714
ENERGY: 1900000 3.7398 12.7850 9.1523 0.0000 -10567.5182 1359.1317 0.0000 0.0000 1778.9509 -7403.7585 304.4410 -9182.7094 -7397.8289 299.7160 -707.2951 -584.0436 30280.6418 2.6544 2.7574
TCL: Exiting due to exit command.
