Info: SIMULATION PARAMETERS:
Info: TIMESTEP               2
Info: NUMBER OF STEPS        0
Info: STEPS PER CYCLE        10
Info: PERIODIC CELL BASIS 1  31.03 0 0
Info: PERIODIC CELL BASIS 2  0 30.3861 0
Info: PERIODIC CELL BASIS 3  0 0 32.1059
Info: PERIODIC CELL CENTER   0 0 0
Info: WRAPPING WATERS AROUND PERIODIC BOUNDARIES ON OUTPUT.
Info: WRAPPING ALL CLUSTERS AROUND PERIODIC BOUNDARIES ON OUTPUT.
Info: FIRST LDB TIMESTEP     50
Info: LAST LDB TIMESTEP     -1
Info: HOM BACKGROUND SCALING 1
Info: PME BACKGROUND SCALING 1
Info: MIN ATOMS PER PATCH    40
Info: EMPTY PATCH LOAD       40 ATOMS
Info: VELOCITY FILE          mobley_3762186_equil.vel
Info: CENTER OF MASS MOVING INITIALLY? NO
Info: DIELECTRIC             1
Info: EXCLUDE                SCALED ONE-FOUR
Info: 1-4 ELECTROSTATICS SCALED BY 0.833333
Info: MODIFIED 1-4 VDW PARAMETERS WILL BE USED
Info: DCD FILENAME           mobley_3762186_prod.dcd
Info: DCD FREQUENCY          100000
Info: DCD FIRST STEP         100000
Info: DCD FILE WILL CONTAIN UNIT CELL DATA
Info: XST FILENAME           mobley_3762186_prod.xst
Info: XST FREQUENCY          100000
Info: NO VELOCITY DCD OUTPUT
Info: NO FORCE DCD OUTPUT
Info: OUTPUT FILENAME        mobley_3762186_prod
Info: BINARY OUTPUT FILES WILL BE USED
Info: RESTART FILENAME       mobley_3762186_prod.restart
Info: RESTART FREQUENCY      100000
Info: BINARY RESTART FILES WILL BE USED
Info: CUTOFF                 9
Info: PAIRLIST DISTANCE      11
Info: PAIRLIST SHRINK RATE   0.01
Info: PAIRLIST GROW RATE     0.01
Info: PAIRLIST TRIGGER       0.3
Info: PAIRLISTS PER CYCLE    2
Info: PAIRLISTS ENABLED
Info: MARGIN                 2
Info: HYDROGEN GROUP CUTOFF  2.5
Info: PATCH DIMENSION        15.5
Info: ENERGY OUTPUT STEPS    100000
Info: ENERGY EVALUATION STEPS    100000
Info: OUTPUT ENERGY PRECISION 4
Info: CROSSTERM ENERGY INCLUDED IN DIHEDRAL
Info: TIMING OUTPUT STEPS    1000000
Info: PRESSURE OUTPUT STEPS  100000
Info: ALCHEMICAL FEP ON
Info: FEP CURRENT LAMBDA VALUE     1
Info: FEP COMPARISON LAMBDA VALUE  0.95
Info: FEP INTRA-ALCHEMICAL NON-BONDED INTERACTIONS WILL BE RETAINED
Info: FEP INTRA-ALCHEMICAL BONDED INTERACTIONS WILL BE RETAINED
Info: FEP VDW SHIFTING COEFFICIENT 5
Info: FEP ELEC. ACTIVE FOR ANNIHILATED PARTICLES BETWEEN LAMBDA = 0 AND LAMBDA = 0.5
Info: FEP ELEC. ACTIVE FOR EXNIHILATED PARTICLES BETWEEN LAMBDA = 0.5 AND LAMBDA = 1
Info: FEP VDW ACTIVE FOR ANNIHILATED PARTICLES BETWEEN LAMBDA = 0 AND LAMBDA = 1
Info: FEP VDW ACTIVE FOR EXNIHILATED PARTICLES BETWEEN LAMBDA = 0 AND LAMBDA = 1
Info: FEP BOND ACTIVE FOR ANNIHILATED PARTICLES BETWEEN LAMBDA = 1 AND LAMBDA = 1
Info: FEP BOND ACTIVE FOR EXNIHILATED PARTICLES BETWEEN LAMBDA = 0 AND LAMBDA = 0
Info: LANGEVIN DYNAMICS ACTIVE
Info: LANGEVIN TEMPERATURE   300
Info: LANGEVIN USING BBK INTEGRATOR
Info: LANGEVIN DAMPING COEFFICIENT IS 1 INVERSE PS
Info: LANGEVIN DYNAMICS APPLIED TO HYDROGENS
Info: LANGEVIN PISTON PRESSURE CONTROL ACTIVE
Info:        TARGET PRESSURE IS 1.01325 BAR
Info:     OSCILLATION PERIOD IS 50 FS
Info:             DECAY TIME IS 25 FS
Info:     PISTON TEMPERATURE IS 300 K
Info:       PRESSURE CONTROL IS GROUP-BASED
Info:    INITIAL STRAIN RATE IS 2.34053e-05 2.34053e-05 2.34053e-05
Info:       CELL FLUCTUATION IS ISOTROPIC
Info: PARTICLE MESH EWALD (PME) ACTIVE
Info: PME TOLERANCE               1e-06
Info: PME EWALD COEFFICIENT       0.348832
Info: PME INTERPOLATION ORDER     4
Info: PME GRID DIMENSIONS         32 32 36
Info: PME MAXIMUM GRID SPACING    1
Info: PME CALCULATION WILL BE PERFORMED ON GPU
Info: FULL ELECTROSTATIC EVALUATION FREQUENCY      2
Info: USING VERLET I (r-RESPA) MTS SCHEME.
Info: C1 SPLITTING OF LONG RANGE ELECTROSTATICS
Info: PLACING ATOMS IN PATCHES BY HYDROGEN GROUPS
Info: RIGID BONDS TO HYDROGEN : ALL
Info:         ERROR TOLERANCE : 1e-08
Info:          MAX ITERATIONS : 100
Info: RIGID WATER USING SETTLE ALGORITHM
Info: RANDOM NUMBER SEED     1743471223
Info: USE HYDROGEN BONDS?    NO
Info: Using AMBER format force field!
Info: AMBER PARM FILE        mobley_3762186.prmtop
Info: COORDINATE PDB         mobley_3762186.pdb
Info: Exclusions will be read from PARM file!
Info: SCNB (VDW SCALING)     2
Info: USING ARITHMETIC MEAN TO COMBINE L-J SIGMA PARAMETERS
Info: BINARY COORDINATES     mobley_3762186_equil.coor
Info: SUMMARY OF PARAMETERS:
Info: 4 BONDS
Info: 3 ANGLES
Info:   3 HARMONIC
Info:   0 COSINE-BASED
Info: 0 DIHEDRAL
Info: 0 IMPROPER
Info: 0 CROSSTERM
Info: 0 VDW
Info: 15 VDW_PAIRS
Info: 0 NBTHOLE_PAIRS
Info: To read alchdata from file: mobley_3762186.pdb
Info: To read alchflag data from column: 5
Info: STRUCTURE SUMMARY:
Info: 2909 ATOMS
Info: 2908 BONDS
Info: 6 ANGLES
Info: 0 DIHEDRALS
Info: 0 IMPROPERS
Info: 0 CROSSTERMS
Info: 2914 EXCLUSIONS
Info: 2906 RIGID BONDS
Info: ALCH: 0 ATOMS TO DISAPPEAR IN FINAL STATE
Info: ALCH: 5 ATOMS TO APPEAR IN FINAL STATE
Info: 5821 DEGREES OF FREEDOM
Info: 971 HYDROGEN GROUPS
Info: 3 ATOMS IN LARGEST HYDROGEN GROUP
Info: 971 MIGRATION GROUPS
Info: 3 ATOMS IN LARGEST MIGRATION GROUP
Info: TOTAL MASS = 17524.4 amu
Info: TOTAL CHARGE = 1.49012e-08 e
Info: MASS DENSITY = 0.961305 g/cm^3
Info: ATOM DENSITY = 0.0960953 atoms/A^3
Info: ADDED 0 IMPLICIT EXCLUSIONS
Info: NONBONDED TABLE R-SQUARED SPACING: 0.0625
Info: NONBONDED TABLE SIZE: 705 POINTS
Info: REMOVING COM VELOCITY -0.0100665 0.303044 -0.0664064
Info: Use 3D box decompostion in PME FFT.
Info: Updated CUDA force table with 4096 elements.
Info: Updated CUDA LJ table with 5 x 5 elements.
Info: Found 8 unique exclusion lists needing 8 bytes
TCL: Running for 1500000 steps
ETITLE: TS BOND ANGLE DIHED IMPRP ELECT VDW BOUNDARY MISC KINETIC TOTAL TEMP POTENTIAL TOTALAVG TEMPAVG PRESSURE GPRESSURE VOLUME PRESSAVG GPRESSAVG
ENERGY: 0 0.2040 2.7482 0.0000 0.0000 -10569.8820 1417.0645 0.0000 0.0000 1692.8912 -7456.9742 292.6994 -9149.8654 -7456.9742 292.6994 -257.6841 -184.1914 30272.0389 -257.6841 -184.1914
ENERGY: 300000 0.1385 1.3090 0.0000 0.0000 -10672.8617 1457.1964 0.0000 0.0000 1766.0589 -7448.1589 305.3500 -9214.2179 -7409.0975 300.4207 184.0840 229.2180 29769.9529 401.1624 450.4156
ENERGY: 600000 0.2415 0.4638 0.0000 0.0000 -10424.1788 1352.0152 0.0000 0.0000 1743.9468 -7327.5115 301.5269 -9071.4583 -7380.5589 301.8608 -503.0404 -407.6377 30448.9819 192.6502 259.5818
ENERGY: 900000 0.6746 2.6271 0.0000 0.0000 -10634.3567 1458.2396 0.0000 0.0000 1719.6052 -7453.2102 297.3182 -9172.8153 -7392.3031 301.9695 437.3177 482.9533 29620.7580 133.8503 198.7794
ENERGY: 1200000 0.0604 1.3318 0.0000 0.0000 -10696.5508 1505.0997 0.0000 0.0000 1753.6037 -7436.4552 303.1965 -9190.0589 -7405.5296 300.7724 657.0150 726.7923 29781.6979 143.3999 201.7000
ENERGY: 1500000 1.4458 2.8782 0.0000 0.0000 -10607.8808 1428.9702 0.0000 0.0000 1779.7083 -7394.8782 307.7100 -9174.5865 -7407.2913 301.0088 -224.8215 -131.4861 30399.8321 84.8051 150.4720
TCL: Running FEP window   2: Lambda1 0.95   Lambda2 0.8999999999999999 [dLambda -0.050000000000000044]
TCL: Setting parameter firsttimestep to 0
TCL: Setting parameter alchLambda to 0.95
Info: NONBONDED TABLE R-SQUARED SPACING: 0.0625
Info: NONBONDED TABLE SIZE: 705 POINTS
TCL: Setting parameter alchLambda2 to 0.8999999999999999
Info: NONBONDED TABLE R-SQUARED SPACING: 0.0625
Info: NONBONDED TABLE SIZE: 705 POINTS
TCL: Running for 1500000 steps
ETITLE: TS BOND ANGLE DIHED IMPRP ELECT VDW BOUNDARY MISC KINETIC TOTAL TEMP POTENTIAL TOTALAVG TEMPAVG PRESSURE GPRESSURE VOLUME PRESSAVG GPRESSAVG
ENERGY: 0 1.4458 2.8782 0.0000 0.0000 -10607.6451 1428.8918 0.0000 0.0000 1778.8498 -7395.5794 307.5616 -9174.4293 -7395.5794 307.5616 -235.9006 -138.6811 30399.8321 -235.9006 -138.6811
ENERGY: 300000 0.1603 3.8252 0.0000 0.0000 -10455.0793 1388.4126 0.0000 0.0000 1789.8525 -7272.8287 309.4639 -9062.6812 -7359.6024 306.0045 181.1062 186.9410 30019.5867 221.1247 252.0080
ENERGY: 600000 0.3447 1.3550 0.0000 0.0000 -10486.3504 1438.3079 0.0000 0.0000 1686.7914 -7359.5514 291.6448 -9046.3429 -7379.7873 301.6956 436.6838 473.3123 29813.8713 292.7655 305.1659
ENERGY: 900000 0.0032 2.8111 0.0000 0.0000 -10590.5175 1437.1517 0.0000 0.0000 1730.3438 -7420.2077 299.1749 -9150.5515 -7397.1013 300.0576 53.8721 64.5302 30345.6735 151.2597 178.4435
ENERGY: 1200000 1.4844 1.2220 0.0000 0.0000 -10597.7759 1451.8829 0.0000 0.0000 1813.8182 -7329.3684 313.6076 -9143.1866 -7395.2585 301.2004 119.7385 232.5367 30196.4997 181.5002 221.7314
ENERGY: 1500000 0.1716 3.1964 0.0000 0.0000 -10522.6228 1376.2770 0.0000 0.0000 1754.4727 -7388.5051 303.3468 -9142.9778 -7395.9873 301.0087 -420.5712 -312.4093 30140.8657 170.3069 216.9333
TCL: Running FEP window   3: Lambda1 0.8999999999999999 Lambda2 0.8499999999999999 [dLambda -0.050000000000000044]
TCL: Setting parameter firsttimestep to 0
TCL: Setting parameter alchLambda to 0.8999999999999999
Info: NONBONDED TABLE R-SQUARED SPACING: 0.0625
Info: NONBONDED TABLE SIZE: 705 POINTS
TCL: Setting parameter alchLambda2 to 0.8499999999999999
Info: NONBONDED TABLE R-SQUARED SPACING: 0.0625
Info: NONBONDED TABLE SIZE: 705 POINTS
TCL: Running for 1500000 steps
ETITLE: TS BOND ANGLE DIHED IMPRP ELECT VDW BOUNDARY MISC KINETIC TOTAL TEMP POTENTIAL TOTALAVG TEMPAVG PRESSURE GPRESSURE VOLUME PRESSAVG GPRESSAVG
ENERGY: 0 0.1716 3.1964 0.0000 0.0000 -10522.2946 1376.3015 0.0000 0.0000 1753.6117 -7389.0134 303.1979 -9142.6251 -7389.0134 303.1979 -394.2802 -316.8948 30140.8657 -394.2802 -316.8948
ENERGY: 300000 1.3901 1.0414 0.0000 0.0000 -10537.9922 1407.7413 0.0000 0.0000 1710.0290 -7417.7903 295.6625 -9127.8193 -7419.1449 298.8517 -43.6799 -13.5184 29861.2924 -46.6856 21.7801
ENERGY: 600000 0.0476 2.5025 0.0000 0.0000 -10520.1714 1362.6875 0.0000 0.0000 1727.6407 -7427.2930 298.7076 -9154.9337 -7431.5760 298.8563 -397.9943 -364.8748 29916.4650 -240.3945 -175.0824
ENERGY: 900000 0.2762 1.5934 0.0000 0.0000 -10506.9511 1320.8600 0.0000 0.0000 1757.6724 -7426.5490 303.9000 -9184.2215 -7417.5808 299.6752 -796.6747 -784.1722 30009.4297 -240.6607 -184.6173
ENERGY: 1200000 1.4900 1.1275 0.0000 0.0000 -10739.1525 1560.7425 0.0000 0.0000 1766.1653 -7409.6272 305.3684 -9175.7925 -7406.6527 301.0431 1156.8434 1231.1060 29557.5901 -32.4952 25.5814
ENERGY: 1500000 0.8928 0.9462 0.0000 0.0000 -10431.3586 1398.5907 0.0000 0.0000 1696.9490 -7333.9798 293.4010 -9030.9288 -7399.6936 300.3053 -162.5298 -83.1396 30688.5823 25.8451 78.6125
TCL: Running FEP window   4: Lambda1 0.8499999999999999 Lambda2 0.7999999999999998 [dLambda -0.050000000000000044]
TCL: Setting parameter firsttimestep to 0
TCL: Setting parameter alchLambda to 0.8499999999999999
Info: NONBONDED TABLE R-SQUARED SPACING: 0.0625
Info: NONBONDED TABLE SIZE: 705 POINTS
TCL: Setting parameter alchLambda2 to 0.7999999999999998
Info: NONBONDED TABLE R-SQUARED SPACING: 0.0625
Info: NONBONDED TABLE SIZE: 705 POINTS
TCL: Running for 1500000 steps
ETITLE: TS BOND ANGLE DIHED IMPRP ELECT VDW BOUNDARY MISC KINETIC TOTAL TEMP POTENTIAL TOTALAVG TEMPAVG PRESSURE GPRESSURE VOLUME PRESSAVG GPRESSAVG
ENERGY: 0 0.8928 0.9462 0.0000 0.0000 -10431.1138 1398.0348 0.0000 0.0000 1696.0617 -7335.1784 293.2476 -9031.2400 -7335.1784 293.2476 -181.3851 -94.7144 30688.5823 -181.3851 -94.7144
ENERGY: 300000 0.6089 1.9695 0.0000 0.0000 -10626.8952 1469.2673 0.0000 0.0000 1733.9158 -7421.1337 299.7925 -9155.0495 -7439.5280 295.4459 -56.4267 7.1963 30799.6396 -112.6536 -50.2051
ENERGY: 600000 2.1575 1.7549 0.0000 0.0000 -10473.8583 1356.5967 0.0000 0.0000 1762.2880 -7351.0611 304.6981 -9113.3491 -7442.2482 295.3593 -679.0232 -580.6425 30399.3584 -76.5194 -10.8630
ENERGY: 900000 0.6142 0.9943 0.0000 0.0000 -10457.9023 1319.8862 0.0000 0.0000 1728.3725 -7408.0351 298.8341 -9136.4076 -7430.1715 297.0788 -860.8809 -725.7928 30047.9336 -132.7775 -65.7533
ENERGY: 1200000 0.7335 0.9464 0.0000 0.0000 -10621.2350 1502.9812 0.0000 0.0000 1705.6332 -7410.9407 294.9025 -9116.5739 -7433.1096 296.7672 645.5669 695.6544 30019.3392 -65.4323 -4.2790
ENERGY: 1500000 0.5994 1.3916 0.0000 0.0000 -10566.5119 1380.0358 0.0000 0.0000 1731.6811 -7452.8042 299.4061 -9184.4852 -7431.2079 297.5174 -542.7434 -483.4994 30203.8822 -132.7552 -70.4293
TCL: Running FEP window   5: Lambda1 0.7999999999999998 Lambda2 0.7499999999999998 [dLambda -0.050000000000000044]
TCL: Setting parameter firsttimestep to 0
TCL: Setting parameter alchLambda to 0.7999999999999998
Info: NONBONDED TABLE R-SQUARED SPACING: 0.0625
Info: NONBONDED TABLE SIZE: 705 POINTS
TCL: Setting parameter alchLambda2 to 0.7499999999999998
Info: NONBONDED TABLE R-SQUARED SPACING: 0.0625
Info: NONBONDED TABLE SIZE: 705 POINTS
TCL: Running for 1500000 steps
ETITLE: TS BOND ANGLE DIHED IMPRP ELECT VDW BOUNDARY MISC KINETIC TOTAL TEMP POTENTIAL TOTALAVG TEMPAVG PRESSURE GPRESSURE VOLUME PRESSAVG GPRESSAVG
ENERGY: 0 0.5994 1.3916 0.0000 0.0000 -10566.2436 1380.4868 0.0000 0.0000 1730.7721 -7452.9938 299.2490 -9183.7659 -7452.9938 299.2490 -572.7238 -483.2683 30203.8822 -572.7238 -483.2683
ENERGY: 300000 0.0462 2.4726 0.0000 0.0000 -10594.7462 1435.1671 0.0000 0.0000 1726.0722 -7430.9881 298.4364 -9157.0603 -7435.0586 303.6715 -16.8859 40.7993 30191.3001 -27.3426 14.8760
ENERGY: 600000 1.0231 1.2014 0.0000 0.0000 -10500.2358 1343.2911 0.0000 0.0000 1719.2911 -7435.4291 297.2639 -9154.7201 -7411.1526 303.4499 -803.0853 -726.0487 30312.0680 -182.2658 -116.9768
ENERGY: 900000 0.1793 0.4150 0.0000 0.0000 -10527.2484 1401.8067 0.0000 0.0000 1736.4330 -7388.4145 300.2277 -9124.8474 -7412.0594 302.3996 46.0032 99.8530 29927.2688 -123.0462 -63.9681
ENERGY: 1200000 0.6359 0.6898 0.0000 0.0000 -10558.6982 1377.9920 0.0000 0.0000 1775.3959 -7403.9846 306.9644 -9179.3805 -7415.4276 302.9555 -400.5737 -348.2844 30164.6861 -64.8210 -2.6330
ENERGY: 1500000 0.4185 2.8075 0.0000 0.0000 -10593.8112 1471.3667 0.0000 0.0000 1751.0787 -7368.1398 302.7600 -9119.2186 -7404.5793 303.3901 -31.9588 45.6683 30907.4454 -80.1331 -18.1646
TCL: Running FEP window   6: Lambda1 0.7499999999999998 Lambda2 0.6999999999999997 [dLambda -0.050000000000000044]
TCL: Setting parameter firsttimestep to 0
TCL: Setting parameter alchLambda to 0.7499999999999998
Info: NONBONDED TABLE R-SQUARED SPACING: 0.0625
Info: NONBONDED TABLE SIZE: 705 POINTS
TCL: Setting parameter alchLambda2 to 0.6999999999999997
Info: NONBONDED TABLE R-SQUARED SPACING: 0.0625
Info: NONBONDED TABLE SIZE: 705 POINTS
TCL: Running for 1500000 steps
ETITLE: TS BOND ANGLE DIHED IMPRP ELECT VDW BOUNDARY MISC KINETIC TOTAL TEMP POTENTIAL TOTALAVG TEMPAVG PRESSURE GPRESSURE VOLUME PRESSAVG GPRESSAVG
ENERGY: 0 0.4185 2.8075 0.0000 0.0000 -10593.6289 1471.6972 0.0000 0.0000 1750.1842 -7368.5216 302.6053 -9118.7058 -7368.5216 302.6053 -32.0977 43.1867 30907.4454 -32.0977 43.1867
ENERGY: 300000 0.5137 2.4446 0.0000 0.0000 -10677.8176 1458.4959 0.0000 0.0000 1752.8244 -7463.5390 303.0618 -9216.3634 -7426.1366 298.7431 220.8956 269.3332 29844.4044 -188.5823 -124.4668
ENERGY: 600000 0.0367 2.9161 0.0000 0.0000 -10603.6746 1439.6507 0.0000 0.0000 1705.4450 -7455.6261 294.8699 -9161.0711 -7417.4479 298.4568 8.8908 46.1437 30116.0791 9.1096 65.3642
ENERGY: 900000 0.1028 1.2517 0.0000 0.0000 -10467.4445 1407.3024 0.0000 0.0000 1731.6935 -7327.0941 299.4083 -9058.7876 -7411.8310 299.0877 20.0053 109.9485 30298.9503 -17.0731 41.1445
ENERGY: 1200000 0.2490 3.2650 0.0000 0.0000 -10564.4339 1441.7099 0.0000 0.0000 1783.7392 -7335.4708 308.4069 -9119.2100 -7404.3590 300.1273 -10.8430 78.2362 30309.9148 39.3646 91.1026
ENERGY: 1500000 0.7756 2.5341 0.0000 0.0000 -10557.9545 1417.5839 0.0000 0.0000 1726.1112 -7410.9498 298.4431 -9137.0610 -7401.0305 299.9042 12.6898 84.7621 29997.6657 51.1501 104.7768
TCL: Running FEP window   7: Lambda1 0.6999999999999997 Lambda2 0.6499999999999997 [dLambda -0.050000000000000044]
TCL: Setting parameter firsttimestep to 0
TCL: Setting parameter alchLambda to 0.6999999999999997
Info: NONBONDED TABLE R-SQUARED SPACING: 0.0625
Info: NONBONDED TABLE SIZE: 705 POINTS
TCL: Setting parameter alchLambda2 to 0.6499999999999997
Info: NONBONDED TABLE R-SQUARED SPACING: 0.0625
Info: NONBONDED TABLE SIZE: 705 POINTS
TCL: Running for 1500000 steps
ETITLE: TS BOND ANGLE DIHED IMPRP ELECT VDW BOUNDARY MISC KINETIC TOTAL TEMP POTENTIAL TOTALAVG TEMPAVG PRESSURE GPRESSURE VOLUME PRESSAVG GPRESSAVG
ENERGY: 0 0.7756 2.5341 0.0000 0.0000 -10557.6684 1417.9580 0.0000 0.0000 1725.2762 -7411.1245 298.2987 -9136.4007 -7411.1245 298.2987 -5.2434 83.4215 29997.6657 -5.2434 83.4215
ENERGY: 300000 0.8232 3.1421 0.0000 0.0000 -10579.8772 1456.9354 0.0000 0.0000 1747.8695 -7371.1070 302.2051 -9118.9764 -7428.7772 298.6510 548.9239 596.5935 29710.8428 199.1664 256.5923
ENERGY: 600000 0.3278 1.8456 0.0000 0.0000 -10707.5430 1461.5386 0.0000 0.0000 1766.8243 -7477.0066 305.4824 -9243.8309 -7424.8865 299.9640 285.2538 339.2650 29679.0029 148.5433 207.3117
ENERGY: 900000 0.6015 2.2153 0.0000 0.0000 -10638.3677 1458.3373 0.0000 0.0000 1742.1844 -7435.0292 301.2222 -9177.2136 -7425.8171 299.7018 75.7573 158.3141 30229.9608 177.6544 234.4390
ENERGY: 1200000 1.6471 1.2347 0.0000 0.0000 -10595.8875 1422.5334 0.0000 0.0000 1749.4636 -7421.0087 302.4807 -9170.4723 -7430.9547 299.2626 37.0322 146.8390 29639.6958 62.4766 125.9459
ENERGY: 1500000 1.3655 1.2020 0.0000 0.0000 -10508.9453 1386.0395 0.0000 0.0000 1697.0859 -7423.2524 293.4247 -9120.3383 -7428.4826 298.9751 -187.4121 -141.5283 30064.6039 5.8109 73.5163
TCL: Running FEP window   8: Lambda1 0.6499999999999997 Lambda2 0.5999999999999996 [dLambda -0.050000000000000044]
TCL: Setting parameter firsttimestep to 0
TCL: Setting parameter alchLambda to 0.6499999999999997
Info: NONBONDED TABLE R-SQUARED SPACING: 0.0625
Info: NONBONDED TABLE SIZE: 705 POINTS
TCL: Setting parameter alchLambda2 to 0.5999999999999996
Info: NONBONDED TABLE R-SQUARED SPACING: 0.0625
Info: NONBONDED TABLE SIZE: 705 POINTS
TCL: Running for 1500000 steps
ETITLE: TS BOND ANGLE DIHED IMPRP ELECT VDW BOUNDARY MISC KINETIC TOTAL TEMP POTENTIAL TOTALAVG TEMPAVG PRESSURE GPRESSURE VOLUME PRESSAVG GPRESSAVG
ENERGY: 0 1.3655 1.2020 0.0000 0.0000 -10508.8247 1386.1916 0.0000 0.0000 1696.2226 -7423.8429 293.2754 -9120.0655 -7423.8429 293.2754 -225.1769 -143.4873 30064.6039 -225.1769 -143.4873
ENERGY: 300000 0.2620 0.6396 0.0000 0.0000 -10678.3138 1480.5716 0.0000 0.0000 1702.6970 -7494.1436 294.3948 -9196.8406 -7471.7489 293.3577 -4.7025 37.7588 30529.0321 -46.0781 25.0103
ENERGY: 600000 0.0237 1.1241 0.0000 0.0000 -10544.0129 1388.6362 0.0000 0.0000 1813.9510 -7340.2777 313.6305 -9154.2287 -7448.1120 297.6623 -397.5599 -321.2396 30407.5808 23.2540 97.8977
ENERGY: 900000 0.0220 1.7625 0.0000 0.0000 -10686.6420 1462.1983 0.0000 0.0000 1784.1052 -7438.5539 308.4702 -9222.6592 -7435.3610 299.4323 288.9558 394.5845 29562.0785 -46.1429 33.1777
ENERGY: 1200000 0.7053 1.2230 0.0000 0.0000 -10527.6658 1414.3639 0.0000 0.0000 1749.2233 -7362.1502 302.4392 -9111.3735 -7416.3606 300.4400 -127.0797 13.0563 30177.1969 -119.2519 -37.9239
ENERGY: 1500000 0.1526 1.0691 0.0000 0.0000 -10692.0141 1422.6768 0.0000 0.0000 1768.9354 -7499.1801 305.8474 -9268.1155 -7416.4481 300.7828 -265.1932 -211.4784 29774.5983 -152.9991 -73.1771
TCL: Running FEP window   9: Lambda1 0.5999999999999996 Lambda2 0.5499999999999996 [dLambda -0.050000000000000044]
TCL: Setting parameter firsttimestep to 0
TCL: Setting parameter alchLambda to 0.5999999999999996
Info: NONBONDED TABLE R-SQUARED SPACING: 0.0625
Info: NONBONDED TABLE SIZE: 705 POINTS
TCL: Setting parameter alchLambda2 to 0.5499999999999996
Info: NONBONDED TABLE R-SQUARED SPACING: 0.0625
Info: NONBONDED TABLE SIZE: 705 POINTS
TCL: Running for 1500000 steps
ETITLE: TS BOND ANGLE DIHED IMPRP ELECT VDW BOUNDARY MISC KINETIC TOTAL TEMP POTENTIAL TOTALAVG TEMPAVG PRESSURE GPRESSURE VOLUME PRESSAVG GPRESSAVG
ENERGY: 0 0.1526 1.0691 0.0000 0.0000 -10691.7753 1422.9472 0.0000 0.0000 1768.0302 -7499.5761 305.6909 -9267.6063 -7499.5761 305.6909 -296.2058 -213.0363 29774.5983 -296.2058 -213.0363
ENERGY: 300000 2.3279 2.6993 0.0000 0.0000 -10722.7768 1536.0964 0.0000 0.0000 1699.3766 -7482.2766 293.8207 -9181.6533 -7443.3762 300.0161 659.1012 751.3878 29976.8618 161.7242 230.5329
ENERGY: 600000 0.1256 1.7269 0.0000 0.0000 -10674.8537 1488.7131 0.0000 0.0000 1689.9938 -7494.2942 292.1984 -9184.2880 -7435.4054 299.1867 410.2921 493.7118 30103.6296 25.3173 95.9981
ENERGY: 900000 0.0656 0.5226 0.0000 0.0000 -10608.4396 1445.4813 0.0000 0.0000 1795.9212 -7366.4490 310.5132 -9162.3702 -7428.6681 300.3718 12.7175 88.8917 30321.0037 -17.7715 51.9791
ENERGY: 1200000 0.7874 1.6893 0.0000 0.0000 -10538.9597 1434.1443 0.0000 0.0000 1769.8168 -7332.5219 305.9998 -9102.3387 -7421.1319 300.6794 65.2065 137.3774 30160.7092 -76.7830 -3.0046
ENERGY: 1500000 1.2760 2.4938 0.0000 0.0000 -10585.6139 1426.0480 0.0000 0.0000 1750.9907 -7404.8055 302.7447 -9155.7961 -7420.8183 300.4974 -46.7075 43.0422 30048.7105 -132.3069 -64.4296
TCL: Running FEP window  10: Lambda1 0.5499999999999996 Lambda2 0.4999999999999996 [dLambda -0.04999999999999999]
TCL: Setting parameter firsttimestep to 0
TCL: Setting parameter alchLambda to 0.5499999999999996
Info: NONBONDED TABLE R-SQUARED SPACING: 0.0625
Info: NONBONDED TABLE SIZE: 705 POINTS
TCL: Setting parameter alchLambda2 to 0.4999999999999996
Info: NONBONDED TABLE R-SQUARED SPACING: 0.0625
Info: NONBONDED TABLE SIZE: 705 POINTS
TCL: Running for 1500000 steps
ETITLE: TS BOND ANGLE DIHED IMPRP ELECT VDW BOUNDARY MISC KINETIC TOTAL TEMP POTENTIAL TOTALAVG TEMPAVG PRESSURE GPRESSURE VOLUME PRESSAVG GPRESSAVG
ENERGY: 0 1.2760 2.4938 0.0000 0.0000 -10585.3096 1425.8551 0.0000 0.0000 1750.1290 -7405.5557 302.5958 -9155.6847 -7405.5557 302.5958 -46.3185 36.9185 30048.7105 -46.3185 36.9185
ENERGY: 300000 0.1404 2.7891 0.0000 0.0000 -10647.1634 1400.5491 0.0000 0.0000 1748.6365 -7495.0482 302.3377 -9243.6848 -7411.9120 302.1036 -250.7851 -201.8617 29414.3904 44.6038 113.5294
ENERGY: 600000 0.0629 4.2297 0.0000 0.0000 -10759.4578 1534.0016 0.0000 0.0000 1787.2292 -7433.9345 309.0104 -9221.1637 -7422.1932 301.9992 689.2808 748.7092 29988.3375 100.1644 157.8056
ENERGY: 900000 0.1320 2.4596 0.0000 0.0000 -10641.3996 1440.1300 0.0000 0.0000 1766.4931 -7432.1848 305.4251 -9198.6779 -7412.3233 302.1668 -76.3753 -52.3620 30245.5014 -14.3525 33.7404
ENERGY: 1200000 0.0803 1.8218 0.0000 0.0000 -10501.5422 1421.1014 0.0000 0.0000 1754.1696 -7324.3692 303.2944 -9078.5388 -7411.7688 301.6096 -8.1694 68.9450 30307.1326 -18.8673 36.6808
ENERGY: 1500000 0.0146 0.9654 0.0000 0.0000 -10508.8124 1365.7735 0.0000 0.0000 1719.8467 -7422.2121 297.3600 -9142.0589 -7402.3865 301.8226 -509.2528 -497.4034 30225.7347 -37.8902 13.7039
TCL: Running FEP window  11: Lambda1 0.4999999999999996 Lambda2 0.4499999999999996 [dLambda -0.04999999999999999]
TCL: Setting parameter firsttimestep to 0
TCL: Setting parameter alchLambda to 0.4999999999999996
Info: NONBONDED TABLE R-SQUARED SPACING: 0.0625
Info: NONBONDED TABLE SIZE: 705 POINTS
TCL: Setting parameter alchLambda2 to 0.4499999999999996
Info: NONBONDED TABLE R-SQUARED SPACING: 0.0625
Info: NONBONDED TABLE SIZE: 705 POINTS
TCL: Running for 1500000 steps
ETITLE: TS BOND ANGLE DIHED IMPRP ELECT VDW BOUNDARY MISC KINETIC TOTAL TEMP POTENTIAL TOTALAVG TEMPAVG PRESSURE GPRESSURE VOLUME PRESSAVG GPRESSAVG
ENERGY: 0 0.0146 0.9654 0.0000 0.0000 -10508.6434 1365.9682 0.0000 0.0000 1719.0122 -7422.6830 297.2157 -9141.6952 -7422.6830 297.2157 -586.1462 -501.5830 30225.7347 -586.1462 -501.5830
ENERGY: 300000 1.4464 1.0325 0.0000 0.0000 -10471.3480 1355.8677 0.0000 0.0000 1737.8357 -7375.1658 300.4703 -9113.0015 -7364.5719 301.7746 -540.4055 -527.6946 30128.4109 -101.0874 -41.5926
ENERGY: 600000 0.9821 1.3623 0.0000 0.0000 -10586.6952 1403.5918 0.0000 0.0000 1768.6758 -7412.0832 305.8025 -9180.7590 -7367.5110 302.8845 -296.2957 -241.5580 30103.7655 29.4360 72.7040
ENERGY: 900000 0.1822 0.9644 0.0000 0.0000 -10528.9314 1389.2774 0.0000 0.0000 1718.0856 -7420.4218 297.0555 -9138.5073 -7387.2910 301.8627 -459.3292 -349.0423 30337.9167 -75.5962 -19.1001
ENERGY: 1200000 2.7928 1.5457 0.0000 0.0000 -10563.9840 1415.3965 0.0000 0.0000 1724.9568 -7419.2923 298.2435 -9144.2490 -7389.0708 301.6425 -274.6238 -270.5579 30291.8677 -16.1843 35.2840
ENERGY: 1500000 0.4243 1.2684 0.0000 0.0000 -10349.6623 1309.3071 0.0000 0.0000 1781.9031 -7256.7594 308.0895 -9038.6625 -7379.0065 302.1268 -705.8391 -673.1483 30403.9651 7.1095 63.2203
TCL: Running FEP window  12: Lambda1 0.4499999999999996 Lambda2 0.39999999999999963 [dLambda -0.04999999999999999]
TCL: Setting parameter firsttimestep to 0
TCL: Setting parameter alchLambda to 0.4499999999999996
Info: NONBONDED TABLE R-SQUARED SPACING: 0.0625
Info: NONBONDED TABLE SIZE: 705 POINTS
TCL: Setting parameter alchLambda2 to 0.39999999999999963
Info: NONBONDED TABLE R-SQUARED SPACING: 0.0625
Info: NONBONDED TABLE SIZE: 705 POINTS
TCL: Running for 1500000 steps
ETITLE: TS BOND ANGLE DIHED IMPRP ELECT VDW BOUNDARY MISC KINETIC TOTAL TEMP POTENTIAL TOTALAVG TEMPAVG PRESSURE GPRESSURE VOLUME PRESSAVG GPRESSAVG
ENERGY: 0 0.4243 1.2684 0.0000 0.0000 -10349.6630 1309.3565 0.0000 0.0000 1781.0603 -7257.5534 307.9438 -9038.6137 -7257.5534 307.9438 -753.1845 -674.3447 30403.9651 -753.1845 -674.3447
ENERGY: 300000 0.6416 1.0674 0.0000 0.0000 -10600.7389 1481.6626 0.0000 0.0000 1777.0676 -7340.2997 307.2534 -9117.3673 -7365.3335 305.8374 675.0038 735.7879 29488.4784 -27.7091 0.8895
ENERGY: 600000 0.8633 2.1692 0.0000 0.0000 -10507.4272 1350.1397 0.0000 0.0000 1726.7588 -7427.4962 298.5551 -9154.2551 -7362.5408 304.0308 -742.6745 -702.8214 30233.5308 -93.9075 -47.6550
ENERGY: 900000 0.7983 2.1670 0.0000 0.0000 -10500.0298 1406.4262 0.0000 0.0000 1759.2326 -7331.4058 304.1698 -9090.6384 -7363.9149 303.4607 -40.3270 96.9932 30110.6523 28.8443 89.2745
ENERGY: 1200000 0.4073 0.8100 0.0000 0.0000 -10540.5546 1367.5491 0.0000 0.0000 1735.0732 -7436.7149 299.9926 -9171.7882 -7375.1072 304.2275 -571.9457 -445.4536 29979.0532 -3.2017 60.8503
ENERGY: 1500000 0.4002 1.3018 0.0000 0.0000 -10481.6857 1322.0144 0.0000 0.0000 1716.9311 -7441.0381 296.8559 -9157.9692 -7380.8370 304.2773 -1014.4113 -956.5587 30267.9201 -81.5126 -22.0514
TCL: Running FEP window  13: Lambda1 0.39999999999999963 Lambda2 0.34999999999999964 [dLambda -0.04999999999999999]
TCL: Setting parameter firsttimestep to 0
TCL: Setting parameter alchLambda to 0.39999999999999963
Info: NONBONDED TABLE R-SQUARED SPACING: 0.0625
Info: NONBONDED TABLE SIZE: 705 POINTS
TCL: Setting parameter alchLambda2 to 0.34999999999999964
Info: NONBONDED TABLE R-SQUARED SPACING: 0.0625
Info: NONBONDED TABLE SIZE: 705 POINTS
TCL: Running for 1500000 steps
ETITLE: TS BOND ANGLE DIHED IMPRP ELECT VDW BOUNDARY MISC KINETIC TOTAL TEMP POTENTIAL TOTALAVG TEMPAVG PRESSURE GPRESSURE VOLUME PRESSAVG GPRESSAVG
ENERGY: 0 0.4002 1.3018 0.0000 0.0000 -10481.6856 1321.6801 0.0000 0.0000 1716.0910 -7442.2126 296.7106 -9158.3035 -7442.2126 296.7106 -1038.2735 -962.8957 30267.9201 -1038.2735 -962.8957
ENERGY: 300000 0.4567 3.3990 0.0000 0.0000 -10469.1372 1295.0257 0.0000 0.0000 1719.8276 -7450.4282 297.3567 -9170.2558 -7402.9911 299.4707 -1237.3040 -1168.5660 30215.0565 -699.2606 -633.5265
ENERGY: 600000 0.6641 3.6089 0.0000 0.0000 -10614.9209 1430.5503 0.0000 0.0000 1756.2229 -7423.8747 303.6494 -9180.0977 -7411.8864 299.8707 -63.8331 -45.7062 29872.9904 -418.3784 -372.6109
ENERGY: 900000 1.9313 1.7319 0.0000 0.0000 -10419.7523 1311.2452 0.0000 0.0000 1679.3610 -7425.4829 290.3600 -9104.8439 -7397.8534 298.8532 -906.8610 -875.1413 29937.3976 -413.8214 -367.4191
ENERGY: 1200000 0.5105 1.4476 0.0000 0.0000 -10664.0732 1487.3962 0.0000 0.0000 1749.6840 -7425.0350 302.5188 -9174.7189 -7392.8077 299.4697 390.0552 477.3924 29626.6787 -288.8826 -234.1054
ENERGY: 1500000 0.1914 2.1856 0.0000 0.0000 -10662.6216 1454.9565 0.0000 0.0000 1746.8973 -7458.3908 302.0370 -9205.2881 -7404.1588 299.5094 85.0212 132.3816 29636.4917 -250.0623 -194.5097
TCL: Running FEP window  14: Lambda1 0.34999999999999964 Lambda2 0.29999999999999966 [dLambda -0.04999999999999999]
TCL: Setting parameter firsttimestep to 0
TCL: Setting parameter alchLambda to 0.34999999999999964
Info: NONBONDED TABLE R-SQUARED SPACING: 0.0625
Info: NONBONDED TABLE SIZE: 705 POINTS
TCL: Setting parameter alchLambda2 to 0.29999999999999966
Info: NONBONDED TABLE R-SQUARED SPACING: 0.0625
Info: NONBONDED TABLE SIZE: 705 POINTS
TCL: Running for 1500000 steps
ETITLE: TS BOND ANGLE DIHED IMPRP ELECT VDW BOUNDARY MISC KINETIC TOTAL TEMP POTENTIAL TOTALAVG TEMPAVG PRESSURE GPRESSURE VOLUME PRESSAVG GPRESSAVG
ENERGY: 0 0.1914 2.1856 0.0000 0.0000 -10662.6234 1454.9615 0.0000 0.0000 1746.0633 -7459.2215 301.8928 -9205.2849 -7459.2215 301.8928 22.7727 129.2820 29636.4917 22.7727 129.2820
ENERGY: 300000 0.0547 1.8017 0.0000 0.0000 -10608.5968 1404.4253 0.0000 0.0000 1777.5586 -7424.7565 307.3383 -9202.3150 -7420.4542 302.1817 -370.5110 -282.1320 29921.7171 -175.9890 -97.5246
ENERGY: 600000 0.7455 2.7300 0.0000 0.0000 -10499.1528 1391.0821 0.0000 0.0000 1749.4915 -7355.1038 302.4855 -9104.5953 -7417.7444 300.4191 -88.0472 -142.4605 30172.3379 27.4740 77.6099
ENERGY: 900000 0.2049 0.7539 0.0000 0.0000 -10550.5433 1441.8982 0.0000 0.0000 1761.2873 -7346.3989 304.5250 -9107.6863 -7405.1763 300.3731 -122.7040 -19.5325 30626.1775 53.0622 113.9747
ENERGY: 1200000 0.4585 2.9279 0.0000 0.0000 -10489.0038 1397.3739 0.0000 0.0000 1731.0556 -7357.1880 299.2980 -9088.2435 -7397.2258 299.8643 -82.6342 13.2211 30261.2523 -47.0752 10.7948
ENERGY: 1500000 0.4558 1.7898 0.0000 0.0000 -10684.3950 1475.3738 0.0000 0.0000 1714.8748 -7491.9008 296.5003 -9206.7756 -7399.6080 300.2638 217.4487 330.8928 29804.1841 -60.3812 2.1334
TCL: Running FEP window  15: Lambda1 0.29999999999999966 Lambda2 0.24999999999999967 [dLambda -0.04999999999999999]
TCL: Setting parameter firsttimestep to 0
TCL: Setting parameter alchLambda to 0.29999999999999966
Info: NONBONDED TABLE R-SQUARED SPACING: 0.0625
Info: NONBONDED TABLE SIZE: 705 POINTS
TCL: Setting parameter alchLambda2 to 0.24999999999999967
Info: NONBONDED TABLE R-SQUARED SPACING: 0.0625
Info: NONBONDED TABLE SIZE: 705 POINTS
TCL: Running for 1500000 steps
ETITLE: TS BOND ANGLE DIHED IMPRP ELECT VDW BOUNDARY MISC KINETIC TOTAL TEMP POTENTIAL TOTALAVG TEMPAVG PRESSURE GPRESSURE VOLUME PRESSAVG GPRESSAVG
ENERGY: 0 0.4558 1.7898 0.0000 0.0000 -10684.3945 1475.5159 0.0000 0.0000 1714.0096 -7492.6234 296.3508 -9206.6330 -7492.6234 296.3508 252.1633 329.1982 29804.1841 252.1633 329.1982
ENERGY: 300000 0.3782 2.7984 0.0000 0.0000 -10496.1815 1387.5607 0.0000 0.0000 1766.7087 -7338.7355 305.4624 -9105.4442 -7393.3797 303.6277 -322.4405 -224.9311 30039.8065 -118.3468 -51.7699
ENERGY: 600000 0.9990 1.5191 0.0000 0.0000 -10543.0753 1383.8591 0.0000 0.0000 1765.6361 -7391.0619 305.2769 -9156.6980 -7409.9119 302.4698 -136.2956 -98.6282 29868.3161 -289.4871 -245.1504
ENERGY: 900000 0.8664 2.6361 0.0000 0.0000 -10606.4027 1415.7429 0.0000 0.0000 1763.0179 -7424.1393 304.8242 -9187.1572 -7421.7632 301.6041 -91.4029 -81.6418 29651.0888 -241.3600 -202.9819
ENERGY: 1200000 0.3944 1.8366 0.0000 0.0000 -10579.8342 1397.6010 0.0000 0.0000 1702.8248 -7477.1773 294.4169 -9180.0021 -7428.8916 300.4737 -252.5344 -191.7991 29807.5710 -222.9042 -187.3263
ENERGY: 1500000 0.8912 1.3488 0.0000 0.0000 -10648.7308 1509.3789 0.0000 0.0000 1766.2785 -7370.8334 305.3880 -9137.1119 -7419.9352 301.0212 548.6533 668.4301 30016.8354 -224.7830 -186.9220
TCL: Running FEP window  16: Lambda1 0.24999999999999967 Lambda2 0.19999999999999968 [dLambda -0.04999999999999999]
TCL: Setting parameter firsttimestep to 0
TCL: Setting parameter alchLambda to 0.24999999999999967
Info: NONBONDED TABLE R-SQUARED SPACING: 0.0625
Info: NONBONDED TABLE SIZE: 705 POINTS
TCL: Setting parameter alchLambda2 to 0.19999999999999968
Info: NONBONDED TABLE R-SQUARED SPACING: 0.0625
Info: NONBONDED TABLE SIZE: 705 POINTS
TCL: Running for 1500000 steps
ETITLE: TS BOND ANGLE DIHED IMPRP ELECT VDW BOUNDARY MISC KINETIC TOTAL TEMP POTENTIAL TOTALAVG TEMPAVG PRESSURE GPRESSURE VOLUME PRESSAVG GPRESSAVG
ENERGY: 0 0.8912 1.3488 0.0000 0.0000 -10648.7300 1509.2531 0.0000 0.0000 1765.4343 -7371.8026 305.2420 -9137.2369 -7371.8026 305.2420 572.5824 665.1091 30016.8354 572.5824 665.1091
ENERGY: 300000 0.0101 1.0418 0.0000 0.0000 -10534.3866 1397.6466 0.0000 0.0000 1720.6560 -7415.0321 297.4999 -9135.6881 -7443.8045 296.3859 -80.4622 -38.5360 29830.4833 -131.6325 -77.9680
ENERGY: 600000 0.6551 0.6933 0.0000 0.0000 -10518.7836 1407.5583 0.0000 0.0000 1716.5619 -7393.3151 296.7920 -9109.8769 -7428.4520 297.5547 -1.0755 76.4084 30104.4696 -102.0977 -37.4319
ENERGY: 900000 0.9348 3.4632 0.0000 0.0000 -10509.0846 1331.9224 0.0000 0.0000 1736.4369 -7436.3272 300.2284 -9172.7641 -7438.3809 298.4019 -1044.9942 -953.0535 30409.0189 -83.6976 -4.5341
ENERGY: 1200000 0.3796 1.0185 0.0000 0.0000 -10510.6663 1363.1373 0.0000 0.0000 1783.7128 -7362.4181 308.4024 -9146.1309 -7428.8441 299.1987 -596.4814 -542.7189 30253.2905 -103.7301 -29.2227
ENERGY: 1500000 1.7992 2.9179 0.0000 0.0000 -10434.0835 1368.1613 0.0000 0.0000 1766.2212 -7294.9838 305.3781 -9061.2051 -7424.8310 299.1231 -231.5446 -270.1478 30313.9884 -87.5304 -17.5776
TCL: Running FEP window  17: Lambda1 0.19999999999999968 Lambda2 0.1499999999999997 [dLambda -0.04999999999999999]
TCL: Setting parameter firsttimestep to 0
TCL: Setting parameter alchLambda to 0.19999999999999968
Info: NONBONDED TABLE R-SQUARED SPACING: 0.0625
Info: NONBONDED TABLE SIZE: 705 POINTS
TCL: Setting parameter alchLambda2 to 0.1499999999999997
Info: NONBONDED TABLE R-SQUARED SPACING: 0.0625
Info: NONBONDED TABLE SIZE: 705 POINTS
TCL: Running for 1500000 steps
ETITLE: TS BOND ANGLE DIHED IMPRP ELECT VDW BOUNDARY MISC KINETIC TOTAL TEMP POTENTIAL TOTALAVG TEMPAVG PRESSURE GPRESSURE VOLUME PRESSAVG GPRESSAVG
ENERGY: 0 1.7992 2.9179 0.0000 0.0000 -10434.0825 1367.9321 0.0000 0.0000 1765.3487 -7296.0846 305.2272 -9061.4333 -7296.0846 305.2272 -336.5543 -273.4013 30313.9884 -336.5543 -273.4013
ENERGY: 300000 1.8217 0.6614 0.0000 0.0000 -10496.7867 1381.1325 0.0000 0.0000 1786.7939 -7326.3772 308.9351 -9113.1711 -7375.7897 305.8233 -472.7876 -350.3850 29968.5377 -452.0404 -391.2233
ENERGY: 600000 1.0142 0.6963 0.0000 0.0000 -10460.7590 1332.5017 0.0000 0.0000 1684.6610 -7441.8857 291.2764 -9126.5467 -7391.2929 302.6669 -600.9054 -527.6539 29726.7141 -210.6526 -158.6633
ENERGY: 900000 0.6007 2.1763 0.0000 0.0000 -10607.8260 1449.6489 0.0000 0.0000 1756.9996 -7398.4004 303.7837 -9155.4000 -7396.8677 301.9892 168.3441 183.7651 30180.4850 -99.2117 -41.6340
ENERGY: 1200000 0.6993 1.5596 0.0000 0.0000 -10591.2020 1378.9404 0.0000 0.0000 1705.8235 -7504.1793 294.9354 -9210.0028 -7412.4922 301.5315 -726.7786 -643.2488 30087.0928 -141.8966 -87.0326
ENERGY: 1500000 0.0047 4.0505 0.0000 0.0000 -10627.5474 1495.0965 0.0000 0.0000 1756.9179 -7371.4779 303.7696 -9128.3957 -7409.5671 301.4087 635.2224 659.9043 29693.1075 -20.1639 31.8438
TCL: Running FEP window  18: Lambda1 0.1499999999999997 Lambda2 0.09999999999999969 [dLambda -0.05 ]
TCL: Setting parameter firsttimestep to 0
TCL: Setting parameter alchLambda to 0.1499999999999997
Info: NONBONDED TABLE R-SQUARED SPACING: 0.0625
Info: NONBONDED TABLE SIZE: 705 POINTS
TCL: Setting parameter alchLambda2 to 0.09999999999999969
Info: NONBONDED TABLE R-SQUARED SPACING: 0.0625
Info: NONBONDED TABLE SIZE: 705 POINTS
TCL: Running for 1500000 steps
ETITLE: TS BOND ANGLE DIHED IMPRP ELECT VDW BOUNDARY MISC KINETIC TOTAL TEMP POTENTIAL TOTALAVG TEMPAVG PRESSURE GPRESSURE VOLUME PRESSAVG GPRESSAVG
ENERGY: 0 0.0047 4.0505 0.0000 0.0000 -10627.5478 1495.0876 0.0000 0.0000 1756.0552 -7372.3498 303.6204 -9128.4050 -7372.3498 303.6204 597.2326 659.9310 29693.1075 597.2326 659.9310
ENERGY: 300000 1.0652 1.2987 0.0000 0.0000 -10354.8554 1335.0195 0.0000 0.0000 1780.4576 -7237.0145 307.8396 -9017.4721 -7374.2152 302.4649 -347.0096 -327.5550 30389.9813 11.4590 69.7531
ENERGY: 600000 0.5857 0.6105 0.0000 0.0000 -10542.4075 1409.4897 0.0000 0.0000 1699.7998 -7431.9218 293.8939 -9131.7216 -7416.6378 300.0072 -243.2807 -254.6768 30219.1768 -30.4490 8.7201
ENERGY: 900000 1.3767 1.6298 0.0000 0.0000 -10603.7046 1393.5952 0.0000 0.0000 1736.6185 -7470.4844 300.2598 -9207.1028 -7403.3540 301.2210 -463.0105 -364.5997 29634.6006 -149.0178 -103.7355
ENERGY: 1200000 0.6754 1.9976 0.0000 0.0000 -10453.0769 1363.7612 0.0000 0.0000 1705.6411 -7381.0017 294.9038 -9086.6428 -7396.7400 301.3790 -139.3008 -155.4642 29858.2098 -105.6321 -67.7644
ENERGY: 1500000 0.1377 1.1531 0.0000 0.0000 -10693.0447 1508.0077 0.0000 0.0000 1712.6152 -7471.1310 296.1097 -9183.7461 -7407.9089 300.9209 516.4477 516.2318 30012.9571 -23.3720 3.4888
TCL: Running FEP window  19: Lambda1 0.09999999999999969 Lambda2 0.049999999999999684 [dLambda -0.05 ]
TCL: Setting parameter firsttimestep to 0
TCL: Setting parameter alchLambda to 0.09999999999999969
Info: NONBONDED TABLE R-SQUARED SPACING: 0.0625
Info: NONBONDED TABLE SIZE: 705 POINTS
TCL: Setting parameter alchLambda2 to 0.049999999999999684
Info: NONBONDED TABLE R-SQUARED SPACING: 0.0625
Info: NONBONDED TABLE SIZE: 705 POINTS
TCL: Running for 1500000 steps
ETITLE: TS BOND ANGLE DIHED IMPRP ELECT VDW BOUNDARY MISC KINETIC TOTAL TEMP POTENTIAL TOTALAVG TEMPAVG PRESSURE GPRESSURE VOLUME PRESSAVG GPRESSAVG
ENERGY: 0 0.1377 1.1531 0.0000 0.0000 -10693.0443 1507.9152 0.0000 0.0000 1711.7218 -7472.1165 295.9552 -9183.8383 -7472.1165 295.9552 438.1543 511.6654 30012.9571 438.1543 511.6654
ENERGY: 300000 0.0918 1.8521 0.0000 0.0000 -10545.0390 1455.9733 0.0000 0.0000 1746.1227 -7340.9991 301.9031 -9087.1218 -7432.5224 299.9105 535.0346 551.0222 29682.9358 205.4154 260.8089
ENERGY: 600000 0.4014 1.1180 0.0000 0.0000 -10673.1929 1458.4196 0.0000 0.0000 1743.3749 -7469.8789 301.4280 -9213.2538 -7426.9830 299.5164 380.8055 377.2997 29232.5671 -19.3562 26.5817
ENERGY: 900000 1.9187 1.5040 0.0000 0.0000 -10790.2509 1558.3967 0.0000 0.0000 1722.5213 -7505.9101 297.8224 -9228.4314 -7430.1072 300.1514 1014.8489 1127.4932 29381.8976 127.7245 186.8997
ENERGY: 1200000 0.6460 2.8755 0.0000 0.0000 -10562.5001 1375.0254 0.0000 0.0000 1765.3515 -7418.6017 305.2277 -9183.9531 -7419.3495 300.5226 -611.8497 -498.9303 30057.2874 -27.7708 40.8165
ENERGY: 1500000 0.2747 0.8714 0.0000 0.0000 -10626.6971 1510.2740 0.0000 0.0000 1699.5639 -7415.7131 293.8531 -9115.2770 -7412.6064 299.4357 433.2493 501.0337 30286.8299 -49.5476 26.9123
TCL: Running FEP window  20: Lambda1 0.049999999999999684 Lambda2 0.0    [dLambda -0.049999999999999684]
TCL: Setting parameter firsttimestep to 0
TCL: Setting parameter alchLambda to 0.049999999999999684
Info: NONBONDED TABLE R-SQUARED SPACING: 0.0625
Info: NONBONDED TABLE SIZE: 705 POINTS
TCL: Setting parameter alchLambda2 to 0.0
Info: NONBONDED TABLE R-SQUARED SPACING: 0.0625
Info: NONBONDED TABLE SIZE: 705 POINTS
TCL: Running for 1500000 steps
ETITLE: TS BOND ANGLE DIHED IMPRP ELECT VDW BOUNDARY MISC KINETIC TOTAL TEMP POTENTIAL TOTALAVG TEMPAVG PRESSURE GPRESSURE VOLUME PRESSAVG GPRESSAVG
ENERGY: 0 0.2747 0.8714 0.0000 0.0000 -10626.6975 1510.2812 0.0000 0.0000 1698.6888 -7416.5814 293.7018 -9115.2702 -7416.5814 293.7018 415.8899 498.8335 30286.8299 415.8899 498.8335
ENERGY: 300000 0.4133 3.7359 0.0000 0.0000 -10662.9184 1467.3462 0.0000 0.0000 1719.7117 -7471.7113 297.3366 -9191.4230 -7416.8916 297.8191 179.2531 215.8148 29685.7795 160.8065 222.6188
ENERGY: 600000 1.5552 1.5346 0.0000 0.0000 -10672.3807 1487.3070 0.0000 0.0000 1701.4833 -7480.5006 294.1850 -9181.9839 -7409.3055 297.0239 280.7758 323.3819 30203.7341 -10.9882 51.9096
ENERGY: 900000 0.0102 3.2060 0.0000 0.0000 -10645.7766 1525.3101 0.0000 0.0000 1748.7934 -7368.4569 302.3648 -9117.2503 -7391.6873 299.1768 1009.5401 1120.7391 29653.4391 52.4640 131.8082
ENERGY: 1200000 0.3159 0.7881 0.0000 0.0000 -10371.6589 1398.4441 0.0000 0.0000 1706.5619 -7265.5489 295.0631 -8972.1108 -7384.0499 299.4611 -63.1862 37.5007 30525.1345 18.5378 90.3134
ENERGY: 1500000 0.6277 1.1025 0.0000 0.0000 -10553.2061 1408.8724 0.0000 0.0000 1778.7261 -7363.8775 307.5402 -9142.6036 -7389.5869 300.3340 -231.6228 -191.1477 30141.5063 18.1253 92.3829
TCL: Exiting due to exit command.
