Info: SIMULATION PARAMETERS:
Info: TIMESTEP               2
Info: NUMBER OF STEPS        0
Info: STEPS PER CYCLE        10
Info: PERIODIC CELL BASIS 1  34.986 0 0
Info: PERIODIC CELL BASIS 2  0 36.451 0
Info: PERIODIC CELL BASIS 3  0 0 35.644
Info: PERIODIC CELL CENTER   0 0 0
Info: WRAPPING WATERS AROUND PERIODIC BOUNDARIES ON OUTPUT.
Info: WRAPPING ALL CLUSTERS AROUND PERIODIC BOUNDARIES ON OUTPUT.
Info: FIRST LDB TIMESTEP     50
Info: LAST LDB TIMESTEP     -1
Info: HOM BACKGROUND SCALING 1
Info: PME BACKGROUND SCALING 1
Info: MIN ATOMS PER PATCH    40
Info: EMPTY PATCH LOAD       40 ATOMS
Info: INITIAL TEMPERATURE    300
Info: CENTER OF MASS MOVING INITIALLY? NO
Info: DIELECTRIC             1
Info: EXCLUDE                SCALED ONE-FOUR
Info: 1-4 ELECTROSTATICS SCALED BY 0.833333
Info: MODIFIED 1-4 VDW PARAMETERS WILL BE USED
Info: DCD FILENAME           mobley_2213823_equil.dcd
Info: DCD FREQUENCY          100000
Info: DCD FIRST STEP         100000
Info: DCD FILE WILL CONTAIN UNIT CELL DATA
Info: XST FILENAME           mobley_2213823_equil.xst
Info: XST FREQUENCY          100000
Info: NO VELOCITY DCD OUTPUT
Info: NO FORCE DCD OUTPUT
Info: OUTPUT FILENAME        mobley_2213823_equil
Info: BINARY OUTPUT FILES WILL BE USED
Info: RESTART FILENAME       mobley_2213823_equil.restart
Info: RESTART FREQUENCY      100000
Info: BINARY RESTART FILES WILL BE USED
Info: CUTOFF                 9
Info: PAIRLIST DISTANCE      11
Info: PAIRLIST SHRINK RATE   0.01
Info: PAIRLIST GROW RATE     0.01
Info: PAIRLIST TRIGGER       0.3
Info: PAIRLISTS PER CYCLE    2
Info: PAIRLISTS ENABLED
Info: MARGIN                 8
Info: HYDROGEN GROUP CUTOFF  2.5
Info: PATCH DIMENSION        21.5
Info: ENERGY OUTPUT STEPS    100000
Info: ENERGY EVALUATION STEPS    100000
Info: OUTPUT ENERGY PRECISION 4
Info: CROSSTERM ENERGY INCLUDED IN DIHEDRAL
Info: TIMING OUTPUT STEPS    1000000
Info: PRESSURE OUTPUT STEPS  100000
Info: LANGEVIN DYNAMICS ACTIVE
Info: LANGEVIN TEMPERATURE   30
Info: LANGEVIN USING BBK INTEGRATOR
Info: LANGEVIN DAMPING COEFFICIENT IS 1 INVERSE PS
Info: LANGEVIN DYNAMICS APPLIED TO HYDROGENS
Info: LANGEVIN PISTON PRESSURE CONTROL ACTIVE
Info:        TARGET PRESSURE IS 1.01325 BAR
Info:     OSCILLATION PERIOD IS 50 FS
Info:             DECAY TIME IS 25 FS
Info:     PISTON TEMPERATURE IS 300 K
Info:       PRESSURE CONTROL IS GROUP-BASED
Info:    INITIAL STRAIN RATE IS 0 0 0
Info:       CELL FLUCTUATION IS ISOTROPIC
Info: PARTICLE MESH EWALD (PME) ACTIVE
Info: PME TOLERANCE               1e-06
Info: PME EWALD COEFFICIENT       0.348832
Info: PME INTERPOLATION ORDER     4
Info: PME GRID DIMENSIONS         36 40 36
Info: PME MAXIMUM GRID SPACING    1
Info: FULL ELECTROSTATIC EVALUATION FREQUENCY      2
Info: USING VERLET I (r-RESPA) MTS SCHEME.
Info: C1 SPLITTING OF LONG RANGE ELECTROSTATICS
Info: PLACING ATOMS IN PATCHES BY HYDROGEN GROUPS
Info: RIGID BONDS TO HYDROGEN : ALL
Info:         ERROR TOLERANCE : 1e-08
Info:          MAX ITERATIONS : 100
Info: RIGID WATER USING SETTLE ALGORITHM
Info: RANDOM NUMBER SEED     1743242861
Info: USE HYDROGEN BONDS?    NO
Info: Using AMBER format force field!
Info: AMBER PARM FILE        mobley_2213823.prmtop
Info: COORDINATE PDB         mobley_2213823.pdb
Info: Exclusions will be read from PARM file!
Info: SCNB (VDW SCALING)     2
Info: USING ARITHMETIC MEAN TO COMBINE L-J SIGMA PARAMETERS
Info: BINARY COORDINATES     mobley_2213823_min.coor
Info: SUMMARY OF PARAMETERS:
Info: 4 BONDS
Info: 3 ANGLES
Info:   3 HARMONIC
Info:   0 COSINE-BASED
Info: 5 DIHEDRAL
Info: 0 IMPROPER
Info: 0 CROSSTERM
Info: 0 VDW
Info: 10 VDW_PAIRS
Info: 0 NBTHOLE_PAIRS
Info: STRUCTURE SUMMARY:
Info: 2954 ATOMS
Info: 2953 BONDS
Info: 36 ANGLES
Info: 53 DIHEDRALS
Info: 0 IMPROPERS
Info: 0 CROSSTERMS
Info: 3034 EXCLUSIONS
Info: 2948 RIGID BONDS
Info: 5914 DEGREES OF FREEDOM
Info: 984 HYDROGEN GROUPS
Info: 4 ATOMS IN LARGEST HYDROGEN GROUP
Info: 984 MIGRATION GROUPS
Info: 4 ATOMS IN LARGEST MIGRATION GROUP
Info: TOTAL MASS = 17705.8 amu
Info: TOTAL CHARGE = 0.000100002 e
Info: MASS DENSITY = 0.646823 g/cm^3
Info: ATOM DENSITY = 0.0649861 atoms/A^3
Info: ADDED 0 IMPLICIT EXCLUSIONS
Info: NONBONDED TABLE R-SQUARED SPACING: 0.0625
Info: NONBONDED TABLE SIZE: 705 POINTS
Info: REMOVING COM VELOCITY 0.0411994 0.0629309 -0.190149
TCL: Running for 100000 steps
ETITLE: TS BOND ANGLE DIHED IMPRP ELECT VDW BOUNDARY MISC KINETIC TOTAL TEMP POTENTIAL TOTAL3 TEMPAVG PRESSURE GPRESSURE VOLUME PRESSAVG GPRESSAVG
ENERGY: 0 0.2195 1.2445 1.9649 0.0000 -13648.4010 2416.6680 0.0000 0.0000 1699.9660 -9528.3381 289.3006 -11228.3041 -9528.0065 289.3006 485.9735 518.3258 45455.8909 485.9735 518.3258
ENERGY: 100000 0.2703 2.7981 2.2411 0.0000 -14153.5305 2426.9012 0.0000 0.0000 178.2567 -11543.0630 30.3358 -11721.3197 -11542.6077 30.8958 -427.8503 -361.6916 29179.8930 4.4427 4.4028
TCL: Running 100000 steps at 60 kelvin.
TCL: Setting parameter langevinTemp to 60
TCL: Running for 100000 steps
ETITLE: TS BOND ANGLE DIHED IMPRP ELECT VDW BOUNDARY MISC KINETIC TOTAL TEMP POTENTIAL TOTAL3 TEMPAVG PRESSURE GPRESSURE VOLUME PRESSAVG GPRESSAVG
ENERGY: 100000 0.2703 2.7981 2.2411 0.0000 -14153.5305 2426.9012 0.0000 0.0000 178.1690 -11543.1507 30.3208 -11721.3197 -11542.7769 30.3208 -421.4198 -361.7827 29179.8930 -421.4198 -361.7827
ENERGY: 200000 0.3821 2.4349 2.4429 0.0000 -13933.9613 2291.8742 0.0000 0.0000 360.6397 -11276.1877 61.3737 -11636.8273 -11275.7087 60.1369 -1152.4504 -1124.7756 29446.3893 4.6810 4.7103
TCL: Running 100000 steps at 90 kelvin.
TCL: Setting parameter langevinTemp to 90
TCL: Running for 100000 steps
ETITLE: TS BOND ANGLE DIHED IMPRP ELECT VDW BOUNDARY MISC KINETIC TOTAL TEMP POTENTIAL TOTAL3 TEMPAVG PRESSURE GPRESSURE VOLUME PRESSAVG GPRESSAVG
ENERGY: 200000 0.3821 2.4349 2.4429 0.0000 -13933.9613 2291.8742 0.0000 0.0000 360.4676 -11276.3597 61.3445 -11636.8273 -11275.5025 61.3445 -1181.3570 -1124.8225 29446.3893 -1181.3570 -1124.8225
ENERGY: 300000 0.6387 3.9009 3.2030 0.0000 -13850.1320 2295.5354 0.0000 0.0000 540.3771 -11006.4769 91.9615 -11546.8540 -11005.0475 90.0105 -866.8050 -801.1739 29357.9811 4.2842 4.3452
TCL: Running 100000 steps at 120 kelvin.
TCL: Setting parameter langevinTemp to 120
TCL: Running for 100000 steps
ETITLE: TS BOND ANGLE DIHED IMPRP ELECT VDW BOUNDARY MISC KINETIC TOTAL TEMP POTENTIAL TOTAL3 TEMPAVG PRESSURE GPRESSURE VOLUME PRESSAVG GPRESSAVG
ENERGY: 300000 0.6387 3.9009 3.2030 0.0000 -13850.1320 2295.5354 0.0000 0.0000 540.1215 -11006.7324 91.9180 -11546.8540 -11005.3246 91.9180 -856.4952 -801.1983 29357.9811 -856.4952 -801.1983
ENERGY: 400000 0.4012 4.4659 2.7037 0.0000 -13861.6072 2427.8702 0.0000 0.0000 708.4829 -10717.6833 120.5698 -11426.1662 -10715.0191 120.1263 781.4437 801.6709 28953.3149 3.9375 3.8972
TCL: Running 100000 steps at 150 kelvin.
TCL: Setting parameter langevinTemp to 150
TCL: Running for 100000 steps
ETITLE: TS BOND ANGLE DIHED IMPRP ELECT VDW BOUNDARY MISC KINETIC TOTAL TEMP POTENTIAL TOTAL3 TEMPAVG PRESSURE GPRESSURE VOLUME PRESSAVG GPRESSAVG
ENERGY: 400000 0.4012 4.4659 2.7037 0.0000 -13861.6072 2427.8702 0.0000 0.0000 708.1323 -10718.0339 120.5101 -11426.1662 -10717.0822 120.5101 748.6153 802.7040 28953.3149 748.6153 802.7040
ENERGY: 500000 0.9543 6.6940 2.8284 0.0000 -13526.8225 2232.2534 0.0000 0.0000 900.3846 -10383.7079 153.2276 -11284.0925 -10381.8567 150.1996 -516.9595 -467.1325 29572.8885 4.0064 3.8634
TCL: Running 100000 steps at 180 kelvin.
TCL: Setting parameter langevinTemp to 180
TCL: Running for 100000 steps
ETITLE: TS BOND ANGLE DIHED IMPRP ELECT VDW BOUNDARY MISC KINETIC TOTAL TEMP POTENTIAL TOTAL3 TEMPAVG PRESSURE GPRESSURE VOLUME PRESSAVG GPRESSAVG
ENERGY: 500000 0.9543 6.6940 2.8284 0.0000 -13526.8225 2232.2534 0.0000 0.0000 899.9582 -10384.1343 153.1551 -11284.0925 -10382.3557 153.1551 -509.2817 -466.8617 29572.8885 -509.2817 -466.8617
ENERGY: 600000 1.2280 4.5148 2.7842 0.0000 -13067.2500 2105.4993 0.0000 0.0000 1056.6127 -9896.6111 179.8146 -10953.2239 -9894.1577 179.7109 44.6224 95.5349 28884.3354 3.8921 3.8891
TCL: Running 100000 steps at 210 kelvin.
TCL: Setting parameter langevinTemp to 210
TCL: Running for 100000 steps
ETITLE: TS BOND ANGLE DIHED IMPRP ELECT VDW BOUNDARY MISC KINETIC TOTAL TEMP POTENTIAL TOTAL3 TEMPAVG PRESSURE GPRESSURE VOLUME PRESSAVG GPRESSAVG
ENERGY: 600000 1.2280 4.5148 2.7842 0.0000 -13067.2500 2105.4993 0.0000 0.0000 1056.1017 -9897.1221 179.7276 -10953.2239 -9894.5079 179.7276 47.1120 96.6402 28884.3354 47.1120 96.6402
ENERGY: 700000 0.7640 7.8456 2.4273 0.0000 -12362.3261 1859.9865 0.0000 0.0000 1209.1433 -9282.1593 205.7723 -10491.3027 -9280.3787 209.9450 -430.8379 -363.4924 28983.4917 2.7244 2.6642
TCL: Running 100000 steps at 240 kelvin.
TCL: Setting parameter langevinTemp to 240
TCL: Running for 100000 steps
ETITLE: TS BOND ANGLE DIHED IMPRP ELECT VDW BOUNDARY MISC KINETIC TOTAL TEMP POTENTIAL TOTAL3 TEMPAVG PRESSURE GPRESSURE VOLUME PRESSAVG GPRESSAVG
ENERGY: 700000 0.7640 7.8456 2.4273 0.0000 -12362.3261 1859.9865 0.0000 0.0000 1208.5215 -9282.7811 205.6665 -10491.3027 -9280.4084 205.6665 -442.5185 -364.7928 28983.4917 -442.5185 -364.7928
ENERGY: 800000 2.3904 5.9565 3.5628 0.0000 -11816.1829 1737.3312 0.0000 0.0000 1441.4243 -8625.5178 245.3019 -10066.9421 -8620.2375 239.4882 77.2736 143.7373 29027.6187 4.6271 4.5955
TCL: Running 100000 steps at 270 kelvin.
TCL: Setting parameter langevinTemp to 270
TCL: Running for 100000 steps
ETITLE: TS BOND ANGLE DIHED IMPRP ELECT VDW BOUNDARY MISC KINETIC TOTAL TEMP POTENTIAL TOTAL3 TEMPAVG PRESSURE GPRESSURE VOLUME PRESSAVG GPRESSAVG
ENERGY: 800000 2.3904 5.9565 3.5628 0.0000 -11816.1829 1737.3312 0.0000 0.0000 1440.7096 -8626.2325 245.1803 -10066.9421 -8623.6436 245.1803 48.0233 145.1433 29027.6187 48.0233 145.1433
ENERGY: 900000 2.1787 7.4305 2.9620 0.0000 -11175.4981 1515.8070 0.0000 0.0000 1638.7934 -8008.3263 278.8902 -9647.1197 -8005.1759 270.0109 -654.5469 -619.8088 30143.2964 4.2436 4.1132
TCL: Running 1000000 steps at 300 kelvin.
TCL: Setting parameter langevinTemp to 300
TCL: Running for 1000000 steps
ETITLE: TS BOND ANGLE DIHED IMPRP ELECT VDW BOUNDARY MISC KINETIC TOTAL TEMP POTENTIAL TOTAL3 TEMPAVG PRESSURE GPRESSURE VOLUME PRESSAVG GPRESSAVG
ENERGY: 900000 2.1787 7.4305 2.9620 0.0000 -11175.4981 1515.8070 0.0000 0.0000 1637.9861 -8009.1337 278.7528 -9647.1197 -8006.0061 278.7528 -711.3292 -621.5472 30143.2964 -711.3292 -621.5472
ENERGY: 1100000 3.7270 8.3862 4.2595 0.0000 -10648.6199 1416.8782 0.0000 0.0000 1805.0763 -7410.2926 307.1883 -9215.3690 -7405.9296 300.1230 -228.9214 -91.8928 30234.0207 1.9044 1.9053
ENERGY: 1300000 4.3028 10.4521 3.2243 0.0000 -10559.7849 1352.1526 0.0000 0.0000 1745.2839 -7444.3691 297.0128 -9189.6530 -7438.8531 300.1143 -591.0898 -511.5521 30450.9441 3.5120 3.3818
ENERGY: 1500000 1.1482 13.4406 2.0266 0.0000 -10901.6600 1561.3787 0.0000 0.0000 1792.2807 -7531.3851 305.0107 -9323.6658 -7527.8450 299.9476 901.8867 1023.9730 30011.6208 3.0081 2.9502
ENERGY: 1700000 5.1481 7.7485 5.0427 0.0000 -10596.7715 1396.9733 0.0000 0.0000 1778.8888 -7402.9701 302.7317 -9181.8589 -7401.8819 300.9344 -257.5736 -205.9793 30531.2601 2.1653 2.0366
ENERGY: 1900000 0.6581 9.7106 3.2722 0.0000 -10789.6869 1506.7729 0.0000 0.0000 1744.6246 -7524.6483 296.9006 -9269.2730 -7521.2301 299.8595 530.5280 575.9133 30263.3658 2.1125 2.0604
TCL: Exiting due to exit command.
