Info: SIMULATION PARAMETERS:
Info: TIMESTEP               2
Info: NUMBER OF STEPS        0
Info: STEPS PER CYCLE        10
Info: PERIODIC CELL BASIS 1  34.207 0 0
Info: PERIODIC CELL BASIS 2  0 33.314 0
Info: PERIODIC CELL BASIS 3  0 0 38.379
Info: PERIODIC CELL CENTER   0 0 0
Info: WRAPPING WATERS AROUND PERIODIC BOUNDARIES ON OUTPUT.
Info: WRAPPING ALL CLUSTERS AROUND PERIODIC BOUNDARIES ON OUTPUT.
Info: FIRST LDB TIMESTEP     50
Info: LAST LDB TIMESTEP     -1
Info: HOM BACKGROUND SCALING 1
Info: PME BACKGROUND SCALING 1
Info: MIN ATOMS PER PATCH    40
Info: EMPTY PATCH LOAD       40 ATOMS
Info: INITIAL TEMPERATURE    300
Info: CENTER OF MASS MOVING INITIALLY? NO
Info: DIELECTRIC             1
Info: EXCLUDE                SCALED ONE-FOUR
Info: 1-4 ELECTROSTATICS SCALED BY 0.833333
Info: MODIFIED 1-4 VDW PARAMETERS WILL BE USED
Info: DCD FILENAME           mobley_349850_equil.dcd
Info: DCD FREQUENCY          100000
Info: DCD FIRST STEP         100000
Info: DCD FILE WILL CONTAIN UNIT CELL DATA
Info: XST FILENAME           mobley_349850_equil.xst
Info: XST FREQUENCY          100000
Info: NO VELOCITY DCD OUTPUT
Info: NO FORCE DCD OUTPUT
Info: OUTPUT FILENAME        mobley_349850_equil
Info: BINARY OUTPUT FILES WILL BE USED
Info: RESTART FILENAME       mobley_349850_equil.restart
Info: RESTART FREQUENCY      100000
Info: BINARY RESTART FILES WILL BE USED
Info: CUTOFF                 9
Info: PAIRLIST DISTANCE      11
Info: PAIRLIST SHRINK RATE   0.01
Info: PAIRLIST GROW RATE     0.01
Info: PAIRLIST TRIGGER       0.3
Info: PAIRLISTS PER CYCLE    2
Info: PAIRLISTS ENABLED
Info: MARGIN                 8
Info: HYDROGEN GROUP CUTOFF  2.5
Info: PATCH DIMENSION        21.5
Info: ENERGY OUTPUT STEPS    100000
Info: ENERGY EVALUATION STEPS    100000
Info: OUTPUT ENERGY PRECISION 4
Info: CROSSTERM ENERGY INCLUDED IN DIHEDRAL
Info: TIMING OUTPUT STEPS    1000000
Info: PRESSURE OUTPUT STEPS  100000
Info: LANGEVIN DYNAMICS ACTIVE
Info: LANGEVIN TEMPERATURE   30
Info: LANGEVIN USING BBK INTEGRATOR
Info: LANGEVIN DAMPING COEFFICIENT IS 1 INVERSE PS
Info: LANGEVIN DYNAMICS APPLIED TO HYDROGENS
Info: LANGEVIN PISTON PRESSURE CONTROL ACTIVE
Info:        TARGET PRESSURE IS 1.01325 BAR
Info:     OSCILLATION PERIOD IS 50 FS
Info:             DECAY TIME IS 25 FS
Info:     PISTON TEMPERATURE IS 300 K
Info:       PRESSURE CONTROL IS GROUP-BASED
Info:    INITIAL STRAIN RATE IS 0 0 0
Info:       CELL FLUCTUATION IS ISOTROPIC
Info: PARTICLE MESH EWALD (PME) ACTIVE
Info: PME TOLERANCE               1e-06
Info: PME EWALD COEFFICIENT       0.348832
Info: PME INTERPOLATION ORDER     4
Info: PME GRID DIMENSIONS         36 36 40
Info: PME MAXIMUM GRID SPACING    1
Info: FULL ELECTROSTATIC EVALUATION FREQUENCY      2
Info: USING VERLET I (r-RESPA) MTS SCHEME.
Info: C1 SPLITTING OF LONG RANGE ELECTROSTATICS
Info: PLACING ATOMS IN PATCHES BY HYDROGEN GROUPS
Info: RIGID BONDS TO HYDROGEN : ALL
Info:         ERROR TOLERANCE : 1e-08
Info:          MAX ITERATIONS : 100
Info: RIGID WATER USING SETTLE ALGORITHM
Info: RANDOM NUMBER SEED     1743233380
Info: USE HYDROGEN BONDS?    NO
Info: Using AMBER format force field!
Info: AMBER PARM FILE        mobley_349850.prmtop
Info: COORDINATE PDB         mobley_349850.pdb
Info: Exclusions will be read from PARM file!
Info: SCNB (VDW SCALING)     2
Info: USING ARITHMETIC MEAN TO COMBINE L-J SIGMA PARAMETERS
Info: BINARY COORDINATES     mobley_349850_min.coor
Info: SUMMARY OF PARAMETERS:
Info: 9 BONDS
Info: 10 ANGLES
Info:   10 HARMONIC
Info:   0 COSINE-BASED
Info: 8 DIHEDRAL
Info: 0 IMPROPER
Info: 0 CROSSTERM
Info: 0 VDW
Info: 28 VDW_PAIRS
Info: 0 NBTHOLE_PAIRS
Info: STRUCTURE SUMMARY:
Info: 2924 ATOMS
Info: 2924 BONDS
Info: 33 ANGLES
Info: 53 DIHEDRALS
Info: 0 IMPROPERS
Info: 0 CROSSTERMS
Info: 2994 EXCLUSIONS
Info: 2914 RIGID BONDS
Info: 5858 DEGREES OF FREEDOM
Info: 978 HYDROGEN GROUPS
Info: 4 ATOMS IN LARGEST HYDROGEN GROUP
Info: 978 MIGRATION GROUPS
Info: 4 ATOMS IN LARGEST MIGRATION GROUP
Info: TOTAL MASS = 17573.7 amu
Info: TOTAL CHARGE = -0.000100061 e
Info: MASS DENSITY = 0.667246 g/cm^3
Info: ATOM DENSITY = 0.0668562 atoms/A^3
Info: ADDED 0 IMPLICIT EXCLUSIONS
Info: NONBONDED TABLE R-SQUARED SPACING: 0.0625
Info: NONBONDED TABLE SIZE: 705 POINTS
Info: REMOVING COM VELOCITY -0.0309612 0.220833 -0.111566
TCL: Running for 100000 steps
ETITLE: TS BOND ANGLE DIHED IMPRP ELECT VDW BOUNDARY MISC KINETIC TOTAL TEMP POTENTIAL TOTAL3 TEMPAVG PRESSURE GPRESSURE VOLUME PRESSAVG GPRESSAVG
ENERGY: 0 0.3574 0.7149 2.4163 0.0000 -13523.3425 2396.8076 0.0000 0.0000 1729.7263 -9393.3199 297.1792 -11123.0462 -9392.9801 297.1792 570.0921 612.9365 43735.6337 570.0921 612.9365
ENERGY: 100000 1.3107 1.4133 3.0017 0.0000 -13935.9472 2323.8070 0.0000 0.0000 172.9194 -11433.4950 29.7088 -11606.4145 -11432.9351 30.8689 -1010.7769 -929.2912 28503.1789 3.4279 3.4515
TCL: Running 100000 steps at 60 kelvin.
TCL: Setting parameter langevinTemp to 60
TCL: Running for 100000 steps
ETITLE: TS BOND ANGLE DIHED IMPRP ELECT VDW BOUNDARY MISC KINETIC TOTAL TEMP POTENTIAL TOTAL3 TEMPAVG PRESSURE GPRESSURE VOLUME PRESSAVG GPRESSAVG
ENERGY: 100000 1.3107 1.4133 3.0017 0.0000 -13935.9472 2323.8070 0.0000 0.0000 172.8320 -11433.5824 29.6938 -11606.4145 -11433.1862 29.6938 -996.4356 -929.1570 28503.1789 -996.4356 -929.1570
ENERGY: 200000 0.4019 2.8141 4.1475 0.0000 -14026.6635 2464.3559 0.0000 0.0000 351.0642 -11203.8800 60.3153 -11554.9441 -11203.2757 59.9046 606.9550 670.9031 28142.6686 2.9563 3.0035
TCL: Running 100000 steps at 90 kelvin.
TCL: Setting parameter langevinTemp to 90
TCL: Running for 100000 steps
ETITLE: TS BOND ANGLE DIHED IMPRP ELECT VDW BOUNDARY MISC KINETIC TOTAL TEMP POTENTIAL TOTAL3 TEMPAVG PRESSURE GPRESSURE VOLUME PRESSAVG GPRESSAVG
ENERGY: 200000 0.4019 2.8141 4.1475 0.0000 -14026.6635 2464.3559 0.0000 0.0000 350.8911 -11204.0530 60.2856 -11554.9441 -11203.3369 60.2856 616.6225 670.1909 28142.6686 616.6225 670.1909
ENERGY: 300000 1.6837 3.8928 3.0021 0.0000 -13832.0850 2381.3671 0.0000 0.0000 528.0064 -10914.1329 90.7152 -11442.1393 -10912.0637 90.0288 141.2977 214.2909 28291.9227 5.3279 5.3955
TCL: Running 100000 steps at 120 kelvin.
TCL: Setting parameter langevinTemp to 120
TCL: Running for 100000 steps
ETITLE: TS BOND ANGLE DIHED IMPRP ELECT VDW BOUNDARY MISC KINETIC TOTAL TEMP POTENTIAL TOTAL3 TEMPAVG PRESSURE GPRESSURE VOLUME PRESSAVG GPRESSAVG
ENERGY: 300000 1.6837 3.8928 3.0021 0.0000 -13832.0850 2381.3671 0.0000 0.0000 527.7431 -10914.3962 90.6700 -11442.1393 -10913.4561 90.6700 154.7658 215.7089 28291.9227 154.7658 215.7089
ENERGY: 400000 2.5845 4.1844 4.5523 0.0000 -13832.3379 2499.9745 0.0000 0.0000 694.9573 -10626.0848 119.3986 -11321.0422 -10624.1641 120.3689 1763.0145 1789.4644 28003.5198 3.8604 3.7867
TCL: Running 100000 steps at 150 kelvin.
TCL: Setting parameter langevinTemp to 150
TCL: Running for 100000 steps
ETITLE: TS BOND ANGLE DIHED IMPRP ELECT VDW BOUNDARY MISC KINETIC TOTAL TEMP POTENTIAL TOTAL3 TEMPAVG PRESSURE GPRESSURE VOLUME PRESSAVG GPRESSAVG
ENERGY: 400000 2.5845 4.1844 4.5523 0.0000 -13832.3379 2499.9745 0.0000 0.0000 694.6050 -10626.4372 119.3380 -11321.0422 -10625.0040 119.3380 1729.5054 1789.7254 28003.5198 1729.5054 1789.7254
ENERGY: 500000 3.3339 1.9803 3.9261 0.0000 -13326.3829 2142.4481 0.0000 0.0000 879.6137 -10295.0807 151.1238 -11174.6944 -10293.3792 149.7656 -656.7898 -581.8481 28286.0696 4.5204 4.4203
TCL: Running 100000 steps at 180 kelvin.
TCL: Setting parameter langevinTemp to 180
TCL: Running for 100000 steps
ETITLE: TS BOND ANGLE DIHED IMPRP ELECT VDW BOUNDARY MISC KINETIC TOTAL TEMP POTENTIAL TOTAL3 TEMPAVG PRESSURE GPRESSURE VOLUME PRESSAVG GPRESSAVG
ENERGY: 500000 3.3339 1.9803 3.9261 0.0000 -13326.3829 2142.4481 0.0000 0.0000 879.1706 -10295.5238 151.0477 -11174.6944 -10293.8340 151.0477 -653.9127 -582.9698 28286.0696 -653.9127 -582.9698
ENERGY: 600000 2.5731 2.8318 4.0766 0.0000 -13025.8847 2116.8291 0.0000 0.0000 1007.9893 -9891.5847 173.1797 -10899.5740 -9888.1556 180.2262 -121.9476 -51.1979 28803.1737 4.5605 4.5728
TCL: Running 100000 steps at 210 kelvin.
TCL: Setting parameter langevinTemp to 210
TCL: Running for 100000 steps
ETITLE: TS BOND ANGLE DIHED IMPRP ELECT VDW BOUNDARY MISC KINETIC TOTAL TEMP POTENTIAL TOTAL3 TEMPAVG PRESSURE GPRESSURE VOLUME PRESSAVG GPRESSAVG
ENERGY: 600000 2.5731 2.8318 4.0766 0.0000 -13025.8847 2116.8291 0.0000 0.0000 1007.4713 -9892.1027 173.0907 -10899.5740 -9890.0409 173.0907 -116.8430 -50.8127 28803.1737 -116.8430 -50.8127
ENERGY: 700000 1.0971 3.1780 3.9071 0.0000 -12237.4576 1850.1317 0.0000 0.0000 1225.8800 -9153.2637 210.6148 -10379.1437 -9150.8557 210.2118 -154.7882 -145.3524 28783.3111 4.9493 5.0356
TCL: Running 100000 steps at 240 kelvin.
TCL: Setting parameter langevinTemp to 240
TCL: Running for 100000 steps
ETITLE: TS BOND ANGLE DIHED IMPRP ELECT VDW BOUNDARY MISC KINETIC TOTAL TEMP POTENTIAL TOTAL3 TEMPAVG PRESSURE GPRESSURE VOLUME PRESSAVG GPRESSAVG
ENERGY: 700000 1.0971 3.1780 3.9071 0.0000 -12237.4576 1850.1317 0.0000 0.0000 1225.2810 -9153.8627 210.5119 -10379.1437 -9151.5266 210.5119 -219.3455 -146.2542 28783.3111 -219.3455 -146.2542
ENERGY: 800000 2.9477 5.9163 6.1260 0.0000 -11746.4096 1765.0505 0.0000 0.0000 1412.6119 -8553.7571 242.6967 -9966.3690 -8550.5670 239.9999 225.5480 321.5177 29466.6005 3.4104 3.5940
TCL: Running 100000 steps at 270 kelvin.
TCL: Setting parameter langevinTemp to 270
TCL: Running for 100000 steps
ETITLE: TS BOND ANGLE DIHED IMPRP ELECT VDW BOUNDARY MISC KINETIC TOTAL TEMP POTENTIAL TOTAL3 TEMPAVG PRESSURE GPRESSURE VOLUME PRESSAVG GPRESSAVG
ENERGY: 800000 2.9477 5.9163 6.1260 0.0000 -11746.4096 1765.0505 0.0000 0.0000 1411.9400 -8554.4290 242.5813 -9966.3690 -8551.8200 242.5813 242.9997 320.8038 29466.6005 242.9997 320.8038
ENERGY: 900000 2.3120 4.2272 6.8387 0.0000 -11160.7904 1592.2435 0.0000 0.0000 1579.5895 -7975.5794 271.3846 -9555.1689 -7971.7401 269.3889 218.6353 354.5708 29123.1639 3.6135 3.5592
TCL: Running 1000000 steps at 300 kelvin.
TCL: Setting parameter langevinTemp to 300
TCL: Running for 1000000 steps
ETITLE: TS BOND ANGLE DIHED IMPRP ELECT VDW BOUNDARY MISC KINETIC TOTAL TEMP POTENTIAL TOTAL3 TEMPAVG PRESSURE GPRESSURE VOLUME PRESSAVG GPRESSAVG
ENERGY: 900000 2.3120 4.2272 6.8387 0.0000 -11160.7904 1592.2435 0.0000 0.0000 1578.7999 -7976.3690 271.2490 -9555.1689 -7974.3102 271.2490 255.5720 357.4027 29123.1639 255.5720 357.4027
ENERGY: 1100000 3.9057 6.1162 8.3555 0.0000 -10496.6860 1347.5322 0.0000 0.0000 1709.0491 -7421.7271 293.6267 -9130.7763 -7416.9625 300.4388 -532.7486 -481.9399 30164.2699 3.1625 3.2669
ENERGY: 1300000 3.2474 7.7547 5.4303 0.0000 -10573.4946 1451.9048 0.0000 0.0000 1725.4595 -7379.6980 296.4461 -9105.1575 -7375.5176 300.0163 274.2365 358.8648 30188.7786 3.6518 3.4949
ENERGY: 1500000 2.3928 10.7380 5.8839 0.0000 -10542.9530 1338.8358 0.0000 0.0000 1694.3283 -7490.7740 291.0976 -9185.1024 -7484.6877 300.2145 -706.7129 -649.3725 29998.2956 3.0289 3.0278
ENERGY: 1700000 2.9418 7.9075 9.1409 0.0000 -10597.5492 1436.4936 0.0000 0.0000 1751.6091 -7389.4563 300.9388 -9141.0654 -7386.7255 300.1316 276.6102 380.2811 29961.9602 3.6829 3.7817
ENERGY: 1900000 2.2011 4.4212 4.3715 0.0000 -10578.0684 1411.3809 0.0000 0.0000 1715.0160 -7440.6777 294.6519 -9155.6937 -7434.7037 299.9306 -136.9921 -116.5066 30435.6044 2.8900 2.7907
TCL: Exiting due to exit command.
