Info: SIMULATION PARAMETERS:
Info: TIMESTEP               2
Info: NUMBER OF STEPS        0
Info: STEPS PER CYCLE        10
Info: PERIODIC CELL BASIS 1  35.89 0 0
Info: PERIODIC CELL BASIS 2  0 34.1 0
Info: PERIODIC CELL BASIS 3  0 0 36.199
Info: PERIODIC CELL CENTER   0 0 0
Info: WRAPPING WATERS AROUND PERIODIC BOUNDARIES ON OUTPUT.
Info: WRAPPING ALL CLUSTERS AROUND PERIODIC BOUNDARIES ON OUTPUT.
Info: FIRST LDB TIMESTEP     50
Info: LAST LDB TIMESTEP     -1
Info: HOM BACKGROUND SCALING 1
Info: PME BACKGROUND SCALING 1
Info: MIN ATOMS PER PATCH    40
Info: EMPTY PATCH LOAD       40 ATOMS
Info: INITIAL TEMPERATURE    300
Info: CENTER OF MASS MOVING INITIALLY? NO
Info: DIELECTRIC             1
Info: EXCLUDE                SCALED ONE-FOUR
Info: 1-4 ELECTROSTATICS SCALED BY 0.833333
Info: MODIFIED 1-4 VDW PARAMETERS WILL BE USED
Info: DCD FILENAME           mobley_5747188_equil.dcd
Info: DCD FREQUENCY          100000
Info: DCD FIRST STEP         100000
Info: DCD FILE WILL CONTAIN UNIT CELL DATA
Info: XST FILENAME           mobley_5747188_equil.xst
Info: XST FREQUENCY          100000
Info: NO VELOCITY DCD OUTPUT
Info: NO FORCE DCD OUTPUT
Info: OUTPUT FILENAME        mobley_5747188_equil
Info: BINARY OUTPUT FILES WILL BE USED
Info: RESTART FILENAME       mobley_5747188_equil.restart
Info: RESTART FREQUENCY      100000
Info: BINARY RESTART FILES WILL BE USED
Info: CUTOFF                 9
Info: PAIRLIST DISTANCE      11
Info: PAIRLIST SHRINK RATE   0.01
Info: PAIRLIST GROW RATE     0.01
Info: PAIRLIST TRIGGER       0.3
Info: PAIRLISTS PER CYCLE    2
Info: PAIRLISTS ENABLED
Info: MARGIN                 8
Info: HYDROGEN GROUP CUTOFF  2.5
Info: PATCH DIMENSION        21.5
Info: ENERGY OUTPUT STEPS    100000
Info: ENERGY EVALUATION STEPS    100000
Info: OUTPUT ENERGY PRECISION 4
Info: CROSSTERM ENERGY INCLUDED IN DIHEDRAL
Info: TIMING OUTPUT STEPS    1000000
Info: PRESSURE OUTPUT STEPS  100000
Info: LANGEVIN DYNAMICS ACTIVE
Info: LANGEVIN TEMPERATURE   30
Info: LANGEVIN USING BBK INTEGRATOR
Info: LANGEVIN DAMPING COEFFICIENT IS 1 INVERSE PS
Info: LANGEVIN DYNAMICS APPLIED TO HYDROGENS
Info: LANGEVIN PISTON PRESSURE CONTROL ACTIVE
Info:        TARGET PRESSURE IS 1.01325 BAR
Info:     OSCILLATION PERIOD IS 50 FS
Info:             DECAY TIME IS 25 FS
Info:     PISTON TEMPERATURE IS 300 K
Info:       PRESSURE CONTROL IS GROUP-BASED
Info:    INITIAL STRAIN RATE IS 0 0 0
Info:       CELL FLUCTUATION IS ISOTROPIC
Info: PARTICLE MESH EWALD (PME) ACTIVE
Info: PME TOLERANCE               1e-06
Info: PME EWALD COEFFICIENT       0.348832
Info: PME INTERPOLATION ORDER     4
Info: PME GRID DIMENSIONS         36 36 40
Info: PME MAXIMUM GRID SPACING    1
Info: FULL ELECTROSTATIC EVALUATION FREQUENCY      2
Info: USING VERLET I (r-RESPA) MTS SCHEME.
Info: C1 SPLITTING OF LONG RANGE ELECTROSTATICS
Info: PLACING ATOMS IN PATCHES BY HYDROGEN GROUPS
Info: RIGID BONDS TO HYDROGEN : ALL
Info:         ERROR TOLERANCE : 1e-08
Info:          MAX ITERATIONS : 100
Info: RIGID WATER USING SETTLE ALGORITHM
Info: RANDOM NUMBER SEED     1743230994
Info: USE HYDROGEN BONDS?    NO
Info: Using AMBER format force field!
Info: AMBER PARM FILE        mobley_5747188.prmtop
Info: COORDINATE PDB         mobley_5747188.pdb
Info: Exclusions will be read from PARM file!
Info: SCNB (VDW SCALING)     2
Info: USING ARITHMETIC MEAN TO COMBINE L-J SIGMA PARAMETERS
Info: BINARY COORDINATES     mobley_5747188_min.coor
Info: SUMMARY OF PARAMETERS:
Info: 8 BONDS
Info: 8 ANGLES
Info:   8 HARMONIC
Info:   0 COSINE-BASED
Info: 4 DIHEDRAL
Info: 0 IMPROPER
Info: 0 CROSSTERM
Info: 0 VDW
Info: 36 VDW_PAIRS
Info: 0 NBTHOLE_PAIRS
Info: STRUCTURE SUMMARY:
Info: 2921 ATOMS
Info: 2921 BONDS
Info: 27 ANGLES
Info: 40 DIHEDRALS
Info: 0 IMPROPERS
Info: 0 CROSSTERMS
Info: 2979 EXCLUSIONS
Info: 2911 RIGID BONDS
Info: 5852 DEGREES OF FREEDOM
Info: 978 HYDROGEN GROUPS
Info: 4 ATOMS IN LARGEST HYDROGEN GROUP
Info: 978 MIGRATION GROUPS
Info: 4 ATOMS IN LARGEST MIGRATION GROUP
Info: TOTAL MASS = 17576.6 amu
Info: TOTAL CHARGE = 0.000100022 e
Info: MASS DENSITY = 0.658825 g/cm^3
Info: ATOM DENSITY = 0.0659337 atoms/A^3
Info: ADDED 0 IMPLICIT EXCLUSIONS
Info: NONBONDED TABLE R-SQUARED SPACING: 0.0625
Info: NONBONDED TABLE SIZE: 705 POINTS
Info: REMOVING COM VELOCITY -0.0691743 -0.0915628 0.0248422
TCL: Running for 100000 steps
ETITLE: TS BOND ANGLE DIHED IMPRP ELECT VDW BOUNDARY MISC KINETIC TOTAL TEMP POTENTIAL TOTAL3 TEMPAVG PRESSURE GPRESSURE VOLUME PRESSAVG GPRESSAVG
ENERGY: 0 0.4411 0.5040 2.2747 0.0000 -13483.0754 2380.5791 0.0000 0.0000 1819.6203 -9279.6562 312.9442 -11099.2765 -9279.2968 312.9442 563.6730 600.8822 44302.1100 563.6730 600.8822
ENERGY: 100000 0.6554 0.6834 3.1670 0.0000 -14051.0128 2467.1347 0.0000 0.0000 173.0602 -11406.3121 29.7634 -11579.3723 -11405.9267 30.9698 151.9071 193.8629 28668.8818 3.2251 3.2666
TCL: Running 100000 steps at 60 kelvin.
TCL: Setting parameter langevinTemp to 60
TCL: Running for 100000 steps
ETITLE: TS BOND ANGLE DIHED IMPRP ELECT VDW BOUNDARY MISC KINETIC TOTAL TEMP POTENTIAL TOTAL3 TEMPAVG PRESSURE GPRESSURE VOLUME PRESSAVG GPRESSAVG
ENERGY: 100000 0.6554 0.6834 3.1670 0.0000 -14051.0128 2467.1347 0.0000 0.0000 172.9742 -11406.3981 29.7487 -11579.3723 -11406.0777 29.7487 145.1905 193.6931 28668.8818 145.1905 193.6931
ENERGY: 200000 0.5478 1.4946 3.5677 0.0000 -14127.4586 2618.2155 0.0000 0.0000 348.7736 -11154.8594 59.9832 -11503.6330 -11154.4397 59.9374 2057.5494 2074.0598 28243.7277 4.6633 4.6782
TCL: Running 100000 steps at 90 kelvin.
TCL: Setting parameter langevinTemp to 90
TCL: Running for 100000 steps
ETITLE: TS BOND ANGLE DIHED IMPRP ELECT VDW BOUNDARY MISC KINETIC TOTAL TEMP POTENTIAL TOTAL3 TEMPAVG PRESSURE GPRESSURE VOLUME PRESSAVG GPRESSAVG
ENERGY: 200000 0.5478 1.4946 3.5677 0.0000 -14127.4586 2618.2155 0.0000 0.0000 348.6002 -11155.0328 59.9534 -11503.6330 -11154.4431 59.9534 2037.0088 2073.7861 28243.7277 2037.0088 2073.7861
ENERGY: 300000 0.6166 1.6062 3.0333 0.0000 -13805.4621 2384.3280 0.0000 0.0000 522.5940 -10893.2839 89.8774 -11415.8779 -10892.3670 90.1340 234.4679 312.8592 28611.8050 2.6110 2.6699
TCL: Running 100000 steps at 120 kelvin.
TCL: Setting parameter langevinTemp to 120
TCL: Running for 100000 steps
ETITLE: TS BOND ANGLE DIHED IMPRP ELECT VDW BOUNDARY MISC KINETIC TOTAL TEMP POTENTIAL TOTAL3 TEMPAVG PRESSURE GPRESSURE VOLUME PRESSAVG GPRESSAVG
ENERGY: 300000 0.6166 1.6062 3.0333 0.0000 -13805.4621 2384.3280 0.0000 0.0000 522.3486 -10893.5294 89.8352 -11415.8779 -10892.4324 89.8352 252.1728 312.3640 28611.8050 252.1728 312.3640
ENERGY: 400000 1.1155 1.9159 3.0099 0.0000 -13664.1541 2353.9785 0.0000 0.0000 715.3709 -10588.7634 123.0318 -11304.1343 -10587.5010 120.2411 514.4190 551.3604 28475.4235 3.0330 3.0811
TCL: Running 100000 steps at 150 kelvin.
TCL: Setting parameter langevinTemp to 150
TCL: Running for 100000 steps
ETITLE: TS BOND ANGLE DIHED IMPRP ELECT VDW BOUNDARY MISC KINETIC TOTAL TEMP POTENTIAL TOTAL3 TEMPAVG PRESSURE GPRESSURE VOLUME PRESSAVG GPRESSAVG
ENERGY: 400000 1.1155 1.9159 3.0099 0.0000 -13664.1541 2353.9785 0.0000 0.0000 715.0383 -10589.0960 122.9746 -11304.1343 -10587.6471 122.9746 503.1193 550.9279 28475.4235 503.1193 550.9279
ENERGY: 500000 2.4791 1.6419 5.1381 0.0000 -13489.1776 2325.6381 0.0000 0.0000 857.3632 -10296.9173 147.4521 -11154.2805 -10294.1622 149.8099 605.5990 661.7734 28752.0175 3.0619 3.3035
TCL: Running 100000 steps at 180 kelvin.
TCL: Setting parameter langevinTemp to 180
TCL: Running for 100000 steps
ETITLE: TS BOND ANGLE DIHED IMPRP ELECT VDW BOUNDARY MISC KINETIC TOTAL TEMP POTENTIAL TOTAL3 TEMPAVG PRESSURE GPRESSURE VOLUME PRESSAVG GPRESSAVG
ENERGY: 500000 2.4791 1.6419 5.1381 0.0000 -13489.1776 2325.6381 0.0000 0.0000 856.9227 -10297.3578 147.3763 -11154.2805 -10295.7006 147.3763 598.5954 662.0969 28752.0175 598.5954 662.0969
ENERGY: 600000 0.7978 5.8579 5.3238 0.0000 -12942.7064 2054.1934 0.0000 0.0000 1036.0966 -9840.4370 178.1912 -10876.5335 -9838.4893 179.9898 -576.0529 -454.6734 28891.1388 4.7617 4.9631
TCL: Running 100000 steps at 210 kelvin.
TCL: Setting parameter langevinTemp to 210
TCL: Running for 100000 steps
ETITLE: TS BOND ANGLE DIHED IMPRP ELECT VDW BOUNDARY MISC KINETIC TOTAL TEMP POTENTIAL TOTAL3 TEMPAVG PRESSURE GPRESSURE VOLUME PRESSAVG GPRESSAVG
ENERGY: 600000 0.7978 5.8579 5.3238 0.0000 -12942.7064 2054.1934 0.0000 0.0000 1035.6189 -9840.9146 178.1091 -10876.5335 -9838.7237 178.1091 -535.8215 -455.7816 28891.1388 -535.8215 -455.7816
ENERGY: 700000 1.2332 4.5326 4.3835 0.0000 -12404.9164 2003.1446 0.0000 0.0000 1245.2168 -9146.4058 214.1564 -10391.6226 -9142.9513 209.4725 1164.4620 1274.3187 28077.5790 3.9877 4.0310
TCL: Running 100000 steps at 240 kelvin.
TCL: Setting parameter langevinTemp to 240
TCL: Running for 100000 steps
ETITLE: TS BOND ANGLE DIHED IMPRP ELECT VDW BOUNDARY MISC KINETIC TOTAL TEMP POTENTIAL TOTAL3 TEMPAVG PRESSURE GPRESSURE VOLUME PRESSAVG GPRESSAVG
ENERGY: 700000 1.2332 4.5326 4.3835 0.0000 -12404.9164 2003.1446 0.0000 0.0000 1244.5973 -9147.0253 214.0499 -10391.6226 -9144.8195 214.0499 1201.0947 1273.0331 28077.5790 1201.0947 1273.0331
ENERGY: 800000 2.6702 5.0619 8.1860 0.0000 -11623.8317 1680.0938 0.0000 0.0000 1350.2353 -8577.5844 232.2178 -9927.8198 -8574.7862 239.7584 41.0331 91.7436 28739.6550 2.8657 2.8996
TCL: Running 100000 steps at 270 kelvin.
TCL: Setting parameter langevinTemp to 270
TCL: Running for 100000 steps
ETITLE: TS BOND ANGLE DIHED IMPRP ELECT VDW BOUNDARY MISC KINETIC TOTAL TEMP POTENTIAL TOTAL3 TEMPAVG PRESSURE GPRESSURE VOLUME PRESSAVG GPRESSAVG
ENERGY: 800000 2.6702 5.0619 8.1860 0.0000 -11623.8317 1680.0938 0.0000 0.0000 1349.5655 -8578.2543 232.1026 -9927.8198 -8575.3108 232.1026 -1.5291 90.2242 28739.6550 -1.5291 90.2242
ENERGY: 900000 3.8326 3.9093 4.5847 0.0000 -11094.0526 1559.5221 0.0000 0.0000 1595.3024 -7926.9014 274.3652 -9522.2039 -7924.9134 269.6779 214.4109 223.1334 29380.3381 3.4245 3.3610
TCL: Running 1000000 steps at 300 kelvin.
TCL: Setting parameter langevinTemp to 300
TCL: Running for 1000000 steps
ETITLE: TS BOND ANGLE DIHED IMPRP ELECT VDW BOUNDARY MISC KINETIC TOTAL TEMP POTENTIAL TOTAL3 TEMPAVG PRESSURE GPRESSURE VOLUME PRESSAVG GPRESSAVG
ENERGY: 900000 3.8326 3.9093 4.5847 0.0000 -11094.0526 1559.5221 0.0000 0.0000 1594.5285 -7927.6754 274.2321 -9522.2039 -7926.0229 274.2321 137.2209 220.8645 29380.3381 137.2209 220.8645
ENERGY: 1100000 6.2476 4.1470 4.4597 0.0000 -10644.9854 1436.0290 0.0000 0.0000 1753.9615 -7440.1407 301.6519 -9194.1022 -7434.1789 299.7092 -220.8018 -152.7853 30022.0685 3.4119 3.2543
ENERGY: 1300000 2.8115 5.4251 3.1671 0.0000 -10631.1752 1442.5659 0.0000 0.0000 1720.7649 -7456.4406 295.9427 -9177.2056 -7450.9914 299.6638 -3.1881 46.8069 30311.8812 2.3140 2.3428
ENERGY: 1500000 6.3630 3.4352 4.3264 0.0000 -10569.9278 1399.7037 0.0000 0.0000 1784.2599 -7371.8396 306.8627 -9156.0994 -7368.8803 300.4035 -23.0620 43.3745 29948.7921 2.0510 2.1265
ENERGY: 1700000 1.6996 3.4956 6.4091 0.0000 -10584.9030 1403.3276 0.0000 0.0000 1756.4500 -7413.5212 302.0799 -9169.9712 -7410.9496 300.3336 -334.7995 -252.0838 30344.7805 3.4120 3.3159
ENERGY: 1900000 0.6300 3.4938 6.3907 0.0000 -10511.0755 1322.9796 0.0000 0.0000 1742.2154 -7435.3660 299.6318 -9177.5814 -7430.8175 300.3363 -582.3615 -483.1019 29923.8523 3.0497 3.0337
TCL: Exiting due to exit command.
