Info: SIMULATION PARAMETERS:
Info: TIMESTEP               2
Info: NUMBER OF STEPS        0
Info: STEPS PER CYCLE        10
Info: PERIODIC CELL BASIS 1  38.861 0 0
Info: PERIODIC CELL BASIS 2  0 34.26 0
Info: PERIODIC CELL BASIS 3  0 0 33.152
Info: PERIODIC CELL CENTER   0 0 0
Info: WRAPPING WATERS AROUND PERIODIC BOUNDARIES ON OUTPUT.
Info: WRAPPING ALL CLUSTERS AROUND PERIODIC BOUNDARIES ON OUTPUT.
Info: FIRST LDB TIMESTEP     50
Info: LAST LDB TIMESTEP     -1
Info: HOM BACKGROUND SCALING 1
Info: PME BACKGROUND SCALING 1
Info: MIN ATOMS PER PATCH    40
Info: EMPTY PATCH LOAD       40 ATOMS
Info: INITIAL TEMPERATURE    300
Info: CENTER OF MASS MOVING INITIALLY? NO
Info: DIELECTRIC             1
Info: EXCLUDE                SCALED ONE-FOUR
Info: 1-4 ELECTROSTATICS SCALED BY 0.833333
Info: MODIFIED 1-4 VDW PARAMETERS WILL BE USED
Info: DCD FILENAME           mobley_5880265_equil.dcd
Info: DCD FREQUENCY          100000
Info: DCD FIRST STEP         100000
Info: DCD FILE WILL CONTAIN UNIT CELL DATA
Info: XST FILENAME           mobley_5880265_equil.xst
Info: XST FREQUENCY          100000
Info: NO VELOCITY DCD OUTPUT
Info: NO FORCE DCD OUTPUT
Info: OUTPUT FILENAME        mobley_5880265_equil
Info: BINARY OUTPUT FILES WILL BE USED
Info: RESTART FILENAME       mobley_5880265_equil.restart
Info: RESTART FREQUENCY      100000
Info: BINARY RESTART FILES WILL BE USED
Info: CUTOFF                 9
Info: PAIRLIST DISTANCE      11
Info: PAIRLIST SHRINK RATE   0.01
Info: PAIRLIST GROW RATE     0.01
Info: PAIRLIST TRIGGER       0.3
Info: PAIRLISTS PER CYCLE    2
Info: PAIRLISTS ENABLED
Info: MARGIN                 8
Info: HYDROGEN GROUP CUTOFF  2.5
Info: PATCH DIMENSION        21.5
Info: ENERGY OUTPUT STEPS    100000
Info: ENERGY EVALUATION STEPS    100000
Info: OUTPUT ENERGY PRECISION 4
Info: CROSSTERM ENERGY INCLUDED IN DIHEDRAL
Info: TIMING OUTPUT STEPS    1000000
Info: PRESSURE OUTPUT STEPS  100000
Info: LANGEVIN DYNAMICS ACTIVE
Info: LANGEVIN TEMPERATURE   30
Info: LANGEVIN USING BBK INTEGRATOR
Info: LANGEVIN DAMPING COEFFICIENT IS 1 INVERSE PS
Info: LANGEVIN DYNAMICS APPLIED TO HYDROGENS
Info: LANGEVIN PISTON PRESSURE CONTROL ACTIVE
Info:        TARGET PRESSURE IS 1.01325 BAR
Info:     OSCILLATION PERIOD IS 50 FS
Info:             DECAY TIME IS 25 FS
Info:     PISTON TEMPERATURE IS 300 K
Info:       PRESSURE CONTROL IS GROUP-BASED
Info:    INITIAL STRAIN RATE IS 0 0 0
Info:       CELL FLUCTUATION IS ISOTROPIC
Info: PARTICLE MESH EWALD (PME) ACTIVE
Info: PME TOLERANCE               1e-06
Info: PME EWALD COEFFICIENT       0.348832
Info: PME INTERPOLATION ORDER     4
Info: PME GRID DIMENSIONS         40 36 36
Info: PME MAXIMUM GRID SPACING    1
Info: FULL ELECTROSTATIC EVALUATION FREQUENCY      2
Info: USING VERLET I (r-RESPA) MTS SCHEME.
Info: C1 SPLITTING OF LONG RANGE ELECTROSTATICS
Info: PLACING ATOMS IN PATCHES BY HYDROGEN GROUPS
Info: RIGID BONDS TO HYDROGEN : ALL
Info:         ERROR TOLERANCE : 1e-08
Info:          MAX ITERATIONS : 100
Info: RIGID WATER USING SETTLE ALGORITHM
Info: RANDOM NUMBER SEED     1743259289
Info: USE HYDROGEN BONDS?    NO
Info: Using AMBER format force field!
Info: AMBER PARM FILE        mobley_5880265.prmtop
Info: COORDINATE PDB         mobley_5880265.pdb
Info: Exclusions will be read from PARM file!
Info: SCNB (VDW SCALING)     2
Info: USING ARITHMETIC MEAN TO COMBINE L-J SIGMA PARAMETERS
Info: BINARY COORDINATES     mobley_5880265_min.coor
Info: SUMMARY OF PARAMETERS:
Info: 8 BONDS
Info: 11 ANGLES
Info:   11 HARMONIC
Info:   0 COSINE-BASED
Info: 14 DIHEDRAL
Info: 0 IMPROPER
Info: 0 CROSSTERM
Info: 0 VDW
Info: 28 VDW_PAIRS
Info: 0 NBTHOLE_PAIRS
Info: STRUCTURE SUMMARY:
Info: 2944 ATOMS
Info: 2943 BONDS
Info: 38 ANGLES
Info: 57 DIHEDRALS
Info: 0 IMPROPERS
Info: 0 CROSSTERMS
Info: 3026 EXCLUSIONS
Info: 2936 RIGID BONDS
Info: 5896 DEGREES OF FREEDOM
Info: 982 HYDROGEN GROUPS
Info: 4 ATOMS IN LARGEST HYDROGEN GROUP
Info: 982 MIGRATION GROUPS
Info: 4 ATOMS IN LARGEST MIGRATION GROUP
Info: TOTAL MASS = 17665.8 amu
Info: TOTAL CHARGE = 2.23517e-08 e
Info: MASS DENSITY = 0.664631 g/cm^3
Info: ATOM DENSITY = 0.0667001 atoms/A^3
Info: ADDED 0 IMPLICIT EXCLUSIONS
Info: NONBONDED TABLE R-SQUARED SPACING: 0.0625
Info: NONBONDED TABLE SIZE: 705 POINTS
Info: REMOVING COM VELOCITY -0.0965192 0.233488 0.0616074
TCL: Running for 100000 steps
ETITLE: TS BOND ANGLE DIHED IMPRP ELECT VDW BOUNDARY MISC KINETIC TOTAL TEMP POTENTIAL TOTAL3 TEMPAVG PRESSURE GPRESSURE VOLUME PRESSAVG GPRESSAVG
ENERGY: 0 0.0754 0.2254 2.7920 0.0000 -13513.1505 2369.4674 0.0000 0.0000 1759.0139 -9381.5764 300.2633 -11140.5903 -9381.2515 300.2633 509.7052 543.4234 44137.8388 509.7052 543.4234
ENERGY: 100000 0.6295 0.8545 3.4365 0.0000 -14020.8248 2300.3205 0.0000 0.0000 176.1284 -11539.4554 30.0651 -11715.5838 -11538.9256 30.9594 -1238.4546 -1179.8357 28428.1131 3.4693 3.4608
TCL: Running 100000 steps at 60 kelvin.
TCL: Setting parameter langevinTemp to 60
TCL: Running for 100000 steps
ETITLE: TS BOND ANGLE DIHED IMPRP ELECT VDW BOUNDARY MISC KINETIC TOTAL TEMP POTENTIAL TOTAL3 TEMPAVG PRESSURE GPRESSURE VOLUME PRESSAVG GPRESSAVG
ENERGY: 100000 0.6295 0.8545 3.4365 0.0000 -14020.8248 2300.3205 0.0000 0.0000 176.0400 -11539.5438 30.0500 -11715.5838 -11539.1225 30.0500 -1244.0895 -1179.8855 28428.1131 -1244.0895 -1179.8855
ENERGY: 200000 0.8667 2.0539 2.9172 0.0000 -14098.6307 2479.6396 0.0000 0.0000 352.2602 -11260.8933 60.1307 -11613.1535 -11260.2359 59.7307 813.2838 888.5807 28235.7577 3.7224 3.6737
TCL: Running 100000 steps at 90 kelvin.
TCL: Setting parameter langevinTemp to 90
TCL: Running for 100000 steps
ETITLE: TS BOND ANGLE DIHED IMPRP ELECT VDW BOUNDARY MISC KINETIC TOTAL TEMP POTENTIAL TOTAL3 TEMPAVG PRESSURE GPRESSURE VOLUME PRESSAVG GPRESSAVG
ENERGY: 200000 0.8667 2.0539 2.9172 0.0000 -14098.6307 2479.6396 0.0000 0.0000 352.0858 -11261.0676 60.1010 -11613.1535 -11260.5025 60.1010 825.5113 888.6447 28235.7577 825.5113 888.6447
ENERGY: 300000 0.3290 3.3033 2.8790 0.0000 -13897.6430 2401.5463 0.0000 0.0000 542.1021 -10947.4833 92.5367 -11489.5854 -10945.7819 89.9230 639.1524 696.7077 28225.6035 3.4571 3.5521
TCL: Running 100000 steps at 120 kelvin.
TCL: Setting parameter langevinTemp to 120
TCL: Running for 100000 steps
ETITLE: TS BOND ANGLE DIHED IMPRP ELECT VDW BOUNDARY MISC KINETIC TOTAL TEMP POTENTIAL TOTAL3 TEMPAVG PRESSURE GPRESSURE VOLUME PRESSAVG GPRESSAVG
ENERGY: 300000 0.3290 3.3033 2.8790 0.0000 -13897.6430 2401.5463 0.0000 0.0000 541.8385 -10947.7469 92.4917 -11489.5854 -10946.5973 92.4917 629.5863 696.7600 28225.6035 629.5863 696.7600
ENERGY: 400000 0.9506 3.8941 3.2910 0.0000 -13663.1862 2256.7099 0.0000 0.0000 679.0668 -10719.2739 115.9165 -11398.3406 -10716.5110 119.9861 -633.0682 -578.5937 28967.5711 3.2424 3.2142
TCL: Running 100000 steps at 150 kelvin.
TCL: Setting parameter langevinTemp to 150
TCL: Running for 100000 steps
ETITLE: TS BOND ANGLE DIHED IMPRP ELECT VDW BOUNDARY MISC KINETIC TOTAL TEMP POTENTIAL TOTAL3 TEMPAVG PRESSURE GPRESSURE VOLUME PRESSAVG GPRESSAVG
ENERGY: 400000 0.9506 3.8941 3.2910 0.0000 -13663.1862 2256.7099 0.0000 0.0000 678.7158 -10719.6249 115.8566 -11398.3406 -10718.1401 115.8566 -633.6359 -578.5903 28967.5711 -633.6359 -578.5903
ENERGY: 500000 2.3224 7.6079 2.9475 0.0000 -13506.1348 2295.7027 0.0000 0.0000 902.1960 -10295.3584 154.0046 -11197.5544 -10292.1789 150.0730 657.4342 782.7443 28443.7205 2.8105 2.8246
TCL: Running 100000 steps at 180 kelvin.
TCL: Setting parameter langevinTemp to 180
TCL: Running for 100000 steps
ETITLE: TS BOND ANGLE DIHED IMPRP ELECT VDW BOUNDARY MISC KINETIC TOTAL TEMP POTENTIAL TOTAL3 TEMPAVG PRESSURE GPRESSURE VOLUME PRESSAVG GPRESSAVG
ENERGY: 500000 2.3224 7.6079 2.9475 0.0000 -13506.1348 2295.7027 0.0000 0.0000 901.7628 -10295.7916 153.9307 -11197.5544 -10294.1363 153.9307 728.3957 783.8262 28443.7205 728.3957 783.8262
ENERGY: 600000 0.2368 5.0784 4.2171 0.0000 -13055.6272 2143.7918 0.0000 0.0000 1067.2736 -9835.0295 182.1834 -10902.3031 -9831.6634 180.3125 458.2055 477.5636 28584.7979 4.3567 4.2896
TCL: Running 100000 steps at 210 kelvin.
TCL: Setting parameter langevinTemp to 210
TCL: Running for 100000 steps
ETITLE: TS BOND ANGLE DIHED IMPRP ELECT VDW BOUNDARY MISC KINETIC TOTAL TEMP POTENTIAL TOTAL3 TEMPAVG PRESSURE GPRESSURE VOLUME PRESSAVG GPRESSAVG
ENERGY: 600000 0.2368 5.0784 4.2171 0.0000 -13055.6272 2143.7918 0.0000 0.0000 1066.7533 -9835.5499 182.0945 -10902.3031 -9833.8438 182.0945 422.9490 478.3504 28584.7979 422.9490 478.3504
ENERGY: 700000 1.2672 5.0896 4.3862 0.0000 -12324.8959 1862.6016 0.0000 0.0000 1248.4847 -9203.0666 213.1160 -10451.5513 -9199.4087 210.1107 -128.1409 24.2631 28555.2281 4.7036 4.5898
TCL: Running 100000 steps at 240 kelvin.
TCL: Setting parameter langevinTemp to 240
TCL: Running for 100000 steps
ETITLE: TS BOND ANGLE DIHED IMPRP ELECT VDW BOUNDARY MISC KINETIC TOTAL TEMP POTENTIAL TOTAL3 TEMPAVG PRESSURE GPRESSURE VOLUME PRESSAVG GPRESSAVG
ENERGY: 700000 1.2672 5.0896 4.3862 0.0000 -12324.8959 1862.6016 0.0000 0.0000 1247.8480 -9203.7033 213.0074 -10451.5513 -9201.7768 213.0074 -42.8678 24.8365 28555.2281 -42.8678 24.8365
ENERGY: 800000 1.0038 5.5318 2.9553 0.0000 -11542.6625 1587.9772 0.0000 0.0000 1385.8831 -8559.3113 236.5699 -9945.1944 -8555.7548 239.5332 -810.2570 -719.6309 29067.9771 3.8359 3.8982
TCL: Running 100000 steps at 270 kelvin.
TCL: Setting parameter langevinTemp to 270
TCL: Running for 100000 steps
ETITLE: TS BOND ANGLE DIHED IMPRP ELECT VDW BOUNDARY MISC KINETIC TOTAL TEMP POTENTIAL TOTAL3 TEMPAVG PRESSURE GPRESSURE VOLUME PRESSAVG GPRESSAVG
ENERGY: 800000 1.0038 5.5318 2.9553 0.0000 -11542.6625 1587.9772 0.0000 0.0000 1385.1640 -8560.0305 236.4472 -9945.1944 -8556.5577 236.4472 -811.2832 -720.3120 29067.9771 -811.2832 -720.3120
ENERGY: 900000 0.6383 7.7834 3.5661 0.0000 -11259.2894 1697.3487 0.0000 0.0000 1602.8126 -7947.1404 273.5997 -9549.9529 -7943.5292 270.1869 1563.8244 1683.3065 29038.6007 3.1075 3.2267
TCL: Running 1000000 steps at 300 kelvin.
TCL: Setting parameter langevinTemp to 300
TCL: Running for 1000000 steps
ETITLE: TS BOND ANGLE DIHED IMPRP ELECT VDW BOUNDARY MISC KINETIC TOTAL TEMP POTENTIAL TOTAL3 TEMPAVG PRESSURE GPRESSURE VOLUME PRESSAVG GPRESSAVG
ENERGY: 900000 0.6383 7.7834 3.5661 0.0000 -11259.2894 1697.3487 0.0000 0.0000 1602.0084 -7947.9445 273.4624 -9549.9529 -7946.1740 273.4624 1603.0445 1683.4642 29038.6007 1603.0445 1683.4642
ENERGY: 1100000 1.5858 8.1049 5.1483 0.0000 -10645.9784 1418.6705 0.0000 0.0000 1733.0141 -7479.4548 295.8251 -9212.4689 -7476.2766 299.9664 -186.0647 -95.1266 30147.5133 2.5169 2.6526
ENERGY: 1300000 1.1866 10.9313 3.5085 0.0000 -10642.5503 1447.3807 0.0000 0.0000 1774.3763 -7405.1669 302.8856 -9179.5432 -7402.2354 300.0361 155.6344 208.7586 30206.4364 3.6080 3.8298
ENERGY: 1500000 3.5487 11.8787 4.7134 0.0000 -10632.7583 1403.2712 0.0000 0.0000 1706.3502 -7502.9961 291.2736 -9209.3463 -7501.9369 299.8466 -107.4775 -55.6887 30044.0764 3.0488 3.0587
ENERGY: 1700000 2.5490 10.7387 3.2607 0.0000 -10628.0400 1477.0269 0.0000 0.0000 1792.7693 -7341.6953 306.0253 -9134.4646 -7339.9969 299.9920 817.4049 866.8912 29938.2082 2.7534 2.8690
ENERGY: 1900000 1.4678 17.1691 4.5815 0.0000 -10522.4733 1335.8637 0.0000 0.0000 1792.2517 -7371.1395 305.9369 -9163.3912 -7371.6233 300.1081 -543.5016 -427.0140 30196.0463 3.9668 3.8360
TCL: Exiting due to exit command.
