Info: SIMULATION PARAMETERS:
Info: TIMESTEP               2
Info: NUMBER OF STEPS        0
Info: STEPS PER CYCLE        10
Info: PERIODIC CELL BASIS 1  37.968 0 0
Info: PERIODIC CELL BASIS 2  0 33.542 0
Info: PERIODIC CELL BASIS 3  0 0 34.68
Info: PERIODIC CELL CENTER   0 0 0
Info: WRAPPING WATERS AROUND PERIODIC BOUNDARIES ON OUTPUT.
Info: WRAPPING ALL CLUSTERS AROUND PERIODIC BOUNDARIES ON OUTPUT.
Info: FIRST LDB TIMESTEP     50
Info: LAST LDB TIMESTEP     -1
Info: HOM BACKGROUND SCALING 1
Info: PME BACKGROUND SCALING 1
Info: MIN ATOMS PER PATCH    40
Info: EMPTY PATCH LOAD       40 ATOMS
Info: INITIAL TEMPERATURE    300
Info: CENTER OF MASS MOVING INITIALLY? NO
Info: DIELECTRIC             1
Info: EXCLUDE                SCALED ONE-FOUR
Info: 1-4 ELECTROSTATICS SCALED BY 0.833333
Info: MODIFIED 1-4 VDW PARAMETERS WILL BE USED
Info: DCD FILENAME           mobley_5006685_equil.dcd
Info: DCD FREQUENCY          100000
Info: DCD FIRST STEP         100000
Info: DCD FILE WILL CONTAIN UNIT CELL DATA
Info: XST FILENAME           mobley_5006685_equil.xst
Info: XST FREQUENCY          100000
Info: NO VELOCITY DCD OUTPUT
Info: NO FORCE DCD OUTPUT
Info: OUTPUT FILENAME        mobley_5006685_equil
Info: BINARY OUTPUT FILES WILL BE USED
Info: RESTART FILENAME       mobley_5006685_equil.restart
Info: RESTART FREQUENCY      100000
Info: BINARY RESTART FILES WILL BE USED
Info: CUTOFF                 9
Info: PAIRLIST DISTANCE      11
Info: PAIRLIST SHRINK RATE   0.01
Info: PAIRLIST GROW RATE     0.01
Info: PAIRLIST TRIGGER       0.3
Info: PAIRLISTS PER CYCLE    2
Info: PAIRLISTS ENABLED
Info: MARGIN                 8
Info: HYDROGEN GROUP CUTOFF  2.5
Info: PATCH DIMENSION        21.5
Info: ENERGY OUTPUT STEPS    100000
Info: ENERGY EVALUATION STEPS    100000
Info: OUTPUT ENERGY PRECISION 4
Info: CROSSTERM ENERGY INCLUDED IN DIHEDRAL
Info: TIMING OUTPUT STEPS    1000000
Info: PRESSURE OUTPUT STEPS  100000
Info: LANGEVIN DYNAMICS ACTIVE
Info: LANGEVIN TEMPERATURE   30
Info: LANGEVIN USING BBK INTEGRATOR
Info: LANGEVIN DAMPING COEFFICIENT IS 1 INVERSE PS
Info: LANGEVIN DYNAMICS APPLIED TO HYDROGENS
Info: LANGEVIN PISTON PRESSURE CONTROL ACTIVE
Info:        TARGET PRESSURE IS 1.01325 BAR
Info:     OSCILLATION PERIOD IS 50 FS
Info:             DECAY TIME IS 25 FS
Info:     PISTON TEMPERATURE IS 300 K
Info:       PRESSURE CONTROL IS GROUP-BASED
Info:    INITIAL STRAIN RATE IS 0 0 0
Info:       CELL FLUCTUATION IS ISOTROPIC
Info: PARTICLE MESH EWALD (PME) ACTIVE
Info: PME TOLERANCE               1e-06
Info: PME EWALD COEFFICIENT       0.348832
Info: PME INTERPOLATION ORDER     4
Info: PME GRID DIMENSIONS         40 36 36
Info: PME MAXIMUM GRID SPACING    1
Info: FULL ELECTROSTATIC EVALUATION FREQUENCY      2
Info: USING VERLET I (r-RESPA) MTS SCHEME.
Info: C1 SPLITTING OF LONG RANGE ELECTROSTATICS
Info: PLACING ATOMS IN PATCHES BY HYDROGEN GROUPS
Info: RIGID BONDS TO HYDROGEN : ALL
Info:         ERROR TOLERANCE : 1e-08
Info:          MAX ITERATIONS : 100
Info: RIGID WATER USING SETTLE ALGORITHM
Info: RANDOM NUMBER SEED     1743246198
Info: USE HYDROGEN BONDS?    NO
Info: Using AMBER format force field!
Info: AMBER PARM FILE        mobley_5006685.prmtop
Info: COORDINATE PDB         mobley_5006685.pdb
Info: Exclusions will be read from PARM file!
Info: SCNB (VDW SCALING)     2
Info: USING ARITHMETIC MEAN TO COMBINE L-J SIGMA PARAMETERS
Info: BINARY COORDINATES     mobley_5006685_min.coor
Info: SUMMARY OF PARAMETERS:
Info: 12 BONDS
Info: 20 ANGLES
Info:   20 HARMONIC
Info:   0 COSINE-BASED
Info: 14 DIHEDRAL
Info: 0 IMPROPER
Info: 0 CROSSTERM
Info: 0 VDW
Info: 36 VDW_PAIRS
Info: 0 NBTHOLE_PAIRS
Info: STRUCTURE SUMMARY:
Info: 2980 ATOMS
Info: 2980 BONDS
Info: 45 ANGLES
Info: 82 DIHEDRALS
Info: 0 IMPROPERS
Info: 0 CROSSTERMS
Info: 3085 EXCLUSIONS
Info: 2969 RIGID BONDS
Info: 5971 DEGREES OF FREEDOM
Info: 996 HYDROGEN GROUPS
Info: 4 ATOMS IN LARGEST HYDROGEN GROUP
Info: 996 MIGRATION GROUPS
Info: 4 ATOMS IN LARGEST MIGRATION GROUP
Info: TOTAL MASS = 17896 amu
Info: TOTAL CHARGE = 6.51926e-09 e
Info: MASS DENSITY = 0.672866 g/cm^3
Info: ATOM DENSITY = 0.0674731 atoms/A^3
Info: ADDED 0 IMPLICIT EXCLUSIONS
Info: NONBONDED TABLE R-SQUARED SPACING: 0.0625
Info: NONBONDED TABLE SIZE: 705 POINTS
Info: REMOVING COM VELOCITY 0.164059 0.228599 -0.0547051
TCL: Running for 100000 steps
ETITLE: TS BOND ANGLE DIHED IMPRP ELECT VDW BOUNDARY MISC KINETIC TOTAL TEMP POTENTIAL TOTAL3 TEMPAVG PRESSURE GPRESSURE VOLUME PRESSAVG GPRESSAVG
ENERGY: 0 0.4319 1.0572 13.1059 0.0000 -13729.0222 2415.4415 0.0000 0.0000 1726.0543 -9572.9315 290.9362 -11298.9857 -9572.5983 290.9362 314.8075 356.7182 44165.7657 314.8075 356.7182
ENERGY: 100000 0.8459 2.0493 13.6172 0.0000 -14315.7401 2498.7715 0.0000 0.0000 178.3871 -11622.0691 30.0682 -11800.4562 -11621.6885 30.9339 -96.3030 -26.4363 29446.9862 4.0408 4.0505
TCL: Running 100000 steps at 60 kelvin.
TCL: Setting parameter langevinTemp to 60
TCL: Running for 100000 steps
ETITLE: TS BOND ANGLE DIHED IMPRP ELECT VDW BOUNDARY MISC KINETIC TOTAL TEMP POTENTIAL TOTAL3 TEMPAVG PRESSURE GPRESSURE VOLUME PRESSAVG GPRESSAVG
ENERGY: 100000 0.8459 2.0493 13.6172 0.0000 -14315.7401 2498.7715 0.0000 0.0000 178.2981 -11622.1581 30.0532 -11800.4562 -11621.7905 30.0532 -90.5705 -26.4257 29446.9862 -90.5705 -26.4257
ENERGY: 200000 1.4451 2.1668 13.9171 0.0000 -14272.0092 2519.2665 0.0000 0.0000 370.0599 -11365.1538 62.3757 -11735.2137 -11363.8756 60.0582 312.0840 363.5793 29355.7989 3.7564 3.7753
TCL: Running 100000 steps at 90 kelvin.
TCL: Setting parameter langevinTemp to 90
TCL: Running for 100000 steps
ETITLE: TS BOND ANGLE DIHED IMPRP ELECT VDW BOUNDARY MISC KINETIC TOTAL TEMP POTENTIAL TOTAL3 TEMPAVG PRESSURE GPRESSURE VOLUME PRESSAVG GPRESSAVG
ENERGY: 200000 1.4451 2.1668 13.9171 0.0000 -14272.0092 2519.2665 0.0000 0.0000 369.8836 -11365.3301 62.3460 -11735.2137 -11364.3889 62.3460 320.7019 363.5502 29355.7989 320.7019 363.5502
ENERGY: 300000 1.8692 2.7820 13.8013 0.0000 -14099.5360 2435.5818 0.0000 0.0000 546.6549 -11098.8469 92.1418 -11645.5018 -11097.5590 90.1040 243.4983 290.4790 28797.2962 3.7155 3.8198
TCL: Running 100000 steps at 120 kelvin.
TCL: Setting parameter langevinTemp to 120
TCL: Running for 100000 steps
ETITLE: TS BOND ANGLE DIHED IMPRP ELECT VDW BOUNDARY MISC KINETIC TOTAL TEMP POTENTIAL TOTAL3 TEMPAVG PRESSURE GPRESSURE VOLUME PRESSAVG GPRESSAVG
ENERGY: 300000 1.8692 2.7820 13.8013 0.0000 -14099.5360 2435.5818 0.0000 0.0000 546.3805 -11099.1213 92.0955 -11645.5018 -11097.9808 92.0955 257.0266 290.3817 28797.2962 257.0266 290.3817
ENERGY: 400000 2.5270 3.4440 13.5378 0.0000 -13693.8510 2202.6020 0.0000 0.0000 729.6930 -10742.0471 122.9939 -11471.7402 -10739.4269 120.0111 -872.5886 -827.6683 28778.1376 3.6736 3.5728
TCL: Running 100000 steps at 150 kelvin.
TCL: Setting parameter langevinTemp to 150
TCL: Running for 100000 steps
ETITLE: TS BOND ANGLE DIHED IMPRP ELECT VDW BOUNDARY MISC KINETIC TOTAL TEMP POTENTIAL TOTAL3 TEMPAVG PRESSURE GPRESSURE VOLUME PRESSAVG GPRESSAVG
ENERGY: 400000 2.5270 3.4440 13.5378 0.0000 -13693.8510 2202.6020 0.0000 0.0000 729.3279 -10742.4122 122.9323 -11471.7402 -10740.8259 122.9323 -881.2920 -827.2887 28778.1376 -881.2920 -827.2887
ENERGY: 500000 2.2734 7.2578 14.5367 0.0000 -13584.2456 2245.0558 0.0000 0.0000 903.8902 -10411.2317 152.3558 -11315.1219 -10407.8276 150.0287 53.1142 80.3213 28955.9828 4.5221 4.5539
TCL: Running 100000 steps at 180 kelvin.
TCL: Setting parameter langevinTemp to 180
TCL: Running for 100000 steps
ETITLE: TS BOND ANGLE DIHED IMPRP ELECT VDW BOUNDARY MISC KINETIC TOTAL TEMP POTENTIAL TOTAL3 TEMPAVG PRESSURE GPRESSURE VOLUME PRESSAVG GPRESSAVG
ENERGY: 500000 2.2734 7.2578 14.5367 0.0000 -13584.2456 2245.0558 0.0000 0.0000 903.4395 -10411.6824 152.2798 -11315.1219 -10409.8445 152.2798 29.2224 82.3316 28955.9828 29.2224 82.3316
ENERGY: 600000 1.4820 8.4461 14.3069 0.0000 -13097.3046 2066.5243 0.0000 0.0000 1063.4612 -9943.0842 179.2524 -11006.5453 -9939.5095 179.8328 -477.0146 -468.8140 29421.1443 3.5071 3.4719
TCL: Running 100000 steps at 210 kelvin.
TCL: Setting parameter langevinTemp to 210
TCL: Running for 100000 steps
ETITLE: TS BOND ANGLE DIHED IMPRP ELECT VDW BOUNDARY MISC KINETIC TOTAL TEMP POTENTIAL TOTAL3 TEMPAVG PRESSURE GPRESSURE VOLUME PRESSAVG GPRESSAVG
ENERGY: 600000 1.4820 8.4461 14.3069 0.0000 -13097.3046 2066.5243 0.0000 0.0000 1062.9555 -9943.5899 179.1671 -11006.5453 -9941.3848 179.1671 -530.8379 -467.6925 29421.1443 -530.8379 -467.6925
ENERGY: 700000 2.3222 7.9050 12.9334 0.0000 -12477.0314 1878.6699 0.0000 0.0000 1254.1084 -9321.0924 211.3871 -10575.2008 -9318.5701 209.8545 -390.5202 -320.5706 29158.9882 4.7939 4.7652
TCL: Running 100000 steps at 240 kelvin.
TCL: Setting parameter langevinTemp to 240
TCL: Running for 100000 steps
ETITLE: TS BOND ANGLE DIHED IMPRP ELECT VDW BOUNDARY MISC KINETIC TOTAL TEMP POTENTIAL TOTAL3 TEMPAVG PRESSURE GPRESSURE VOLUME PRESSAVG GPRESSAVG
ENERGY: 700000 2.3222 7.9050 12.9334 0.0000 -12477.0314 1878.6699 0.0000 0.0000 1253.4861 -9321.7147 211.2822 -10575.2008 -9319.5309 211.2822 -400.0588 -321.7783 29158.9882 -400.0588 -321.7783
ENERGY: 800000 4.0758 11.1096 12.9647 0.0000 -11737.0170 1730.3715 0.0000 0.0000 1418.5694 -8559.9261 239.1079 -9978.4955 -8555.9753 239.9620 357.8415 481.9479 29678.4132 3.8696 3.8516
TCL: Running 100000 steps at 270 kelvin.
TCL: Setting parameter langevinTemp to 270
TCL: Running for 100000 steps
ETITLE: TS BOND ANGLE DIHED IMPRP ELECT VDW BOUNDARY MISC KINETIC TOTAL TEMP POTENTIAL TOTAL3 TEMPAVG PRESSURE GPRESSURE VOLUME PRESSAVG GPRESSAVG
ENERGY: 800000 4.0758 11.1096 12.9647 0.0000 -11737.0170 1730.3715 0.0000 0.0000 1417.8810 -8560.6145 238.9918 -9978.4955 -8558.3365 238.9918 403.0683 482.3987 29678.4132 403.0683 482.3987
ENERGY: 900000 2.7924 8.3688 13.7558 0.0000 -11308.0316 1567.9948 0.0000 0.0000 1579.8297 -8135.2901 266.2892 -9715.1199 -8130.7800 269.5650 -15.4128 62.3009 29763.6684 4.6657 4.5474
TCL: Running 1000000 steps at 300 kelvin.
TCL: Setting parameter langevinTemp to 300
TCL: Running for 1000000 steps
ETITLE: TS BOND ANGLE DIHED IMPRP ELECT VDW BOUNDARY MISC KINETIC TOTAL TEMP POTENTIAL TOTAL3 TEMPAVG PRESSURE GPRESSURE VOLUME PRESSAVG GPRESSAVG
ENERGY: 900000 2.7924 8.3688 13.7558 0.0000 -11308.0316 1567.9948 0.0000 0.0000 1579.0608 -8136.0591 266.1596 -9715.1198 -8132.2767 266.1596 -23.6373 60.5656 29763.6684 -23.6373 60.5656
ENERGY: 1100000 9.1079 7.3469 13.4487 0.0000 -10779.4608 1477.9470 0.0000 0.0000 1764.0845 -7507.5258 297.3464 -9271.6103 -7503.7416 300.5534 301.6137 392.9082 30712.9335 4.1397 4.1344
ENERGY: 1300000 5.6928 10.0422 14.2181 0.0000 -10865.3093 1531.9305 0.0000 0.0000 1805.2947 -7498.1310 304.2926 -9303.4256 -7496.8141 300.4161 766.3998 852.3444 30401.5413 2.8804 2.9241
ENERGY: 1500000 4.9371 10.5397 14.4648 0.0000 -10889.4623 1531.6921 0.0000 0.0000 1785.0123 -7542.8164 300.8739 -9327.8287 -7539.4176 299.9682 521.5283 559.6483 30599.4518 3.5254 3.6346
ENERGY: 1700000 4.6745 13.7360 13.7816 0.0000 -10671.3901 1410.2552 0.0000 0.0000 1814.5944 -7414.3484 305.8601 -9228.9428 -7411.1546 299.8619 -302.9660 -247.3848 31140.9363 4.0126 4.1669
ENERGY: 1900000 3.6540 11.7943 14.8189 0.0000 -10647.0869 1362.8391 0.0000 0.0000 1806.7506 -7447.2300 304.5380 -9253.9806 -7443.9938 300.0741 -555.5250 -411.5202 30551.5024 3.5679 3.6154
TCL: Exiting due to exit command.
