Info: SIMULATION PARAMETERS:
Info: TIMESTEP               2
Info: NUMBER OF STEPS        0
Info: STEPS PER CYCLE        10
Info: PERIODIC CELL BASIS 1  34.986 0 0
Info: PERIODIC CELL BASIS 2  0 34.26 0
Info: PERIODIC CELL BASIS 3  0 0 36.583
Info: PERIODIC CELL CENTER   0 0 0
Info: WRAPPING WATERS AROUND PERIODIC BOUNDARIES ON OUTPUT.
Info: WRAPPING ALL CLUSTERS AROUND PERIODIC BOUNDARIES ON OUTPUT.
Info: FIRST LDB TIMESTEP     50
Info: LAST LDB TIMESTEP     -1
Info: HOM BACKGROUND SCALING 1
Info: PME BACKGROUND SCALING 1
Info: MIN ATOMS PER PATCH    40
Info: EMPTY PATCH LOAD       40 ATOMS
Info: INITIAL TEMPERATURE    300
Info: CENTER OF MASS MOVING INITIALLY? NO
Info: DIELECTRIC             1
Info: EXCLUDE                SCALED ONE-FOUR
Info: 1-4 ELECTROSTATICS SCALED BY 0.833333
Info: MODIFIED 1-4 VDW PARAMETERS WILL BE USED
Info: DCD FILENAME           mobley_1323538_equil.dcd
Info: DCD FREQUENCY          100000
Info: DCD FIRST STEP         100000
Info: DCD FILE WILL CONTAIN UNIT CELL DATA
Info: XST FILENAME           mobley_1323538_equil.xst
Info: XST FREQUENCY          100000
Info: NO VELOCITY DCD OUTPUT
Info: NO FORCE DCD OUTPUT
Info: OUTPUT FILENAME        mobley_1323538_equil
Info: BINARY OUTPUT FILES WILL BE USED
Info: RESTART FILENAME       mobley_1323538_equil.restart
Info: RESTART FREQUENCY      100000
Info: BINARY RESTART FILES WILL BE USED
Info: CUTOFF                 9
Info: PAIRLIST DISTANCE      11
Info: PAIRLIST SHRINK RATE   0.01
Info: PAIRLIST GROW RATE     0.01
Info: PAIRLIST TRIGGER       0.3
Info: PAIRLISTS PER CYCLE    2
Info: PAIRLISTS ENABLED
Info: MARGIN                 8
Info: HYDROGEN GROUP CUTOFF  2.5
Info: PATCH DIMENSION        21.5
Info: ENERGY OUTPUT STEPS    100000
Info: ENERGY EVALUATION STEPS    100000
Info: OUTPUT ENERGY PRECISION 4
Info: CROSSTERM ENERGY INCLUDED IN DIHEDRAL
Info: TIMING OUTPUT STEPS    1000000
Info: PRESSURE OUTPUT STEPS  100000
Info: LANGEVIN DYNAMICS ACTIVE
Info: LANGEVIN TEMPERATURE   30
Info: LANGEVIN USING BBK INTEGRATOR
Info: LANGEVIN DAMPING COEFFICIENT IS 1 INVERSE PS
Info: LANGEVIN DYNAMICS APPLIED TO HYDROGENS
Info: LANGEVIN PISTON PRESSURE CONTROL ACTIVE
Info:        TARGET PRESSURE IS 1.01325 BAR
Info:     OSCILLATION PERIOD IS 50 FS
Info:             DECAY TIME IS 25 FS
Info:     PISTON TEMPERATURE IS 300 K
Info:       PRESSURE CONTROL IS GROUP-BASED
Info:    INITIAL STRAIN RATE IS 0 0 0
Info:       CELL FLUCTUATION IS ISOTROPIC
Info: PARTICLE MESH EWALD (PME) ACTIVE
Info: PME TOLERANCE               1e-06
Info: PME EWALD COEFFICIENT       0.348832
Info: PME INTERPOLATION ORDER     4
Info: PME GRID DIMENSIONS         36 36 40
Info: PME MAXIMUM GRID SPACING    1
Info: FULL ELECTROSTATIC EVALUATION FREQUENCY      2
Info: USING VERLET I (r-RESPA) MTS SCHEME.
Info: C1 SPLITTING OF LONG RANGE ELECTROSTATICS
Info: PLACING ATOMS IN PATCHES BY HYDROGEN GROUPS
Info: RIGID BONDS TO HYDROGEN : ALL
Info:         ERROR TOLERANCE : 1e-08
Info:          MAX ITERATIONS : 100
Info: RIGID WATER USING SETTLE ALGORITHM
Info: RANDOM NUMBER SEED     1743261456
Info: USE HYDROGEN BONDS?    NO
Info: Using AMBER format force field!
Info: AMBER PARM FILE        mobley_1323538.prmtop
Info: COORDINATE PDB         mobley_1323538.pdb
Info: Exclusions will be read from PARM file!
Info: SCNB (VDW SCALING)     2
Info: USING ARITHMETIC MEAN TO COMBINE L-J SIGMA PARAMETERS
Info: BINARY COORDINATES     mobley_1323538_min.coor
Info: SUMMARY OF PARAMETERS:
Info: 8 BONDS
Info: 9 ANGLES
Info:   9 HARMONIC
Info:   0 COSINE-BASED
Info: 9 DIHEDRAL
Info: 0 IMPROPER
Info: 0 CROSSTERM
Info: 0 VDW
Info: 36 VDW_PAIRS
Info: 0 NBTHOLE_PAIRS
Info: STRUCTURE SUMMARY:
Info: 2915 ATOMS
Info: 2914 BONDS
Info: 45 ANGLES
Info: 66 DIHEDRALS
Info: 0 IMPROPERS
Info: 0 CROSSTERMS
Info: 3004 EXCLUSIONS
Info: 2904 RIGID BONDS
Info: 5841 DEGREES OF FREEDOM
Info: 974 HYDROGEN GROUPS
Info: 4 ATOMS IN LARGEST HYDROGEN GROUP
Info: 974 MIGRATION GROUPS
Info: 4 ATOMS IN LARGEST MIGRATION GROUP
Info: TOTAL MASS = 17531.6 amu
Info: TOTAL CHARGE = 0.000700101 e
Info: MASS DENSITY = 0.663925 g/cm^3
Info: ATOM DENSITY = 0.0664779 atoms/A^3
Info: ADDED 0 IMPLICIT EXCLUSIONS
Info: NONBONDED TABLE R-SQUARED SPACING: 0.0625
Info: NONBONDED TABLE SIZE: 705 POINTS
Info: REMOVING COM VELOCITY 0.0562625 0.121338 -0.0744699
TCL: Running for 100000 steps
ETITLE: TS BOND ANGLE DIHED IMPRP ELECT VDW BOUNDARY MISC KINETIC TOTAL TEMP POTENTIAL TOTAL3 TEMPAVG PRESSURE GPRESSURE VOLUME PRESSAVG GPRESSAVG
ENERGY: 0 0.1414 0.8171 35.9153 0.0000 -13442.6317 2318.5824 0.0000 0.0000 1797.1833 -9289.9922 309.6674 -11087.1755 -9289.6065 309.6674 322.4072 365.1480 43849.1286 322.4072 365.1480
ENERGY: 100000 0.1614 2.2819 30.9395 0.0000 -14070.9059 2446.4163 0.0000 0.0000 175.3382 -11415.7686 30.2120 -11591.1068 -11415.3319 30.9102 82.1360 140.0789 28663.0277 4.1213 4.1014
TCL: Running 100000 steps at 60 kelvin.
TCL: Setting parameter langevinTemp to 60
TCL: Running for 100000 steps
ETITLE: TS BOND ANGLE DIHED IMPRP ELECT VDW BOUNDARY MISC KINETIC TOTAL TEMP POTENTIAL TOTAL3 TEMPAVG PRESSURE GPRESSURE VOLUME PRESSAVG GPRESSAVG
ENERGY: 100000 0.1614 2.2819 30.9395 0.0000 -14070.9059 2446.4163 0.0000 0.0000 175.2480 -11415.8588 30.1965 -11591.1068 -11415.4854 30.1965 79.4773 140.2381 28663.0277 79.4773 140.2381
ENERGY: 200000 0.7694 3.5065 20.2291 0.0000 -14009.5349 2439.0523 0.0000 0.0000 355.5836 -11190.3940 61.2696 -11545.9776 -11189.5742 59.9099 448.2046 496.0553 28436.0645 3.5416 3.5286
TCL: Running 100000 steps at 90 kelvin.
TCL: Setting parameter langevinTemp to 90
TCL: Running for 100000 steps
ETITLE: TS BOND ANGLE DIHED IMPRP ELECT VDW BOUNDARY MISC KINETIC TOTAL TEMP POTENTIAL TOTAL3 TEMPAVG PRESSURE GPRESSURE VOLUME PRESSAVG GPRESSAVG
ENERGY: 200000 0.7694 3.5065 20.2291 0.0000 -14009.5349 2439.0523 0.0000 0.0000 355.4098 -11190.5678 61.2396 -11545.9776 -11189.7535 61.2396 431.1432 495.9051 28436.0645 431.1432 495.9051
ENERGY: 300000 0.4383 6.9335 18.8429 0.0000 -13743.2595 2234.9274 0.0000 0.0000 526.7243 -10955.3931 90.7583 -11482.1175 -10953.8733 90.0734 -855.7867 -799.8317 28409.4712 3.3243 3.2211
TCL: Running 100000 steps at 120 kelvin.
TCL: Setting parameter langevinTemp to 120
TCL: Running for 100000 steps
ETITLE: TS BOND ANGLE DIHED IMPRP ELECT VDW BOUNDARY MISC KINETIC TOTAL TEMP POTENTIAL TOTAL3 TEMPAVG PRESSURE GPRESSURE VOLUME PRESSAVG GPRESSAVG
ENERGY: 300000 0.4383 6.9335 18.8429 0.0000 -13743.2595 2234.9274 0.0000 0.0000 526.4760 -10955.6414 90.7156 -11482.1175 -10954.5012 90.7156 -861.9405 -800.1825 28409.4712 -861.9405 -800.1825
ENERGY: 400000 0.8489 5.3231 23.4454 0.0000 -13732.8368 2353.2473 0.0000 0.0000 694.4713 -10655.5008 119.6623 -11349.9720 -10652.7807 119.7409 549.5815 583.1114 28252.3013 3.5434 3.4442
TCL: Running 100000 steps at 150 kelvin.
TCL: Setting parameter langevinTemp to 150
TCL: Running for 100000 steps
ETITLE: TS BOND ANGLE DIHED IMPRP ELECT VDW BOUNDARY MISC KINETIC TOTAL TEMP POTENTIAL TOTAL3 TEMPAVG PRESSURE GPRESSURE VOLUME PRESSAVG GPRESSAVG
ENERGY: 400000 0.8489 5.3231 23.4454 0.0000 -13732.8368 2353.2473 0.0000 0.0000 694.1446 -10655.8274 119.6060 -11349.9720 -10654.4055 119.6060 520.4254 584.4255 28252.3013 520.4254 584.4255
ENERGY: 500000 0.8366 7.8694 20.0804 0.0000 -13398.2489 2194.3079 0.0000 0.0000 864.3260 -10310.8286 148.9295 -11175.1546 -10308.2046 149.8341 -518.8567 -368.5412 28905.6117 3.7320 3.7529
TCL: Running 100000 steps at 180 kelvin.
TCL: Setting parameter langevinTemp to 180
TCL: Running for 100000 steps
ETITLE: TS BOND ANGLE DIHED IMPRP ELECT VDW BOUNDARY MISC KINETIC TOTAL TEMP POTENTIAL TOTAL3 TEMPAVG PRESSURE GPRESSURE VOLUME PRESSAVG GPRESSAVG
ENERGY: 500000 0.8366 7.8694 20.0804 0.0000 -13398.2489 2194.3079 0.0000 0.0000 863.8925 -10311.2621 148.8548 -11175.1546 -10308.9752 148.8548 -425.8161 -368.4872 28905.6117 -425.8161 -368.4872
ENERGY: 600000 2.2414 8.3670 22.8809 0.0000 -12890.6753 2015.7767 0.0000 0.0000 1061.7342 -9779.6751 182.9443 -10841.4093 -9775.7685 179.8766 -364.1766 -346.1840 28495.3576 3.8432 3.6631
TCL: Running 100000 steps at 210 kelvin.
TCL: Setting parameter langevinTemp to 210
TCL: Running for 100000 steps
ETITLE: TS BOND ANGLE DIHED IMPRP ELECT VDW BOUNDARY MISC KINETIC TOTAL TEMP POTENTIAL TOTAL3 TEMPAVG PRESSURE GPRESSURE VOLUME PRESSAVG GPRESSAVG
ENERGY: 600000 2.2414 8.3670 22.8809 0.0000 -12890.6753 2015.7767 0.0000 0.0000 1061.2539 -9780.1554 182.8616 -10841.4093 -9777.9724 182.8616 -401.3174 -344.6842 28495.3576 -401.3174 -344.6842
ENERGY: 700000 2.0485 12.6911 19.7901 0.0000 -12245.0102 1810.8369 0.0000 0.0000 1219.0127 -9180.6310 210.0445 -10399.6436 -9179.2420 209.9489 -437.4876 -387.2607 28605.0735 4.4309 4.3974
TCL: Running 100000 steps at 240 kelvin.
TCL: Setting parameter langevinTemp to 240
TCL: Running for 100000 steps
ETITLE: TS BOND ANGLE DIHED IMPRP ELECT VDW BOUNDARY MISC KINETIC TOTAL TEMP POTENTIAL TOTAL3 TEMPAVG PRESSURE GPRESSURE VOLUME PRESSAVG GPRESSAVG
ENERGY: 700000 2.0485 12.6911 19.7901 0.0000 -12245.0102 1810.8369 0.0000 0.0000 1218.3786 -9181.2651 209.9353 -10399.6436 -9179.0656 209.9353 -455.3271 -388.6055 28605.0735 -455.3271 -388.6055
ENERGY: 800000 3.3294 10.2107 20.0829 0.0000 -11841.0662 1775.5565 0.0000 0.0000 1412.8504 -8619.0362 243.4442 -10031.8867 -8617.9489 240.0267 475.1279 571.4637 28733.1702 3.0018 3.0601
TCL: Running 100000 steps at 270 kelvin.
TCL: Setting parameter langevinTemp to 270
TCL: Running for 100000 steps
ETITLE: TS BOND ANGLE DIHED IMPRP ELECT VDW BOUNDARY MISC KINETIC TOTAL TEMP POTENTIAL TOTAL3 TEMPAVG PRESSURE GPRESSURE VOLUME PRESSAVG GPRESSAVG
ENERGY: 800000 3.3294 10.2107 20.0829 0.0000 -11841.0662 1775.5565 0.0000 0.0000 1412.1574 -8619.7292 243.3248 -10031.8867 -8617.4479 243.3248 475.5772 569.2108 28733.1702 475.5772 569.2108
ENERGY: 900000 2.3105 11.7776 18.6385 0.0000 -11183.4681 1500.8530 0.0000 0.0000 1554.8882 -8095.0001 267.9183 -9649.8884 -8092.1006 269.5777 -503.1527 -447.7137 28966.3442 2.1886 2.1695
TCL: Running 1000000 steps at 300 kelvin.
TCL: Setting parameter langevinTemp to 300
TCL: Running for 1000000 steps
ETITLE: TS BOND ANGLE DIHED IMPRP ELECT VDW BOUNDARY MISC KINETIC TOTAL TEMP POTENTIAL TOTAL3 TEMPAVG PRESSURE GPRESSURE VOLUME PRESSAVG GPRESSAVG
ENERGY: 900000 2.3105 11.7776 18.6385 0.0000 -11183.4681 1500.8530 0.0000 0.0000 1554.1159 -8095.7724 267.7852 -9649.8884 -8093.5551 267.7852 -520.4437 -447.2812 28966.3442 -520.4437 -447.2812
ENERGY: 1100000 3.0444 13.8694 24.9635 0.0000 -10560.4262 1394.8329 0.0000 0.0000 1781.6805 -7342.0355 306.9962 -9123.7160 -7336.8467 300.1502 56.9309 93.7025 29873.6121 2.1954 2.2125
ENERGY: 1300000 2.4267 9.0067 21.4610 0.0000 -10823.2508 1546.9728 0.0000 0.0000 1685.3676 -7558.0160 290.4008 -9243.3836 -7554.6453 300.3981 731.8482 785.2732 30192.9845 3.5294 3.4067
ENERGY: 1500000 5.2269 7.8541 21.9743 0.0000 -10497.4282 1301.4694 0.0000 0.0000 1764.7348 -7396.1686 304.0763 -9160.9035 -7393.6792 299.9725 -803.7709 -729.4787 30340.9837 5.1119 5.0078
ENERGY: 1700000 2.7551 16.0399 18.2238 0.0000 -10590.6236 1411.9613 0.0000 0.0000 1739.2865 -7402.3569 299.6914 -9141.6434 -7398.2634 300.4740 73.0219 146.9878 29939.6549 3.7985 3.6457
ENERGY: 1900000 2.7628 14.0247 19.8002 0.0000 -10690.1484 1396.1224 0.0000 0.0000 1756.0811 -7501.3572 302.5852 -9257.4383 -7497.7072 299.9841 -394.0704 -243.2932 29728.8551 3.0174 3.0607
TCL: Exiting due to exit command.
