Info: SIMULATION PARAMETERS:
Info: TIMESTEP               2
Info: NUMBER OF STEPS        0
Info: STEPS PER CYCLE        10
Info: PERIODIC CELL BASIS 1  36.592 0 0
Info: PERIODIC CELL BASIS 2  0 34.26 0
Info: PERIODIC CELL BASIS 3  0 0 35.723
Info: PERIODIC CELL CENTER   0 0 0
Info: WRAPPING WATERS AROUND PERIODIC BOUNDARIES ON OUTPUT.
Info: WRAPPING ALL CLUSTERS AROUND PERIODIC BOUNDARIES ON OUTPUT.
Info: FIRST LDB TIMESTEP     50
Info: LAST LDB TIMESTEP     -1
Info: HOM BACKGROUND SCALING 1
Info: PME BACKGROUND SCALING 1
Info: MIN ATOMS PER PATCH    40
Info: EMPTY PATCH LOAD       40 ATOMS
Info: INITIAL TEMPERATURE    300
Info: CENTER OF MASS MOVING INITIALLY? NO
Info: DIELECTRIC             1
Info: EXCLUDE                SCALED ONE-FOUR
Info: 1-4 ELECTROSTATICS SCALED BY 0.833333
Info: MODIFIED 1-4 VDW PARAMETERS WILL BE USED
Info: DCD FILENAME           mobley_1034539_equil.dcd
Info: DCD FREQUENCY          100000
Info: DCD FIRST STEP         100000
Info: DCD FILE WILL CONTAIN UNIT CELL DATA
Info: XST FILENAME           mobley_1034539_equil.xst
Info: XST FREQUENCY          100000
Info: NO VELOCITY DCD OUTPUT
Info: NO FORCE DCD OUTPUT
Info: OUTPUT FILENAME        mobley_1034539_equil
Info: BINARY OUTPUT FILES WILL BE USED
Info: RESTART FILENAME       mobley_1034539_equil.restart
Info: RESTART FREQUENCY      100000
Info: BINARY RESTART FILES WILL BE USED
Info: CUTOFF                 9
Info: PAIRLIST DISTANCE      11
Info: PAIRLIST SHRINK RATE   0.01
Info: PAIRLIST GROW RATE     0.01
Info: PAIRLIST TRIGGER       0.3
Info: PAIRLISTS PER CYCLE    2
Info: PAIRLISTS ENABLED
Info: MARGIN                 8
Info: HYDROGEN GROUP CUTOFF  2.5
Info: PATCH DIMENSION        21.5
Info: ENERGY OUTPUT STEPS    100000
Info: ENERGY EVALUATION STEPS    100000
Info: OUTPUT ENERGY PRECISION 4
Info: CROSSTERM ENERGY INCLUDED IN DIHEDRAL
Info: TIMING OUTPUT STEPS    1000000
Info: PRESSURE OUTPUT STEPS  100000
Info: LANGEVIN DYNAMICS ACTIVE
Info: LANGEVIN TEMPERATURE   30
Info: LANGEVIN USING BBK INTEGRATOR
Info: LANGEVIN DAMPING COEFFICIENT IS 1 INVERSE PS
Info: LANGEVIN DYNAMICS APPLIED TO HYDROGENS
Info: LANGEVIN PISTON PRESSURE CONTROL ACTIVE
Info:        TARGET PRESSURE IS 1.01325 BAR
Info:     OSCILLATION PERIOD IS 50 FS
Info:             DECAY TIME IS 25 FS
Info:     PISTON TEMPERATURE IS 300 K
Info:       PRESSURE CONTROL IS GROUP-BASED
Info:    INITIAL STRAIN RATE IS 0 0 0
Info:       CELL FLUCTUATION IS ISOTROPIC
Info: PARTICLE MESH EWALD (PME) ACTIVE
Info: PME TOLERANCE               1e-06
Info: PME EWALD COEFFICIENT       0.348832
Info: PME INTERPOLATION ORDER     4
Info: PME GRID DIMENSIONS         40 36 36
Info: PME MAXIMUM GRID SPACING    1
Info: FULL ELECTROSTATIC EVALUATION FREQUENCY      2
Info: USING VERLET I (r-RESPA) MTS SCHEME.
Info: C1 SPLITTING OF LONG RANGE ELECTROSTATICS
Info: PLACING ATOMS IN PATCHES BY HYDROGEN GROUPS
Info: RIGID BONDS TO HYDROGEN : ALL
Info:         ERROR TOLERANCE : 1e-08
Info:          MAX ITERATIONS : 100
Info: RIGID WATER USING SETTLE ALGORITHM
Info: RANDOM NUMBER SEED     1743234286
Info: USE HYDROGEN BONDS?    NO
Info: Using AMBER format force field!
Info: AMBER PARM FILE        mobley_1034539.prmtop
Info: COORDINATE PDB         mobley_1034539.pdb
Info: Exclusions will be read from PARM file!
Info: SCNB (VDW SCALING)     2
Info: USING ARITHMETIC MEAN TO COMBINE L-J SIGMA PARAMETERS
Info: BINARY COORDINATES     mobley_1034539_min.coor
Info: SUMMARY OF PARAMETERS:
Info: 7 BONDS
Info: 8 ANGLES
Info:   8 HARMONIC
Info:   0 COSINE-BASED
Info: 3 DIHEDRAL
Info: 0 IMPROPER
Info: 0 CROSSTERM
Info: 0 VDW
Info: 15 VDW_PAIRS
Info: 0 NBTHOLE_PAIRS
Info: STRUCTURE SUMMARY:
Info: 2968 ATOMS
Info: 2969 BONDS
Info: 36 ANGLES
Info: 64 DIHEDRALS
Info: 0 IMPROPERS
Info: 0 CROSSTERMS
Info: 3051 EXCLUSIONS
Info: 2950 RIGID BONDS
Info: 5954 DEGREES OF FREEDOM
Info: 1000 HYDROGEN GROUPS
Info: 3 ATOMS IN LARGEST HYDROGEN GROUP
Info: 1000 MIGRATION GROUPS
Info: 3 ATOMS IN LARGEST MIGRATION GROUP
Info: TOTAL MASS = 18052.6 amu
Info: TOTAL CHARGE = -8.3819e-09 e
Info: MASS DENSITY = 0.669386 g/cm^3
Info: ATOM DENSITY = 0.0662739 atoms/A^3
Info: ADDED 0 IMPLICIT EXCLUSIONS
Info: NONBONDED TABLE R-SQUARED SPACING: 0.0625
Info: NONBONDED TABLE SIZE: 705 POINTS
Info: REMOVING COM VELOCITY -0.0781566 -0.101356 0.00738487
TCL: Running for 100000 steps
ETITLE: TS BOND ANGLE DIHED IMPRP ELECT VDW BOUNDARY MISC KINETIC TOTAL TEMP POTENTIAL TOTAL3 TEMPAVG PRESSURE GPRESSURE VOLUME PRESSAVG GPRESSAVG
ENERGY: 0 0.5912 0.4630 5.8978 0.0000 -13655.4208 2369.1801 0.0000 0.0000 1726.2919 -9552.9969 291.8071 -11279.2888 -9552.6659 291.8071 198.9761 240.4927 44783.8503 198.9761 240.4927
ENERGY: 100000 1.5802 0.8957 7.1875 0.0000 -14143.8624 2391.1202 0.0000 0.0000 181.6315 -11561.4473 30.7024 -11743.0788 -11560.9114 30.8808 -879.0304 -809.1392 29891.4535 3.1049 3.1393
TCL: Running 100000 steps at 60 kelvin.
TCL: Setting parameter langevinTemp to 60
TCL: Running for 100000 steps
ETITLE: TS BOND ANGLE DIHED IMPRP ELECT VDW BOUNDARY MISC KINETIC TOTAL TEMP POTENTIAL TOTAL3 TEMPAVG PRESSURE GPRESSURE VOLUME PRESSAVG GPRESSAVG
ENERGY: 100000 1.5802 0.8957 7.1875 0.0000 -14143.8624 2391.1202 0.0000 0.0000 181.5480 -11561.5308 30.6883 -11743.0788 -11561.0864 30.6883 -859.7523 -809.1596 29891.4535 -859.7523 -809.1596
ENERGY: 200000 2.0381 1.4009 7.9754 0.0000 -13971.8342 2286.5851 0.0000 0.0000 355.4560 -11318.3787 60.0852 -11673.8347 -11317.4006 59.8753 -1209.1303 -1160.7770 29367.8282 5.2865 5.3424
TCL: Running 100000 steps at 90 kelvin.
TCL: Setting parameter langevinTemp to 90
TCL: Running for 100000 steps
ETITLE: TS BOND ANGLE DIHED IMPRP ELECT VDW BOUNDARY MISC KINETIC TOTAL TEMP POTENTIAL TOTAL3 TEMPAVG PRESSURE GPRESSURE VOLUME PRESSAVG GPRESSAVG
ENERGY: 200000 2.0381 1.4009 7.9754 0.0000 -13971.8343 2286.5851 0.0000 0.0000 355.2819 -11318.5528 60.0557 -11673.8347 -11317.7033 60.0557 -1226.1809 -1160.8350 29367.8282 -1226.1809 -1160.8350
ENERGY: 300000 3.0941 2.1473 6.9218 0.0000 -14059.8520 2446.1803 0.0000 0.0000 542.9602 -11058.5483 91.7803 -11601.5085 -11057.7231 89.8662 630.1747 704.3282 28956.7337 4.6832 4.6433
TCL: Running 100000 steps at 120 kelvin.
TCL: Setting parameter langevinTemp to 120
TCL: Running for 100000 steps
ETITLE: TS BOND ANGLE DIHED IMPRP ELECT VDW BOUNDARY MISC KINETIC TOTAL TEMP POTENTIAL TOTAL3 TEMPAVG PRESSURE GPRESSURE VOLUME PRESSAVG GPRESSAVG
ENERGY: 300000 3.0941 2.1473 6.9218 0.0000 -14059.8520 2446.1803 0.0000 0.0000 542.6823 -11058.8262 91.7333 -11601.5085 -11057.7807 91.7333 646.5755 704.4579 28956.7337 646.5755 704.4579
ENERGY: 400000 2.1866 3.4366 6.8179 0.0000 -13789.3094 2304.4337 0.0000 0.0000 681.8605 -10790.5740 115.2596 -11472.4346 -10789.3161 119.7436 -318.4471 -252.5642 29267.4358 4.1577 4.3300
TCL: Running 100000 steps at 150 kelvin.
TCL: Setting parameter langevinTemp to 150
TCL: Running for 100000 steps
ETITLE: TS BOND ANGLE DIHED IMPRP ELECT VDW BOUNDARY MISC KINETIC TOTAL TEMP POTENTIAL TOTAL3 TEMPAVG PRESSURE GPRESSURE VOLUME PRESSAVG GPRESSAVG
ENERGY: 400000 2.1866 3.4366 6.8179 0.0000 -13789.3094 2304.4337 0.0000 0.0000 681.4963 -10790.9383 115.1980 -11472.4346 -10789.6370 115.1980 -313.7470 -252.5092 29267.4358 -313.7470 -252.5092
ENERGY: 500000 3.1902 2.6730 8.5543 0.0000 -13537.6871 2230.7269 0.0000 0.0000 877.9479 -10414.5948 148.4056 -11292.5428 -10412.2471 149.9388 -164.7519 -80.9932 28999.5465 3.2276 3.1349
TCL: Running 100000 steps at 180 kelvin.
TCL: Setting parameter langevinTemp to 180
TCL: Running for 100000 steps
ETITLE: TS BOND ANGLE DIHED IMPRP ELECT VDW BOUNDARY MISC KINETIC TOTAL TEMP POTENTIAL TOTAL3 TEMPAVG PRESSURE GPRESSURE VOLUME PRESSAVG GPRESSAVG
ENERGY: 500000 3.1902 2.6730 8.5543 0.0000 -13537.6871 2230.7269 0.0000 0.0000 877.5026 -10415.0402 148.3303 -11292.5428 -10413.2304 148.3303 -147.8196 -81.9873 28999.5465 -147.8196 -81.9873
ENERGY: 600000 5.3822 4.5734 6.6536 0.0000 -13109.6415 2115.7323 0.0000 0.0000 1059.3336 -9917.9664 179.0665 -10977.3000 -9914.3872 179.8803 -29.2334 63.7163 29199.1627 2.9943 3.0809
TCL: Running 100000 steps at 210 kelvin.
TCL: Setting parameter langevinTemp to 210
TCL: Running for 100000 steps
ETITLE: TS BOND ANGLE DIHED IMPRP ELECT VDW BOUNDARY MISC KINETIC TOTAL TEMP POTENTIAL TOTAL3 TEMPAVG PRESSURE GPRESSURE VOLUME PRESSAVG GPRESSAVG
ENERGY: 600000 5.3822 4.5734 6.6536 0.0000 -13109.6415 2115.7323 0.0000 0.0000 1058.8039 -9918.4961 178.9769 -10977.3000 -9916.9823 178.9769 5.5271 65.0101 29199.1627 5.5271 65.0101
ENERGY: 700000 5.0022 1.7051 8.9768 0.0000 -12365.8543 1810.9858 0.0000 0.0000 1277.4920 -9261.6923 215.9433 -10539.1843 -9257.9997 209.5824 -1035.9633 -984.2669 29503.0618 2.3751 2.4448
TCL: Running 100000 steps at 240 kelvin.
TCL: Setting parameter langevinTemp to 240
TCL: Running for 100000 steps
ETITLE: TS BOND ANGLE DIHED IMPRP ELECT VDW BOUNDARY MISC KINETIC TOTAL TEMP POTENTIAL TOTAL3 TEMPAVG PRESSURE GPRESSURE VOLUME PRESSAVG GPRESSAVG
ENERGY: 700000 5.0022 1.7051 8.9768 0.0000 -12365.8543 1810.9858 0.0000 0.0000 1276.8754 -9262.3089 215.8391 -10539.1843 -9260.1351 215.8391 -1058.3975 -983.7627 29503.0618 -1058.3975 -983.7627
ENERGY: 800000 5.4025 3.1106 9.6412 0.0000 -11830.9380 1800.0234 0.0000 0.0000 1430.4784 -8582.2819 241.8036 -10012.7602 -8577.5575 239.7496 1187.9957 1287.1537 28971.4580 2.2241 2.1868
TCL: Running 100000 steps at 270 kelvin.
TCL: Setting parameter langevinTemp to 270
TCL: Running for 100000 steps
ETITLE: TS BOND ANGLE DIHED IMPRP ELECT VDW BOUNDARY MISC KINETIC TOTAL TEMP POTENTIAL TOTAL3 TEMPAVG PRESSURE GPRESSURE VOLUME PRESSAVG GPRESSAVG
ENERGY: 800000 5.4025 3.1106 9.6412 0.0000 -11830.9380 1800.0234 0.0000 0.0000 1429.7829 -8582.9773 241.6861 -10012.7602 -8581.4563 241.6861 1209.3362 1290.0652 28971.4580 1209.3362 1290.0652
ENERGY: 900000 5.9305 6.2802 7.0527 0.0000 -11320.9460 1647.6612 0.0000 0.0000 1584.0842 -8069.9373 267.7687 -9654.0215 -8066.7485 269.6625 712.3841 756.0717 30187.9906 1.7273 1.8458
TCL: Running 1000000 steps at 300 kelvin.
TCL: Setting parameter langevinTemp to 300
TCL: Running for 1000000 steps
ETITLE: TS BOND ANGLE DIHED IMPRP ELECT VDW BOUNDARY MISC KINETIC TOTAL TEMP POTENTIAL TOTAL3 TEMPAVG PRESSURE GPRESSURE VOLUME PRESSAVG GPRESSAVG
ENERGY: 900000 5.9305 6.2802 7.0527 0.0000 -11320.9460 1647.6612 0.0000 0.0000 1583.3207 -8070.7008 267.6396 -9654.0215 -8068.4471 267.6396 676.6117 755.0107 30187.9906 676.6117 755.0107
ENERGY: 1100000 6.1227 11.4529 10.9895 0.0000 -10776.9933 1410.7444 0.0000 0.0000 1799.1930 -7538.4908 304.1300 -9337.6837 -7535.8315 300.7834 -226.6544 -123.9907 30461.9416 2.0294 2.2131
ENERGY: 1300000 4.4868 4.6499 16.9729 0.0000 -10644.4242 1359.9241 0.0000 0.0000 1738.0718 -7520.3188 293.7983 -9258.3906 -7517.1579 300.0382 -348.0707 -314.7714 30600.7720 3.2598 3.2911
ENERGY: 1500000 6.1902 3.0403 10.6462 0.0000 -10766.8411 1484.3501 0.0000 0.0000 1825.8940 -7436.7203 308.6435 -9262.6144 -7433.1163 299.9275 199.3984 343.5157 31025.6874 2.8560 2.9165
ENERGY: 1700000 8.7972 4.3711 13.9865 0.0000 -10691.4291 1384.3856 0.0000 0.0000 1806.6270 -7473.2617 305.3867 -9279.8887 -7471.4436 299.8805 -605.8455 -523.7067 30814.3317 2.9340 3.0944
ENERGY: 1900000 3.2169 7.0832 14.6244 0.0000 -10746.2982 1452.7985 0.0000 0.0000 1788.1482 -7480.4269 302.2631 -9268.5751 -7478.0747 300.0384 61.9184 140.4997 30614.4410 2.8663 2.8259
TCL: Exiting due to exit command.
