Info: SIMULATION PARAMETERS:
Info: TIMESTEP               2
Info: NUMBER OF STEPS        0
Info: STEPS PER CYCLE        10
Info: PERIODIC CELL BASIS 1  36.005 0 0
Info: PERIODIC CELL BASIS 2  0 35.411 0
Info: PERIODIC CELL BASIS 3  0 0 34.954
Info: PERIODIC CELL CENTER   0 0 0
Info: WRAPPING WATERS AROUND PERIODIC BOUNDARIES ON OUTPUT.
Info: WRAPPING ALL CLUSTERS AROUND PERIODIC BOUNDARIES ON OUTPUT.
Info: FIRST LDB TIMESTEP     50
Info: LAST LDB TIMESTEP     -1
Info: HOM BACKGROUND SCALING 1
Info: PME BACKGROUND SCALING 1
Info: MIN ATOMS PER PATCH    40
Info: EMPTY PATCH LOAD       40 ATOMS
Info: INITIAL TEMPERATURE    300
Info: CENTER OF MASS MOVING INITIALLY? NO
Info: DIELECTRIC             1
Info: EXCLUDE                SCALED ONE-FOUR
Info: 1-4 ELECTROSTATICS SCALED BY 0.833333
Info: MODIFIED 1-4 VDW PARAMETERS WILL BE USED
Info: DCD FILENAME           mobley_8983100_equil.dcd
Info: DCD FREQUENCY          100000
Info: DCD FIRST STEP         100000
Info: DCD FILE WILL CONTAIN UNIT CELL DATA
Info: XST FILENAME           mobley_8983100_equil.xst
Info: XST FREQUENCY          100000
Info: NO VELOCITY DCD OUTPUT
Info: NO FORCE DCD OUTPUT
Info: OUTPUT FILENAME        mobley_8983100_equil
Info: BINARY OUTPUT FILES WILL BE USED
Info: RESTART FILENAME       mobley_8983100_equil.restart
Info: RESTART FREQUENCY      100000
Info: BINARY RESTART FILES WILL BE USED
Info: CUTOFF                 9
Info: PAIRLIST DISTANCE      11
Info: PAIRLIST SHRINK RATE   0.01
Info: PAIRLIST GROW RATE     0.01
Info: PAIRLIST TRIGGER       0.3
Info: PAIRLISTS PER CYCLE    2
Info: PAIRLISTS ENABLED
Info: MARGIN                 8
Info: HYDROGEN GROUP CUTOFF  2.5
Info: PATCH DIMENSION        21.5
Info: ENERGY OUTPUT STEPS    100000
Info: ENERGY EVALUATION STEPS    100000
Info: OUTPUT ENERGY PRECISION 4
Info: CROSSTERM ENERGY INCLUDED IN DIHEDRAL
Info: TIMING OUTPUT STEPS    1000000
Info: PRESSURE OUTPUT STEPS  100000
Info: LANGEVIN DYNAMICS ACTIVE
Info: LANGEVIN TEMPERATURE   30
Info: LANGEVIN USING BBK INTEGRATOR
Info: LANGEVIN DAMPING COEFFICIENT IS 1 INVERSE PS
Info: LANGEVIN DYNAMICS APPLIED TO HYDROGENS
Info: LANGEVIN PISTON PRESSURE CONTROL ACTIVE
Info:        TARGET PRESSURE IS 1.01325 BAR
Info:     OSCILLATION PERIOD IS 50 FS
Info:             DECAY TIME IS 25 FS
Info:     PISTON TEMPERATURE IS 300 K
Info:       PRESSURE CONTROL IS GROUP-BASED
Info:    INITIAL STRAIN RATE IS 0 0 0
Info:       CELL FLUCTUATION IS ISOTROPIC
Info: PARTICLE MESH EWALD (PME) ACTIVE
Info: PME TOLERANCE               1e-06
Info: PME EWALD COEFFICIENT       0.348832
Info: PME INTERPOLATION ORDER     4
Info: PME GRID DIMENSIONS         40 36 36
Info: PME MAXIMUM GRID SPACING    1
Info: FULL ELECTROSTATIC EVALUATION FREQUENCY      2
Info: USING VERLET I (r-RESPA) MTS SCHEME.
Info: C1 SPLITTING OF LONG RANGE ELECTROSTATICS
Info: PLACING ATOMS IN PATCHES BY HYDROGEN GROUPS
Info: RIGID BONDS TO HYDROGEN : ALL
Info:         ERROR TOLERANCE : 1e-08
Info:          MAX ITERATIONS : 100
Info: RIGID WATER USING SETTLE ALGORITHM
Info: RANDOM NUMBER SEED     1743154107
Info: USE HYDROGEN BONDS?    NO
Info: Using AMBER format force field!
Info: AMBER PARM FILE        mobley_8983100.prmtop
Info: COORDINATE PDB         mobley_8983100.pdb
Info: Exclusions will be read from PARM file!
Info: SCNB (VDW SCALING)     2
Info: USING ARITHMETIC MEAN TO COMBINE L-J SIGMA PARAMETERS
Info: BINARY COORDINATES     mobley_8983100_min.coor
Info: SUMMARY OF PARAMETERS:
Info: 4 BONDS
Info: 2 ANGLES
Info:   2 HARMONIC
Info:   0 COSINE-BASED
Info: 0 DIHEDRAL
Info: 0 IMPROPER
Info: 0 CROSSTERM
Info: 0 VDW
Info: 15 VDW_PAIRS
Info: 0 NBTHOLE_PAIRS
Info: STRUCTURE SUMMARY:
Info: 2960 ATOMS
Info: 2959 BONDS
Info: 6 ANGLES
Info: 0 DIHEDRALS
Info: 0 IMPROPERS
Info: 0 CROSSTERMS
Info: 2965 EXCLUSIONS
Info: 2958 RIGID BONDS
Info: 5922 DEGREES OF FREEDOM
Info: 987 HYDROGEN GROUPS
Info: 4 ATOMS IN LARGEST HYDROGEN GROUP
Info: 987 MIGRATION GROUPS
Info: 4 ATOMS IN LARGEST MIGRATION GROUP
Info: TOTAL MASS = 17840.7 amu
Info: TOTAL CHARGE = 3.72529e-09 e
Info: MASS DENSITY = 0.664773 g/cm^3
Info: ATOM DENSITY = 0.0664192 atoms/A^3
Info: ADDED 0 IMPLICIT EXCLUSIONS
Info: NONBONDED TABLE R-SQUARED SPACING: 0.0625
Info: NONBONDED TABLE SIZE: 705 POINTS
Info: REMOVING COM VELOCITY 0.0393204 -0.111057 -0.100886
TCL: Running for 100000 steps
ETITLE: TS BOND ANGLE DIHED IMPRP ELECT VDW BOUNDARY MISC KINETIC TOTAL TEMP POTENTIAL TOTAL3 TEMPAVG PRESSURE GPRESSURE VOLUME PRESSAVG GPRESSAVG
ENERGY: 0 0.0005 0.5341 0.0000 0.0000 -13713.1703 2455.5527 0.0000 0.0000 1781.2264 -9475.8565 302.7200 -11257.0829 -9475.4957 302.7200 633.0359 670.7711 44565.4082 633.0359 670.7711
ENERGY: 100000 0.0108 0.6490 0.0000 0.0000 -14318.7477 2501.1524 0.0000 0.0000 172.7517 -11644.1838 29.3592 -11816.9354 -11643.6076 30.9314 -97.2727 -39.3655 29212.0745 3.3548 3.3735
TCL: Running 100000 steps at 60 kelvin.
TCL: Setting parameter langevinTemp to 60
TCL: Running for 100000 steps
ETITLE: TS BOND ANGLE DIHED IMPRP ELECT VDW BOUNDARY MISC KINETIC TOTAL TEMP POTENTIAL TOTAL3 TEMPAVG PRESSURE GPRESSURE VOLUME PRESSAVG GPRESSAVG
ENERGY: 100000 0.0108 0.6490 0.0000 0.0000 -14318.7477 2501.1524 0.0000 0.0000 172.6648 -11644.2706 29.3444 -11816.9354 -11643.9804 29.3444 -77.3589 -39.1676 29212.0745 -77.3589 -39.1676
ENERGY: 200000 0.0217 0.6518 0.0000 0.0000 -14238.5552 2494.4946 0.0000 0.0000 346.2765 -11397.1106 58.8498 -11743.3871 -11396.7201 59.9467 10.2723 64.8393 29234.7863 3.7751 3.8705
TCL: Running 100000 steps at 90 kelvin.
TCL: Setting parameter langevinTemp to 90
TCL: Running for 100000 steps
ETITLE: TS BOND ANGLE DIHED IMPRP ELECT VDW BOUNDARY MISC KINETIC TOTAL TEMP POTENTIAL TOTAL3 TEMPAVG PRESSURE GPRESSURE VOLUME PRESSAVG GPRESSAVG
ENERGY: 200000 0.0217 0.6518 0.0000 0.0000 -14238.5552 2494.4946 0.0000 0.0000 346.1017 -11397.2854 58.8201 -11743.3871 -11396.6721 58.8201 23.5561 64.5406 29234.7863 23.5561 64.5406
ENERGY: 300000 0.2505 1.0348 0.0000 0.0000 -14029.1393 2389.1165 0.0000 0.0000 546.6013 -11092.1362 92.8951 -11638.7375 -11090.2392 89.6942 -314.1164 -270.7096 29188.7471 3.9929 3.9635
TCL: Running 100000 steps at 120 kelvin.
TCL: Setting parameter langevinTemp to 120
TCL: Running for 100000 steps
ETITLE: TS BOND ANGLE DIHED IMPRP ELECT VDW BOUNDARY MISC KINETIC TOTAL TEMP POTENTIAL TOTAL3 TEMPAVG PRESSURE GPRESSURE VOLUME PRESSAVG GPRESSAVG
ENERGY: 300000 0.2505 1.0348 0.0000 0.0000 -14029.1393 2389.1165 0.0000 0.0000 546.3478 -11092.3896 92.8520 -11638.7375 -11091.3574 92.8520 -321.5955 -269.8844 29188.7471 -321.5955 -269.8844
ENERGY: 400000 0.0683 1.5603 0.0000 0.0000 -13772.1439 2269.3077 0.0000 0.0000 718.1595 -10783.0481 122.0514 -11501.2076 -10780.7332 119.9795 -700.3027 -639.9863 29229.0290 4.6828 4.5956
TCL: Running 100000 steps at 150 kelvin.
TCL: Setting parameter langevinTemp to 150
TCL: Running for 100000 steps
ETITLE: TS BOND ANGLE DIHED IMPRP ELECT VDW BOUNDARY MISC KINETIC TOTAL TEMP POTENTIAL TOTAL3 TEMPAVG PRESSURE GPRESSURE VOLUME PRESSAVG GPRESSAVG
ENERGY: 400000 0.0683 1.5603 0.0000 0.0000 -13772.1439 2269.3077 0.0000 0.0000 717.8076 -10783.4000 121.9916 -11501.2076 -10781.8787 121.9916 -695.5812 -640.0931 29229.0290 -695.5812 -640.0931
ENERGY: 500000 0.1098 1.0472 0.0000 0.0000 -13564.8465 2196.4589 0.0000 0.0000 854.2144 -10513.0163 145.1740 -11367.2307 -10510.7171 149.9215 -1019.1070 -960.6949 29589.0573 4.5229 4.5637
TCL: Running 100000 steps at 180 kelvin.
TCL: Setting parameter langevinTemp to 180
TCL: Running for 100000 steps
ETITLE: TS BOND ANGLE DIHED IMPRP ELECT VDW BOUNDARY MISC KINETIC TOTAL TEMP POTENTIAL TOTAL3 TEMPAVG PRESSURE GPRESSURE VOLUME PRESSAVG GPRESSAVG
ENERGY: 500000 0.1098 1.0472 0.0000 0.0000 -13564.8465 2196.4589 0.0000 0.0000 853.7512 -10513.4794 145.0953 -11367.2307 -10511.3561 145.0953 -1005.0905 -959.6724 29589.0573 -1005.0905 -959.6724
ENERGY: 600000 0.2041 2.2297 0.0000 0.0000 -13039.5457 2006.9016 0.0000 0.0000 1068.8497 -9961.3606 181.6514 -11030.2103 -9957.8041 180.1126 -770.4982 -750.5102 28836.3330 3.3925 3.4117
TCL: Running 100000 steps at 210 kelvin.
TCL: Setting parameter langevinTemp to 210
TCL: Running for 100000 steps
ETITLE: TS BOND ANGLE DIHED IMPRP ELECT VDW BOUNDARY MISC KINETIC TOTAL TEMP POTENTIAL TOTAL3 TEMPAVG PRESSURE GPRESSURE VOLUME PRESSAVG GPRESSAVG
ENERGY: 600000 0.2041 2.2297 0.0000 0.0000 -13039.5457 2006.9016 0.0000 0.0000 1068.3288 -9961.8815 181.5628 -11030.2103 -9959.7180 181.5628 -816.6378 -749.9757 28836.3330 -816.6378 -749.9757
ENERGY: 700000 0.1045 1.2545 0.0000 0.0000 -12589.8623 2035.1280 0.0000 0.0000 1245.4235 -9307.9517 211.6601 -10553.3752 -9305.9002 210.0733 1208.6965 1213.3695 28713.4676 3.8767 3.8149
TCL: Running 100000 steps at 240 kelvin.
TCL: Setting parameter langevinTemp to 240
TCL: Running for 100000 steps
ETITLE: TS BOND ANGLE DIHED IMPRP ELECT VDW BOUNDARY MISC KINETIC TOTAL TEMP POTENTIAL TOTAL3 TEMPAVG PRESSURE GPRESSURE VOLUME PRESSAVG GPRESSAVG
ENERGY: 700000 0.1045 1.2545 0.0000 0.0000 -12589.8623 2035.1280 0.0000 0.0000 1244.8069 -9308.5684 211.5553 -10553.3752 -9306.4356 211.5553 1134.7849 1213.0247 28713.4676 1134.7849 1213.0247
ENERGY: 800000 0.1146 2.4544 0.0000 0.0000 -11810.1034 1692.4190 0.0000 0.0000 1431.5948 -8683.5205 243.3000 -10115.1153 -8681.8365 240.0332 -223.6579 -87.6836 29049.6731 3.4235 3.4239
TCL: Running 100000 steps at 270 kelvin.
TCL: Setting parameter langevinTemp to 270
TCL: Running for 100000 steps
ETITLE: TS BOND ANGLE DIHED IMPRP ELECT VDW BOUNDARY MISC KINETIC TOTAL TEMP POTENTIAL TOTAL3 TEMPAVG PRESSURE GPRESSURE VOLUME PRESSAVG GPRESSAVG
ENERGY: 800000 0.1146 2.4544 0.0000 0.0000 -11810.1034 1692.4190 0.0000 0.0000 1430.8669 -8684.2485 243.1763 -10115.1153 -8681.8635 243.1763 -174.0813 -88.0083 29049.6731 -174.0813 -88.0083
ENERGY: 900000 0.0750 1.6430 0.0000 0.0000 -11325.3182 1569.5784 0.0000 0.0000 1563.8827 -8190.1390 265.7824 -9754.0217 -8186.9628 269.4176 -170.7474 -83.4295 29556.0474 1.2685 1.4212
TCL: Running 1000000 steps at 300 kelvin.
TCL: Setting parameter langevinTemp to 300
TCL: Running for 1000000 steps
ETITLE: TS BOND ANGLE DIHED IMPRP ELECT VDW BOUNDARY MISC KINETIC TOTAL TEMP POTENTIAL TOTAL3 TEMPAVG PRESSURE GPRESSURE VOLUME PRESSAVG GPRESSAVG
ENERGY: 900000 0.0750 1.6430 0.0000 0.0000 -11325.3182 1569.5784 0.0000 0.0000 1563.0719 -8190.9498 265.6446 -9754.0217 -8188.1262 265.6446 -165.1177 -85.3806 29556.0474 -165.1177 -85.3806
ENERGY: 1100000 0.8173 1.8360 0.0000 0.0000 -10666.2015 1336.9096 0.0000 0.0000 1744.1823 -7582.4564 296.4243 -9326.6387 -7575.8249 300.2973 -965.1272 -904.8542 30636.0586 3.7512 3.6182
ENERGY: 1300000 1.7981 1.2218 0.0000 0.0000 -10804.8048 1453.2387 0.0000 0.0000 1759.6709 -7588.8753 299.0566 -9348.5462 -7586.1770 299.9755 92.8499 202.8262 30007.4563 2.2890 2.4257
ENERGY: 1500000 1.0498 1.2220 0.0000 0.0000 -10722.3290 1410.1935 0.0000 0.0000 1762.3928 -7547.4709 299.5192 -9309.8637 -7546.0753 299.6041 -212.0873 -224.1228 30463.3759 3.2008 3.1575
ENERGY: 1700000 0.0970 2.5847 0.0000 0.0000 -10785.2276 1470.2335 0.0000 0.0000 1719.3503 -7592.9621 292.2041 -9312.3124 -7591.2886 300.7130 209.5457 258.6019 30425.6005 3.2522 3.2306
ENERGY: 1900000 0.4434 1.0564 0.0000 0.0000 -10815.8899 1489.5953 0.0000 0.0000 1765.3198 -7559.4750 300.0167 -9324.7948 -7558.0995 299.7887 225.9424 317.1522 30503.7350 3.1567 3.3043
TCL: Exiting due to exit command.
