Info: SIMULATION PARAMETERS:
Info: TIMESTEP               2
Info: NUMBER OF STEPS        0
Info: STEPS PER CYCLE        10
Info: PERIODIC CELL BASIS 1  34.986 0 0
Info: PERIODIC CELL BASIS 2  0 35.847 0
Info: PERIODIC CELL BASIS 3  0 0 35.516
Info: PERIODIC CELL CENTER   0 0 0
Info: WRAPPING WATERS AROUND PERIODIC BOUNDARIES ON OUTPUT.
Info: WRAPPING ALL CLUSTERS AROUND PERIODIC BOUNDARIES ON OUTPUT.
Info: FIRST LDB TIMESTEP     50
Info: LAST LDB TIMESTEP     -1
Info: HOM BACKGROUND SCALING 1
Info: PME BACKGROUND SCALING 1
Info: MIN ATOMS PER PATCH    40
Info: EMPTY PATCH LOAD       40 ATOMS
Info: INITIAL TEMPERATURE    300
Info: CENTER OF MASS MOVING INITIALLY? NO
Info: DIELECTRIC             1
Info: EXCLUDE                SCALED ONE-FOUR
Info: 1-4 ELECTROSTATICS SCALED BY 0.833333
Info: MODIFIED 1-4 VDW PARAMETERS WILL BE USED
Info: DCD FILENAME           mobley_8191186_equil.dcd
Info: DCD FREQUENCY          100000
Info: DCD FIRST STEP         100000
Info: DCD FILE WILL CONTAIN UNIT CELL DATA
Info: XST FILENAME           mobley_8191186_equil.xst
Info: XST FREQUENCY          100000
Info: NO VELOCITY DCD OUTPUT
Info: NO FORCE DCD OUTPUT
Info: OUTPUT FILENAME        mobley_8191186_equil
Info: BINARY OUTPUT FILES WILL BE USED
Info: RESTART FILENAME       mobley_8191186_equil.restart
Info: RESTART FREQUENCY      100000
Info: BINARY RESTART FILES WILL BE USED
Info: CUTOFF                 9
Info: PAIRLIST DISTANCE      11
Info: PAIRLIST SHRINK RATE   0.01
Info: PAIRLIST GROW RATE     0.01
Info: PAIRLIST TRIGGER       0.3
Info: PAIRLISTS PER CYCLE    2
Info: PAIRLISTS ENABLED
Info: MARGIN                 8
Info: HYDROGEN GROUP CUTOFF  2.5
Info: PATCH DIMENSION        21.5
Info: ENERGY OUTPUT STEPS    100000
Info: ENERGY EVALUATION STEPS    100000
Info: OUTPUT ENERGY PRECISION 4
Info: CROSSTERM ENERGY INCLUDED IN DIHEDRAL
Info: TIMING OUTPUT STEPS    1000000
Info: PRESSURE OUTPUT STEPS  100000
Info: LANGEVIN DYNAMICS ACTIVE
Info: LANGEVIN TEMPERATURE   30
Info: LANGEVIN USING BBK INTEGRATOR
Info: LANGEVIN DAMPING COEFFICIENT IS 1 INVERSE PS
Info: LANGEVIN DYNAMICS APPLIED TO HYDROGENS
Info: LANGEVIN PISTON PRESSURE CONTROL ACTIVE
Info:        TARGET PRESSURE IS 1.01325 BAR
Info:     OSCILLATION PERIOD IS 50 FS
Info:             DECAY TIME IS 25 FS
Info:     PISTON TEMPERATURE IS 300 K
Info:       PRESSURE CONTROL IS GROUP-BASED
Info:    INITIAL STRAIN RATE IS 0 0 0
Info:       CELL FLUCTUATION IS ISOTROPIC
Info: PARTICLE MESH EWALD (PME) ACTIVE
Info: PME TOLERANCE               1e-06
Info: PME EWALD COEFFICIENT       0.348832
Info: PME INTERPOLATION ORDER     4
Info: PME GRID DIMENSIONS         36 36 36
Info: PME MAXIMUM GRID SPACING    1
Info: FULL ELECTROSTATIC EVALUATION FREQUENCY      2
Info: USING VERLET I (r-RESPA) MTS SCHEME.
Info: C1 SPLITTING OF LONG RANGE ELECTROSTATICS
Info: PLACING ATOMS IN PATCHES BY HYDROGEN GROUPS
Info: RIGID BONDS TO HYDROGEN : ALL
Info:         ERROR TOLERANCE : 1e-08
Info:          MAX ITERATIONS : 100
Info: RIGID WATER USING SETTLE ALGORITHM
Info: RANDOM NUMBER SEED     1743158122
Info: USE HYDROGEN BONDS?    NO
Info: Using AMBER format force field!
Info: AMBER PARM FILE        mobley_8191186.prmtop
Info: COORDINATE PDB         mobley_8191186.pdb
Info: Exclusions will be read from PARM file!
Info: SCNB (VDW SCALING)     2
Info: USING ARITHMETIC MEAN TO COMBINE L-J SIGMA PARAMETERS
Info: BINARY COORDINATES     mobley_8191186_min.coor
Info: SUMMARY OF PARAMETERS:
Info: 6 BONDS
Info: 6 ANGLES
Info:   6 HARMONIC
Info:   0 COSINE-BASED
Info: 3 DIHEDRAL
Info: 0 IMPROPER
Info: 0 CROSSTERM
Info: 0 VDW
Info: 21 VDW_PAIRS
Info: 0 NBTHOLE_PAIRS
Info: STRUCTURE SUMMARY:
Info: 2915 ATOMS
Info: 2914 BONDS
Info: 12 ANGLES
Info: 15 DIHEDRALS
Info: 0 IMPROPERS
Info: 0 CROSSTERMS
Info: 2935 EXCLUSIONS
Info: 2909 RIGID BONDS
Info: 5836 DEGREES OF FREEDOM
Info: 975 HYDROGEN GROUPS
Info: 3 ATOMS IN LARGEST HYDROGEN GROUP
Info: 975 MIGRATION GROUPS
Info: 3 ATOMS IN LARGEST MIGRATION GROUP
Info: TOTAL MASS = 17576 amu
Info: TOTAL CHARGE = 9.99831e-05 e
Info: MASS DENSITY = 0.655251 g/cm^3
Info: ATOM DENSITY = 0.0654436 atoms/A^3
Info: ADDED 0 IMPLICIT EXCLUSIONS
Info: NONBONDED TABLE R-SQUARED SPACING: 0.0625
Info: NONBONDED TABLE SIZE: 705 POINTS
Info: REMOVING COM VELOCITY 0.260086 -0.0326425 -0.102158
TCL: Running for 100000 steps
ETITLE: TS BOND ANGLE DIHED IMPRP ELECT VDW BOUNDARY MISC KINETIC TOTAL TEMP POTENTIAL TOTAL3 TEMPAVG PRESSURE GPRESSURE VOLUME PRESSAVG GPRESSAVG
ENERGY: 0 0.0195 0.4054 1.1673 0.0000 -13583.3004 2421.3514 0.0000 0.0000 1762.3326 -9398.0240 303.9226 -11160.3566 -9397.6766 303.9226 587.3427 623.8532 44542.1478 587.3427 623.8532
ENERGY: 100000 0.1194 0.8688 1.2704 0.0000 -14009.1860 2410.5422 0.0000 0.0000 171.4472 -11424.9380 29.5669 -11596.3852 -11424.4497 30.8867 -477.0879 -414.2207 29285.5232 3.8007 3.8052
TCL: Running 100000 steps at 60 kelvin.
TCL: Setting parameter langevinTemp to 60
TCL: Running for 100000 steps
ETITLE: TS BOND ANGLE DIHED IMPRP ELECT VDW BOUNDARY MISC KINETIC TOTAL TEMP POTENTIAL TOTAL3 TEMPAVG PRESSURE GPRESSURE VOLUME PRESSAVG GPRESSAVG
ENERGY: 100000 0.1194 0.8688 1.2704 0.0000 -14009.1860 2410.5422 0.0000 0.0000 171.3595 -11425.0256 29.5518 -11596.3852 -11424.6909 29.5518 -475.6474 -414.1263 29285.5232 -475.6474 -414.1263
ENERGY: 200000 0.2192 0.7093 1.1568 0.0000 -14029.9408 2477.9902 0.0000 0.0000 348.2572 -11201.6080 60.0586 -11549.8652 -11200.5093 59.9200 384.5018 433.3098 28738.8974 5.0833 4.9948
TCL: Running 100000 steps at 90 kelvin.
TCL: Setting parameter langevinTemp to 90
TCL: Running for 100000 steps
ETITLE: TS BOND ANGLE DIHED IMPRP ELECT VDW BOUNDARY MISC KINETIC TOTAL TEMP POTENTIAL TOTAL3 TEMPAVG PRESSURE GPRESSURE VOLUME PRESSAVG GPRESSAVG
ENERGY: 200000 0.2192 0.7093 1.1568 0.0000 -14029.9408 2477.9902 0.0000 0.0000 348.0853 -11201.7799 60.0290 -11549.8652 -11201.0889 60.0290 379.1657 433.5119 28738.8974 379.1657 433.5119
ENERGY: 300000 0.5930 1.0936 1.2079 0.0000 -13845.6370 2371.0120 0.0000 0.0000 518.0167 -10953.7139 89.3344 -11471.7306 -10952.1187 89.7686 -98.6593 -22.8675 28763.4627 4.2019 4.1508
TCL: Running 100000 steps at 120 kelvin.
TCL: Setting parameter langevinTemp to 120
TCL: Running for 100000 steps
ETITLE: TS BOND ANGLE DIHED IMPRP ELECT VDW BOUNDARY MISC KINETIC TOTAL TEMP POTENTIAL TOTAL3 TEMPAVG PRESSURE GPRESSURE VOLUME PRESSAVG GPRESSAVG
ENERGY: 300000 0.5930 1.0936 1.2079 0.0000 -13845.6370 2371.0120 0.0000 0.0000 517.7573 -10953.9733 89.2897 -11471.7306 -10952.9769 89.2897 -77.6761 -21.9064 28763.4627 -77.6761 -21.9064
ENERGY: 400000 0.4514 0.5133 1.1473 0.0000 -13710.3040 2388.9670 0.0000 0.0000 700.8405 -10618.3846 120.8633 -11319.2251 -10616.1053 119.7498 619.0088 692.3401 28601.6991 2.8929 2.7509
TCL: Running 100000 steps at 150 kelvin.
TCL: Setting parameter langevinTemp to 150
TCL: Running for 100000 steps
ETITLE: TS BOND ANGLE DIHED IMPRP ELECT VDW BOUNDARY MISC KINETIC TOTAL TEMP POTENTIAL TOTAL3 TEMPAVG PRESSURE GPRESSURE VOLUME PRESSAVG GPRESSAVG
ENERGY: 400000 0.4514 0.5133 1.1473 0.0000 -13710.3040 2388.9670 0.0000 0.0000 700.4951 -10618.7300 120.8037 -11319.2251 -10617.2788 120.8037 640.0999 692.8361 28601.6991 640.0999 692.8361
ENERGY: 500000 0.5950 1.9448 1.1505 0.0000 -13325.6657 2180.0378 0.0000 0.0000 895.0358 -10246.9018 154.3531 -11141.9376 -10244.6710 149.9183 -550.4515 -482.2885 29077.5878 4.7755 4.6369
TCL: Running 100000 steps at 180 kelvin.
TCL: Setting parameter langevinTemp to 180
TCL: Running for 100000 steps
ETITLE: TS BOND ANGLE DIHED IMPRP ELECT VDW BOUNDARY MISC KINETIC TOTAL TEMP POTENTIAL TOTAL3 TEMPAVG PRESSURE GPRESSURE VOLUME PRESSAVG GPRESSAVG
ENERGY: 500000 0.5950 1.9448 1.1505 0.0000 -13325.6657 2180.0378 0.0000 0.0000 894.5803 -10247.3573 154.2746 -11141.9376 -10245.8537 154.2746 -544.5630 -482.7251 29077.5878 -544.5630 -482.7251
ENERGY: 600000 0.3760 2.4748 1.2432 0.0000 -12843.4190 1992.7841 0.0000 0.0000 1082.1165 -9764.4244 186.6161 -10846.5409 -9762.0860 180.5560 -895.6178 -796.5453 29004.7181 4.9472 4.8007
TCL: Running 100000 steps at 210 kelvin.
TCL: Setting parameter langevinTemp to 210
TCL: Running for 100000 steps
ETITLE: TS BOND ANGLE DIHED IMPRP ELECT VDW BOUNDARY MISC KINETIC TOTAL TEMP POTENTIAL TOTAL3 TEMPAVG PRESSURE GPRESSURE VOLUME PRESSAVG GPRESSAVG
ENERGY: 600000 0.3760 2.4748 1.2432 0.0000 -12843.4190 1992.7841 0.0000 0.0000 1081.5915 -9764.9493 186.5256 -10846.5409 -9762.5244 186.5256 -873.6191 -798.2749 29004.7181 -873.6191 -798.2749
ENERGY: 700000 0.7129 2.5138 1.5853 0.0000 -12539.2613 2085.4411 0.0000 0.0000 1234.5411 -9214.4671 212.9024 -10449.0082 -9212.2604 210.3479 1914.2698 1990.3574 27930.5342 2.8191 2.9128
TCL: Running 100000 steps at 240 kelvin.
TCL: Setting parameter langevinTemp to 240
TCL: Running for 100000 steps
ETITLE: TS BOND ANGLE DIHED IMPRP ELECT VDW BOUNDARY MISC KINETIC TOTAL TEMP POTENTIAL TOTAL3 TEMPAVG PRESSURE GPRESSURE VOLUME PRESSAVG GPRESSAVG
ENERGY: 700000 0.7129 2.5138 1.5853 0.0000 -12539.2613 2085.4411 0.0000 0.0000 1233.9397 -9215.0684 212.7987 -10449.0082 -9213.5889 212.7987 1914.4592 1990.4518 27930.5342 1914.4592 1990.4518
ENERGY: 800000 0.3209 4.0192 1.1262 0.0000 -11718.1229 1755.4160 0.0000 0.0000 1398.4999 -8558.7407 241.1779 -9957.2406 -8554.8481 239.9004 321.8241 390.6825 29034.0617 3.9000 3.9406
TCL: Running 100000 steps at 270 kelvin.
TCL: Setting parameter langevinTemp to 270
TCL: Running for 100000 steps
ETITLE: TS BOND ANGLE DIHED IMPRP ELECT VDW BOUNDARY MISC KINETIC TOTAL TEMP POTENTIAL TOTAL3 TEMPAVG PRESSURE GPRESSURE VOLUME PRESSAVG GPRESSAVG
ENERGY: 800000 0.3209 4.0192 1.1262 0.0000 -11718.1229 1755.4160 0.0000 0.0000 1397.7869 -8559.4537 241.0550 -9957.2406 -8557.3872 241.0550 326.5850 391.3478 29034.0617 326.5850 391.3478
ENERGY: 900000 2.4719 4.9604 1.1443 0.0000 -11032.1221 1476.5054 0.0000 0.0000 1598.6734 -7948.3667 275.6988 -9547.0401 -7945.3144 270.4029 -371.9128 -303.7116 29298.6453 3.7752 3.7809
TCL: Running 1000000 steps at 300 kelvin.
TCL: Setting parameter langevinTemp to 300
TCL: Running for 1000000 steps
ETITLE: TS BOND ANGLE DIHED IMPRP ELECT VDW BOUNDARY MISC KINETIC TOTAL TEMP POTENTIAL TOTAL3 TEMPAVG PRESSURE GPRESSURE VOLUME PRESSAVG GPRESSAVG
ENERGY: 900000 2.4719 4.9604 1.1443 0.0000 -11032.1221 1476.5054 0.0000 0.0000 1597.9147 -7949.1254 275.5679 -9547.0401 -7946.6309 275.5679 -399.1495 -305.5691 29298.6453 -399.1495 -305.5691
ENERGY: 1100000 1.9185 1.7425 1.1613 0.0000 -10636.5311 1444.7346 0.0000 0.0000 1702.8715 -7484.1027 293.6682 -9186.9742 -7480.1270 300.1586 254.3193 257.1497 29974.0714 3.3254 3.1908
ENERGY: 1300000 0.9171 3.8472 1.2633 0.0000 -10568.0708 1391.6197 0.0000 0.0000 1701.9591 -7468.4644 293.5109 -9170.4236 -7466.8890 300.3972 -418.3610 -300.4049 30173.9421 4.2577 4.1844
ENERGY: 1500000 0.3224 4.1722 1.2103 0.0000 -10493.0175 1325.0649 0.0000 0.0000 1755.2980 -7406.9497 302.7094 -9162.2477 -7401.0075 300.0767 -858.6636 -814.1111 30278.5499 2.1504 2.4828
ENERGY: 1700000 1.8169 4.3235 1.2740 0.0000 -10565.8507 1382.9362 0.0000 0.0000 1763.3753 -7412.1246 304.1024 -9175.5000 -7406.7664 299.9100 -250.5277 -162.2087 30018.2797 2.8352 2.8780
ENERGY: 1900000 1.5846 2.2998 1.2416 0.0000 -10518.0991 1425.9047 0.0000 0.0000 1773.6867 -7313.3817 305.8807 -9087.0684 -7311.3809 300.3496 46.1203 172.8233 30415.8039 2.6686 2.6591
TCL: Exiting due to exit command.
