Info: SIMULATION PARAMETERS:
Info: TIMESTEP               2
Info: NUMBER OF STEPS        0
Info: STEPS PER CYCLE        10
Info: PERIODIC CELL BASIS 1  32.853 0 0
Info: PERIODIC CELL BASIS 2  0 35.411 0
Info: PERIODIC CELL BASIS 3  0 0 37.451
Info: PERIODIC CELL CENTER   0 0 0
Info: WRAPPING WATERS AROUND PERIODIC BOUNDARIES ON OUTPUT.
Info: WRAPPING ALL CLUSTERS AROUND PERIODIC BOUNDARIES ON OUTPUT.
Info: FIRST LDB TIMESTEP     50
Info: LAST LDB TIMESTEP     -1
Info: HOM BACKGROUND SCALING 1
Info: PME BACKGROUND SCALING 1
Info: MIN ATOMS PER PATCH    40
Info: EMPTY PATCH LOAD       40 ATOMS
Info: INITIAL TEMPERATURE    300
Info: CENTER OF MASS MOVING INITIALLY? NO
Info: DIELECTRIC             1
Info: EXCLUDE                SCALED ONE-FOUR
Info: 1-4 ELECTROSTATICS SCALED BY 0.833333
Info: MODIFIED 1-4 VDW PARAMETERS WILL BE USED
Info: DCD FILENAME           mobley_6250025_equil.dcd
Info: DCD FREQUENCY          100000
Info: DCD FIRST STEP         100000
Info: DCD FILE WILL CONTAIN UNIT CELL DATA
Info: XST FILENAME           mobley_6250025_equil.xst
Info: XST FREQUENCY          100000
Info: NO VELOCITY DCD OUTPUT
Info: NO FORCE DCD OUTPUT
Info: OUTPUT FILENAME        mobley_6250025_equil
Info: BINARY OUTPUT FILES WILL BE USED
Info: RESTART FILENAME       mobley_6250025_equil.restart
Info: RESTART FREQUENCY      100000
Info: BINARY RESTART FILES WILL BE USED
Info: CUTOFF                 9
Info: PAIRLIST DISTANCE      11
Info: PAIRLIST SHRINK RATE   0.01
Info: PAIRLIST GROW RATE     0.01
Info: PAIRLIST TRIGGER       0.3
Info: PAIRLISTS PER CYCLE    2
Info: PAIRLISTS ENABLED
Info: MARGIN                 8
Info: HYDROGEN GROUP CUTOFF  2.5
Info: PATCH DIMENSION        21.5
Info: ENERGY OUTPUT STEPS    100000
Info: ENERGY EVALUATION STEPS    100000
Info: OUTPUT ENERGY PRECISION 4
Info: CROSSTERM ENERGY INCLUDED IN DIHEDRAL
Info: TIMING OUTPUT STEPS    1000000
Info: PRESSURE OUTPUT STEPS  100000
Info: LANGEVIN DYNAMICS ACTIVE
Info: LANGEVIN TEMPERATURE   30
Info: LANGEVIN USING BBK INTEGRATOR
Info: LANGEVIN DAMPING COEFFICIENT IS 1 INVERSE PS
Info: LANGEVIN DYNAMICS APPLIED TO HYDROGENS
Info: LANGEVIN PISTON PRESSURE CONTROL ACTIVE
Info:        TARGET PRESSURE IS 1.01325 BAR
Info:     OSCILLATION PERIOD IS 50 FS
Info:             DECAY TIME IS 25 FS
Info:     PISTON TEMPERATURE IS 300 K
Info:       PRESSURE CONTROL IS GROUP-BASED
Info:    INITIAL STRAIN RATE IS 0 0 0
Info:       CELL FLUCTUATION IS ISOTROPIC
Info: PARTICLE MESH EWALD (PME) ACTIVE
Info: PME TOLERANCE               1e-06
Info: PME EWALD COEFFICIENT       0.348832
Info: PME INTERPOLATION ORDER     4
Info: PME GRID DIMENSIONS         36 36 40
Info: PME MAXIMUM GRID SPACING    1
Info: FULL ELECTROSTATIC EVALUATION FREQUENCY      2
Info: USING VERLET I (r-RESPA) MTS SCHEME.
Info: C1 SPLITTING OF LONG RANGE ELECTROSTATICS
Info: PLACING ATOMS IN PATCHES BY HYDROGEN GROUPS
Info: RIGID BONDS TO HYDROGEN : ALL
Info:         ERROR TOLERANCE : 1e-08
Info:          MAX ITERATIONS : 100
Info: RIGID WATER USING SETTLE ALGORITHM
Info: RANDOM NUMBER SEED     1743254590
Info: USE HYDROGEN BONDS?    NO
Info: Using AMBER format force field!
Info: AMBER PARM FILE        mobley_6250025.prmtop
Info: COORDINATE PDB         mobley_6250025.pdb
Info: Exclusions will be read from PARM file!
Info: SCNB (VDW SCALING)     2
Info: USING ARITHMETIC MEAN TO COMBINE L-J SIGMA PARAMETERS
Info: BINARY COORDINATES     mobley_6250025_min.coor
Info: SUMMARY OF PARAMETERS:
Info: 6 BONDS
Info: 7 ANGLES
Info: 6 DIHEDRAL
Info: 0 IMPROPER
Info: 0 CROSSTERM
Info: 0 VDW
Info: 21 VDW_PAIRS
Info: 0 NBTHOLE_PAIRS
Info: STRUCTURE SUMMARY:
Info: 2951 ATOMS
Info: 2950 BONDS
Info: 36 ANGLES
Info: 51 DIHEDRALS
Info: 0 IMPROPERS
Info: 0 CROSSTERMS
Info: 3031 EXCLUSIONS
Info: 2944 RIGID BONDS
Info: 5909 DEGREES OF FREEDOM
Info: 984 HYDROGEN GROUPS
Info: 4 ATOMS IN LARGEST HYDROGEN GROUP
Info: 984 MIGRATION GROUPS
Info: 4 ATOMS IN LARGEST MIGRATION GROUP
Info: TOTAL MASS = 17813.7 amu
Info: TOTAL CHARGE = -2.6077e-08 e
Info: MASS DENSITY = 0.678948 g/cm^3
Info: ATOM DENSITY = 0.0677318 atoms/A^3
Info: ADDED 0 IMPLICIT EXCLUSIONS
Info: NONBONDED TABLE R-SQUARED SPACING: 0.0625
Info: NONBONDED TABLE SIZE: 705 POINTS
Info: REMOVING COM VELOCITY 0.0798115 -0.0639755 -0.0207615
TCL: Running for 100000 steps
ETITLE: TS BOND ANGLE DIHED IMPRP ELECT VDW BOUNDARY MISC KINETIC TOTAL TEMP POTENTIAL TOTAL3 TEMPAVG PRESSURE GPRESSURE VOLUME PRESSAVG GPRESSAVG
ENERGY: 0 0.0765 0.3000 1.2845 0.0000 -13602.6233 2355.8186 0.0000 0.0000 1781.7863 -9463.3575 303.4813 -11245.1437 -9462.9923 303.4813 179.1847 222.6784 43568.9048 179.1847 222.6784
ENERGY: 100000 0.6463 1.2396 1.3951 0.0000 -14007.3223 2323.8221 0.0000 0.0000 172.0292 -11508.1901 29.3007 -11680.2193 -11507.4664 30.8325 -1279.5231 -1231.5276 29595.1398 4.5070 4.4390
TCL: Running 100000 steps at 60 kelvin.
TCL: Setting parameter langevinTemp to 60
TCL: Running for 100000 steps
ETITLE: TS BOND ANGLE DIHED IMPRP ELECT VDW BOUNDARY MISC KINETIC TOTAL TEMP POTENTIAL TOTAL3 TEMPAVG PRESSURE GPRESSURE VOLUME PRESSAVG GPRESSAVG
ENERGY: 100000 0.6463 1.2396 1.3951 0.0000 -14007.3223 2323.8221 0.0000 0.0000 171.9347 -11508.2846 29.2846 -11680.2193 -11507.9171 29.2846 -1293.2002 -1231.3401 29595.1398 -1293.2002 -1231.3401
ENERGY: 200000 0.6516 2.4848 1.6399 0.0000 -13951.0558 2296.1108 0.0000 0.0000 352.2280 -11297.9407 59.9930 -11650.1687 -11296.7780 60.0708 -1092.6134 -1058.3915 28847.6041 4.6920 4.7498
TCL: Running 100000 steps at 90 kelvin.
TCL: Setting parameter langevinTemp to 90
TCL: Running for 100000 steps
ETITLE: TS BOND ANGLE DIHED IMPRP ELECT VDW BOUNDARY MISC KINETIC TOTAL TEMP POTENTIAL TOTAL3 TEMPAVG PRESSURE GPRESSURE VOLUME PRESSAVG GPRESSAVG
ENERGY: 200000 0.6516 2.4848 1.6399 0.0000 -13951.0558 2296.1108 0.0000 0.0000 352.0487 -11298.1199 59.9624 -11650.1687 -11297.3187 59.9624 -1104.6848 -1057.8603 28847.6041 -1104.6848 -1057.8603
ENERGY: 300000 0.4592 2.1296 1.3220 0.0000 -13869.1960 2315.7575 0.0000 0.0000 541.5126 -11008.0149 92.2327 -11549.5276 -11005.4900 90.0579 -489.4825 -429.4448 28688.5025 4.1745 4.2142
TCL: Running 100000 steps at 120 kelvin.
TCL: Setting parameter langevinTemp to 120
TCL: Running for 100000 steps
ETITLE: TS BOND ANGLE DIHED IMPRP ELECT VDW BOUNDARY MISC KINETIC TOTAL TEMP POTENTIAL TOTAL3 TEMPAVG PRESSURE GPRESSURE VOLUME PRESSAVG GPRESSAVG
ENERGY: 300000 0.4592 2.1296 1.3220 0.0000 -13869.1960 2315.7575 0.0000 0.0000 541.2606 -11008.2669 92.1898 -11549.5276 -11007.1045 92.1898 -479.0198 -428.2556 28688.5025 -479.0198 -428.2556
ENERGY: 400000 0.1571 3.2610 2.3954 0.0000 -13668.2063 2261.5593 0.0000 0.0000 716.8076 -10684.0260 122.0897 -11400.8336 -10680.9535 119.8613 -440.2900 -354.0986 28841.2546 3.7788 3.8540
TCL: Running 100000 steps at 150 kelvin.
TCL: Setting parameter langevinTemp to 150
TCL: Running for 100000 steps
ETITLE: TS BOND ANGLE DIHED IMPRP ELECT VDW BOUNDARY MISC KINETIC TOTAL TEMP POTENTIAL TOTAL3 TEMPAVG PRESSURE GPRESSURE VOLUME PRESSAVG GPRESSAVG
ENERGY: 400000 0.1571 3.2610 2.3954 0.0000 -13668.2063 2261.5593 0.0000 0.0000 716.4487 -10684.3849 122.0286 -11400.8336 -10682.4210 122.0286 -406.2418 -353.3160 28841.2546 -406.2418 -353.3160
ENERGY: 500000 1.8219 4.5977 2.6388 0.0000 -13464.4935 2226.8600 0.0000 0.0000 887.1339 -10341.4411 151.1004 -11228.5750 -10339.6511 150.0420 -181.4559 -70.6541 28878.9366 3.5180 3.6176
TCL: Running 100000 steps at 180 kelvin.
TCL: Setting parameter langevinTemp to 180
TCL: Running for 100000 steps
ETITLE: TS BOND ANGLE DIHED IMPRP ELECT VDW BOUNDARY MISC KINETIC TOTAL TEMP POTENTIAL TOTAL3 TEMPAVG PRESSURE GPRESSURE VOLUME PRESSAVG GPRESSAVG
ENERGY: 500000 1.8219 4.5977 2.6388 0.0000 -13464.4935 2226.8600 0.0000 0.0000 886.7013 -10341.8737 151.0267 -11228.5750 -10340.2923 151.0267 -136.5698 -71.2792 28878.9366 -136.5698 -71.2792
ENERGY: 600000 0.7422 5.8942 2.1672 0.0000 -12903.2790 1988.0131 0.0000 0.0000 1049.3385 -9857.1238 178.7278 -10906.4623 -9854.9487 180.0592 -804.6337 -773.3660 28911.9299 2.9874 3.0586
TCL: Running 100000 steps at 210 kelvin.
TCL: Setting parameter langevinTemp to 210
TCL: Running for 100000 steps
ETITLE: TS BOND ANGLE DIHED IMPRP ELECT VDW BOUNDARY MISC KINETIC TOTAL TEMP POTENTIAL TOTAL3 TEMPAVG PRESSURE GPRESSURE VOLUME PRESSAVG GPRESSAVG
ENERGY: 600000 0.7422 5.8942 2.1672 0.0000 -12903.2790 1988.0131 0.0000 0.0000 1048.8276 -9857.6348 178.6407 -10906.4623 -9855.4883 178.6407 -839.7757 -773.8743 28911.9299 -839.7757 -773.8743
ENERGY: 700000 0.9944 6.3490 2.6814 0.0000 -12346.2108 1844.7511 0.0000 0.0000 1193.3424 -9298.0924 203.2551 -10491.4348 -9295.5160 209.7804 -178.7053 -131.2110 28631.0189 2.7818 2.9008
TCL: Running 100000 steps at 240 kelvin.
TCL: Setting parameter langevinTemp to 240
TCL: Running for 100000 steps
ETITLE: TS BOND ANGLE DIHED IMPRP ELECT VDW BOUNDARY MISC KINETIC TOTAL TEMP POTENTIAL TOTAL3 TEMPAVG PRESSURE GPRESSURE VOLUME PRESSAVG GPRESSAVG
ENERGY: 700000 0.9944 6.3490 2.6814 0.0000 -12346.2108 1844.7511 0.0000 0.0000 1192.7384 -9298.6964 203.1522 -10491.4348 -9296.8702 203.1522 -219.8467 -131.2789 28631.0189 -219.8467 -131.2789
ENERGY: 800000 2.1439 7.0066 2.4304 0.0000 -11731.6473 1686.4866 0.0000 0.0000 1454.9382 -8578.6415 247.8112 -10033.5797 -8576.7854 240.0149 -48.3678 2.7935 29041.3515 2.4521 2.4006
TCL: Running 100000 steps at 270 kelvin.
TCL: Setting parameter langevinTemp to 270
TCL: Running for 100000 steps
ETITLE: TS BOND ANGLE DIHED IMPRP ELECT VDW BOUNDARY MISC KINETIC TOTAL TEMP POTENTIAL TOTAL3 TEMPAVG PRESSURE GPRESSURE VOLUME PRESSAVG GPRESSAVG
ENERGY: 800000 2.1439 7.0066 2.4304 0.0000 -11731.6473 1686.4866 0.0000 0.0000 1454.2119 -8579.3678 247.6875 -10033.5797 -8577.0491 247.6875 -66.0949 1.0384 29041.3515 -66.0949 1.0384
ENERGY: 900000 2.2992 7.7926 1.8390 0.0000 -11137.1853 1453.3045 0.0000 0.0000 1550.2451 -8121.7049 264.0443 -9671.9501 -8118.3050 269.6284 -1124.6499 -1038.0685 29731.6713 2.6386 2.6551
TCL: Running 1000000 steps at 300 kelvin.
TCL: Setting parameter langevinTemp to 300
TCL: Running for 1000000 steps
ETITLE: TS BOND ANGLE DIHED IMPRP ELECT VDW BOUNDARY MISC KINETIC TOTAL TEMP POTENTIAL TOTAL3 TEMPAVG PRESSURE GPRESSURE VOLUME PRESSAVG GPRESSAVG
ENERGY: 900000 2.2992 7.7926 1.8390 0.0000 -11137.1853 1453.3045 0.0000 0.0000 1549.4483 -8122.5017 263.9086 -9671.9501 -8119.6990 263.9086 -1127.2211 -1038.2447 29731.6713 -1127.2211 -1038.2447
ENERGY: 1100000 1.6372 7.6607 3.3388 0.0000 -10736.2660 1466.9583 0.0000 0.0000 1814.5367 -7442.1343 309.0595 -9256.6710 -7439.2345 299.9210 57.3696 25.4638 30732.0174 3.0102 3.1151
ENERGY: 1300000 1.3082 8.1739 2.4379 0.0000 -10633.6756 1401.6000 0.0000 0.0000 1757.9958 -7462.1597 299.4292 -9220.1554 -7460.8350 300.1858 -107.6779 -67.0941 30465.2674 2.8505 2.8777
ENERGY: 1500000 1.5177 12.5062 2.6140 0.0000 -10641.2779 1461.9886 0.0000 0.0000 1726.7126 -7435.9388 294.1010 -9162.6514 -7434.7517 300.3676 413.4067 446.0892 30439.5886 3.5227 3.4072
ENERGY: 1700000 2.2233 10.4339 2.9010 0.0000 -10756.4327 1457.4232 0.0000 0.0000 1794.0206 -7489.4306 305.5651 -9283.4512 -7486.5866 300.1496 68.6993 204.3898 30173.7446 2.6196 2.6402
ENERGY: 1900000 1.8439 5.5091 3.6333 0.0000 -10606.2791 1393.4291 0.0000 0.0000 1761.3695 -7440.4943 300.0039 -9201.8639 -7436.9745 300.4437 -234.5818 -202.7768 30473.6618 3.3094 3.2628
TCL: Exiting due to exit command.
