Info: SIMULATION PARAMETERS:
Info: TIMESTEP               2
Info: NUMBER OF STEPS        0
Info: STEPS PER CYCLE        10
Info: PERIODIC CELL BASIS 1  36.592 0 0
Info: PERIODIC CELL BASIS 2  0 34.26 0
Info: PERIODIC CELL BASIS 3  0 0 34.954
Info: PERIODIC CELL CENTER   0 0 0
Info: WRAPPING WATERS AROUND PERIODIC BOUNDARIES ON OUTPUT.
Info: WRAPPING ALL CLUSTERS AROUND PERIODIC BOUNDARIES ON OUTPUT.
Info: FIRST LDB TIMESTEP     50
Info: LAST LDB TIMESTEP     -1
Info: HOM BACKGROUND SCALING 1
Info: PME BACKGROUND SCALING 1
Info: MIN ATOMS PER PATCH    40
Info: EMPTY PATCH LOAD       40 ATOMS
Info: INITIAL TEMPERATURE    300
Info: CENTER OF MASS MOVING INITIALLY? NO
Info: DIELECTRIC             1
Info: EXCLUDE                SCALED ONE-FOUR
Info: 1-4 ELECTROSTATICS SCALED BY 0.833333
Info: MODIFIED 1-4 VDW PARAMETERS WILL BE USED
Info: DCD FILENAME           mobley_5123639_equil.dcd
Info: DCD FREQUENCY          100000
Info: DCD FIRST STEP         100000
Info: DCD FILE WILL CONTAIN UNIT CELL DATA
Info: XST FILENAME           mobley_5123639_equil.xst
Info: XST FREQUENCY          100000
Info: NO VELOCITY DCD OUTPUT
Info: NO FORCE DCD OUTPUT
Info: OUTPUT FILENAME        mobley_5123639_equil
Info: BINARY OUTPUT FILES WILL BE USED
Info: RESTART FILENAME       mobley_5123639_equil.restart
Info: RESTART FREQUENCY      100000
Info: BINARY RESTART FILES WILL BE USED
Info: CUTOFF                 9
Info: PAIRLIST DISTANCE      11
Info: PAIRLIST SHRINK RATE   0.01
Info: PAIRLIST GROW RATE     0.01
Info: PAIRLIST TRIGGER       0.3
Info: PAIRLISTS PER CYCLE    2
Info: PAIRLISTS ENABLED
Info: MARGIN                 8
Info: HYDROGEN GROUP CUTOFF  2.5
Info: PATCH DIMENSION        21.5
Info: ENERGY OUTPUT STEPS    100000
Info: ENERGY EVALUATION STEPS    100000
Info: OUTPUT ENERGY PRECISION 4
Info: CROSSTERM ENERGY INCLUDED IN DIHEDRAL
Info: TIMING OUTPUT STEPS    1000000
Info: PRESSURE OUTPUT STEPS  100000
Info: LANGEVIN DYNAMICS ACTIVE
Info: LANGEVIN TEMPERATURE   30
Info: LANGEVIN USING BBK INTEGRATOR
Info: LANGEVIN DAMPING COEFFICIENT IS 1 INVERSE PS
Info: LANGEVIN DYNAMICS APPLIED TO HYDROGENS
Info: LANGEVIN PISTON PRESSURE CONTROL ACTIVE
Info:        TARGET PRESSURE IS 1.01325 BAR
Info:     OSCILLATION PERIOD IS 50 FS
Info:             DECAY TIME IS 25 FS
Info:     PISTON TEMPERATURE IS 300 K
Info:       PRESSURE CONTROL IS GROUP-BASED
Info:    INITIAL STRAIN RATE IS 0 0 0
Info:       CELL FLUCTUATION IS ISOTROPIC
Info: PARTICLE MESH EWALD (PME) ACTIVE
Info: PME TOLERANCE               1e-06
Info: PME EWALD COEFFICIENT       0.348832
Info: PME INTERPOLATION ORDER     4
Info: PME GRID DIMENSIONS         40 36 36
Info: PME MAXIMUM GRID SPACING    1
Info: FULL ELECTROSTATIC EVALUATION FREQUENCY      2
Info: USING VERLET I (r-RESPA) MTS SCHEME.
Info: C1 SPLITTING OF LONG RANGE ELECTROSTATICS
Info: PLACING ATOMS IN PATCHES BY HYDROGEN GROUPS
Info: RIGID BONDS TO HYDROGEN : ALL
Info:         ERROR TOLERANCE : 1e-08
Info:          MAX ITERATIONS : 100
Info: RIGID WATER USING SETTLE ALGORITHM
Info: RANDOM NUMBER SEED     1743243695
Info: USE HYDROGEN BONDS?    NO
Info: Using AMBER format force field!
Info: AMBER PARM FILE        mobley_5123639.prmtop
Info: COORDINATE PDB         mobley_5123639.pdb
Info: Exclusions will be read from PARM file!
Info: SCNB (VDW SCALING)     2
Info: USING ARITHMETIC MEAN TO COMBINE L-J SIGMA PARAMETERS
Info: BINARY COORDINATES     mobley_5123639_min.coor
Info: SUMMARY OF PARAMETERS:
Info: 7 BONDS
Info: 7 ANGLES
Info:   7 HARMONIC
Info:   0 COSINE-BASED
Info: 9 DIHEDRAL
Info: 0 IMPROPER
Info: 0 CROSSTERM
Info: 0 VDW
Info: 21 VDW_PAIRS
Info: 0 NBTHOLE_PAIRS
Info: STRUCTURE SUMMARY:
Info: 2925 ATOMS
Info: 2924 BONDS
Info: 37 ANGLES
Info: 61 DIHEDRALS
Info: 0 IMPROPERS
Info: 0 CROSSTERMS
Info: 3009 EXCLUSIONS
Info: 2918 RIGID BONDS
Info: 5857 DEGREES OF FREEDOM
Info: 975 HYDROGEN GROUPS
Info: 4 ATOMS IN LARGEST HYDROGEN GROUP
Info: 975 MIGRATION GROUPS
Info: 4 ATOMS IN LARGEST MIGRATION GROUP
Info: TOTAL MASS = 17541.7 amu
Info: TOTAL CHARGE = 0.000200022 e
Info: MASS DENSITY = 0.664752 g/cm^3
Info: ATOM DENSITY = 0.0667506 atoms/A^3
Info: ADDED 0 IMPLICIT EXCLUSIONS
Info: NONBONDED TABLE R-SQUARED SPACING: 0.0625
Info: NONBONDED TABLE SIZE: 705 POINTS
Info: REMOVING COM VELOCITY -0.047884 -0.0672629 -0.0552189
TCL: Running for 100000 steps
ETITLE: TS BOND ANGLE DIHED IMPRP ELECT VDW BOUNDARY MISC KINETIC TOTAL TEMP POTENTIAL TOTAL3 TEMPAVG PRESSURE GPRESSURE VOLUME PRESSAVG GPRESSAVG
ENERGY: 0 0.1598 1.1265 3.4155 0.0000 -13494.3980 2371.9885 0.0000 0.0000 1740.8661 -9376.8416 299.1442 -11117.7078 -9376.5006 299.1442 379.9309 417.3914 43819.7997 379.9309 417.3914
ENERGY: 100000 0.1476 2.2182 3.7645 0.0000 -14014.5186 2400.6956 0.0000 0.0000 171.7125 -11435.9801 29.5065 -11607.6926 -11435.3841 30.8955 -335.6135 -265.1885 28428.8852 3.9904 4.0030
TCL: Running 100000 steps at 60 kelvin.
TCL: Setting parameter langevinTemp to 60
TCL: Running for 100000 steps
ETITLE: TS BOND ANGLE DIHED IMPRP ELECT VDW BOUNDARY MISC KINETIC TOTAL TEMP POTENTIAL TOTAL3 TEMPAVG PRESSURE GPRESSURE VOLUME PRESSAVG GPRESSAVG
ENERGY: 100000 0.1476 2.2182 3.7645 0.0000 -14014.5186 2400.6956 0.0000 0.0000 171.6259 -11436.0667 29.4916 -11607.6926 -11435.7145 29.4916 -313.6458 -265.1040 28428.8852 -313.6458 -265.1040
ENERGY: 200000 0.5988 3.2051 3.5638 0.0000 -13891.6512 2306.5952 0.0000 0.0000 343.5163 -11234.1719 59.0286 -11577.6883 -11233.6547 59.8963 -776.4840 -706.2052 28116.2424 5.1005 5.0418
TCL: Running 100000 steps at 90 kelvin.
TCL: Setting parameter langevinTemp to 90
TCL: Running for 100000 steps
ETITLE: TS BOND ANGLE DIHED IMPRP ELECT VDW BOUNDARY MISC KINETIC TOTAL TEMP POTENTIAL TOTAL3 TEMPAVG PRESSURE GPRESSURE VOLUME PRESSAVG GPRESSAVG
ENERGY: 200000 0.5988 3.2051 3.5638 0.0000 -13891.6512 2306.5952 0.0000 0.0000 343.3443 -11234.3440 58.9990 -11577.6883 -11233.6375 58.9990 -765.6607 -706.3670 28116.2424 -765.6607 -706.3670
ENERGY: 300000 0.6891 3.3866 3.4965 0.0000 -13884.6001 2389.2768 0.0000 0.0000 552.7013 -10935.0498 94.9742 -11487.7512 -10933.5569 90.1352 366.2233 449.8636 27853.4423 4.8891 4.8057
TCL: Running 100000 steps at 120 kelvin.
TCL: Setting parameter langevinTemp to 120
TCL: Running for 100000 steps
ETITLE: TS BOND ANGLE DIHED IMPRP ELECT VDW BOUNDARY MISC KINETIC TOTAL TEMP POTENTIAL TOTAL3 TEMPAVG PRESSURE GPRESSURE VOLUME PRESSAVG GPRESSAVG
ENERGY: 300000 0.6891 3.3866 3.4965 0.0000 -13884.6001 2389.2768 0.0000 0.0000 552.4506 -10935.3006 94.9311 -11487.7512 -10934.1520 94.9311 399.6528 449.0500 27853.4423 399.6528 449.0500
ENERGY: 400000 1.4559 4.0148 6.9117 0.0000 -13644.7757 2279.6053 0.0000 0.0000 690.7124 -10662.0755 118.6895 -11352.7880 -10659.9997 120.2085 -113.2246 -70.5222 28088.5590 5.4345 5.3925
TCL: Running 100000 steps at 150 kelvin.
TCL: Setting parameter langevinTemp to 150
TCL: Running for 100000 steps
ETITLE: TS BOND ANGLE DIHED IMPRP ELECT VDW BOUNDARY MISC KINETIC TOTAL TEMP POTENTIAL TOTAL3 TEMPAVG PRESSURE GPRESSURE VOLUME PRESSAVG GPRESSAVG
ENERGY: 400000 1.4559 4.0148 6.9117 0.0000 -13644.7757 2279.6053 0.0000 0.0000 690.3598 -10662.4281 118.6289 -11352.7880 -10661.0095 118.6289 -113.1106 -69.8540 28088.5590 -113.1106 -69.8540
ENERGY: 500000 0.4984 3.7917 5.0789 0.0000 -13446.9422 2254.3281 0.0000 0.0000 867.9890 -10315.2561 149.1521 -11183.2452 -10313.2855 149.8305 164.4855 194.3752 28536.9480 5.0442 4.9214
TCL: Running 100000 steps at 180 kelvin.
TCL: Setting parameter langevinTemp to 180
TCL: Running for 100000 steps
ETITLE: TS BOND ANGLE DIHED IMPRP ELECT VDW BOUNDARY MISC KINETIC TOTAL TEMP POTENTIAL TOTAL3 TEMPAVG PRESSURE GPRESSURE VOLUME PRESSAVG GPRESSAVG
ENERGY: 500000 0.4984 3.7917 5.0789 0.0000 -13446.9422 2254.3281 0.0000 0.0000 867.5501 -10315.6951 149.0767 -11183.2452 -10313.8160 149.0767 146.9581 195.8362 28536.9480 146.9581 195.8362
ENERGY: 600000 1.4723 5.9247 3.7204 0.0000 -13043.5316 2121.5029 0.0000 0.0000 1046.9677 -9863.9436 179.9072 -10910.9113 -9861.8439 180.0630 58.6144 144.8288 28439.9483 4.8809 4.8110
TCL: Running 100000 steps at 210 kelvin.
TCL: Setting parameter langevinTemp to 210
TCL: Running for 100000 steps
ETITLE: TS BOND ANGLE DIHED IMPRP ELECT VDW BOUNDARY MISC KINETIC TOTAL TEMP POTENTIAL TOTAL3 TEMPAVG PRESSURE GPRESSURE VOLUME PRESSAVG GPRESSAVG
ENERGY: 600000 1.4723 5.9247 3.7204 0.0000 -13043.5316 2121.5029 0.0000 0.0000 1046.4341 -9864.4772 179.8155 -10910.9113 -9862.3027 179.8155 78.8269 143.6716 28439.9483 78.8269 143.6716
ENERGY: 700000 0.9473 9.5582 4.2086 0.0000 -12317.9202 1871.6456 0.0000 0.0000 1223.6170 -9207.9435 210.2619 -10431.5606 -9204.4258 210.0192 -26.3066 -8.1636 28336.6668 4.3229 4.2964
TCL: Running 100000 steps at 240 kelvin.
TCL: Setting parameter langevinTemp to 240
TCL: Running for 100000 steps
ETITLE: TS BOND ANGLE DIHED IMPRP ELECT VDW BOUNDARY MISC KINETIC TOTAL TEMP POTENTIAL TOTAL3 TEMPAVG PRESSURE GPRESSURE VOLUME PRESSAVG GPRESSAVG
ENERGY: 700000 0.9473 9.5582 4.2086 0.0000 -12317.9202 1871.6456 0.0000 0.0000 1222.9950 -9208.5656 210.1550 -10431.5606 -9205.7480 210.1550 -97.6910 -8.4952 28336.6668 -97.6910 -8.4952
ENERGY: 800000 2.5202 9.3028 4.4251 0.0000 -11710.4293 1761.5806 0.0000 0.0000 1412.2046 -8520.3960 242.6682 -9932.6006 -8515.8794 240.0681 620.5281 644.4056 28742.9152 3.4488 3.2604
TCL: Running 100000 steps at 270 kelvin.
TCL: Setting parameter langevinTemp to 270
TCL: Running for 100000 steps
ETITLE: TS BOND ANGLE DIHED IMPRP ELECT VDW BOUNDARY MISC KINETIC TOTAL TEMP POTENTIAL TOTAL3 TEMPAVG PRESSURE GPRESSURE VOLUME PRESSAVG GPRESSAVG
ENERGY: 800000 2.5202 9.3028 4.4251 0.0000 -11710.4293 1761.5806 0.0000 0.0000 1411.4996 -8521.1010 242.5470 -9932.6006 -8518.9854 242.5470 561.9751 645.2854 28742.9152 561.9751 645.2854
ENERGY: 900000 1.8176 12.2523 5.6313 0.0000 -11088.9346 1557.2361 0.0000 0.0000 1635.1685 -7876.8288 280.9815 -9511.9973 -7872.2843 269.3421 28.3163 119.0139 29639.6434 3.6154 3.7107
TCL: Running 1000000 steps at 300 kelvin.
TCL: Setting parameter langevinTemp to 300
TCL: Running for 1000000 steps
ETITLE: TS BOND ANGLE DIHED IMPRP ELECT VDW BOUNDARY MISC KINETIC TOTAL TEMP POTENTIAL TOTAL3 TEMPAVG PRESSURE GPRESSURE VOLUME PRESSAVG GPRESSAVG
ENERGY: 900000 1.8176 12.2523 5.6313 0.0000 -11088.9346 1557.2361 0.0000 0.0000 1634.3785 -7877.6188 280.8457 -9511.9973 -7874.6482 280.8457 24.3504 121.0981 29639.6434 24.3504 121.0981
ENERGY: 1100000 1.0361 10.3916 4.4154 0.0000 -10547.4537 1376.3593 0.0000 0.0000 1756.2612 -7398.9900 301.7896 -9155.2512 -7396.4012 300.4421 -173.0569 -166.1933 29986.9024 3.7092 3.6070
ENERGY: 1300000 2.3479 9.0981 4.6997 0.0000 -10718.9117 1454.6785 0.0000 0.0000 1770.1477 -7477.9399 304.1758 -9248.0876 -7473.5530 300.0640 -22.5265 32.0440 29862.8300 1.7697 1.6981
ENERGY: 1500000 1.6694 7.4275 5.8478 0.0000 -10507.6405 1359.0156 0.0000 0.0000 1762.3078 -7371.3723 302.8286 -9133.6801 -7365.9034 299.8425 -315.9979 -244.4248 30014.7319 2.7678 2.7376
ENERGY: 1700000 0.8074 10.4932 4.4620 0.0000 -10556.3192 1393.6110 0.0000 0.0000 1677.7721 -7469.1735 288.3023 -9146.9456 -7463.2177 300.7033 -189.5506 -83.9980 29957.7853 2.8998 2.7296
ENERGY: 1900000 0.9199 10.0110 4.2289 0.0000 -10455.3673 1352.6861 0.0000 0.0000 1750.9406 -7336.5807 300.8753 -9087.5213 -7333.2162 300.3300 -356.9487 -287.0420 30087.1367 2.4756 2.5021
TCL: Exiting due to exit command.
