Info: SIMULATION PARAMETERS:
Info: TIMESTEP               2
Info: NUMBER OF STEPS        0
Info: STEPS PER CYCLE        10
Info: PERIODIC CELL BASIS 1  34.986 0 0
Info: PERIODIC CELL BASIS 2  0 34.26 0
Info: PERIODIC CELL BASIS 3  0 0 36.199
Info: PERIODIC CELL CENTER   0 0 0
Info: WRAPPING WATERS AROUND PERIODIC BOUNDARIES ON OUTPUT.
Info: WRAPPING ALL CLUSTERS AROUND PERIODIC BOUNDARIES ON OUTPUT.
Info: FIRST LDB TIMESTEP     50
Info: LAST LDB TIMESTEP     -1
Info: HOM BACKGROUND SCALING 1
Info: PME BACKGROUND SCALING 1
Info: MIN ATOMS PER PATCH    40
Info: EMPTY PATCH LOAD       40 ATOMS
Info: INITIAL TEMPERATURE    300
Info: CENTER OF MASS MOVING INITIALLY? NO
Info: DIELECTRIC             1
Info: EXCLUDE                SCALED ONE-FOUR
Info: 1-4 ELECTROSTATICS SCALED BY 0.833333
Info: MODIFIED 1-4 VDW PARAMETERS WILL BE USED
Info: DCD FILENAME           mobley_303222_equil.dcd
Info: DCD FREQUENCY          100000
Info: DCD FIRST STEP         100000
Info: DCD FILE WILL CONTAIN UNIT CELL DATA
Info: XST FILENAME           mobley_303222_equil.xst
Info: XST FREQUENCY          100000
Info: NO VELOCITY DCD OUTPUT
Info: NO FORCE DCD OUTPUT
Info: OUTPUT FILENAME        mobley_303222_equil
Info: BINARY OUTPUT FILES WILL BE USED
Info: RESTART FILENAME       mobley_303222_equil.restart
Info: RESTART FREQUENCY      100000
Info: BINARY RESTART FILES WILL BE USED
Info: CUTOFF                 9
Info: PAIRLIST DISTANCE      11
Info: PAIRLIST SHRINK RATE   0.01
Info: PAIRLIST GROW RATE     0.01
Info: PAIRLIST TRIGGER       0.3
Info: PAIRLISTS PER CYCLE    2
Info: PAIRLISTS ENABLED
Info: MARGIN                 8
Info: HYDROGEN GROUP CUTOFF  2.5
Info: PATCH DIMENSION        21.5
Info: ENERGY OUTPUT STEPS    100000
Info: ENERGY EVALUATION STEPS    100000
Info: OUTPUT ENERGY PRECISION 4
Info: CROSSTERM ENERGY INCLUDED IN DIHEDRAL
Info: TIMING OUTPUT STEPS    1000000
Info: PRESSURE OUTPUT STEPS  100000
Info: LANGEVIN DYNAMICS ACTIVE
Info: LANGEVIN TEMPERATURE   30
Info: LANGEVIN USING BBK INTEGRATOR
Info: LANGEVIN DAMPING COEFFICIENT IS 1 INVERSE PS
Info: LANGEVIN DYNAMICS APPLIED TO HYDROGENS
Info: LANGEVIN PISTON PRESSURE CONTROL ACTIVE
Info:        TARGET PRESSURE IS 1.01325 BAR
Info:     OSCILLATION PERIOD IS 50 FS
Info:             DECAY TIME IS 25 FS
Info:     PISTON TEMPERATURE IS 300 K
Info:       PRESSURE CONTROL IS GROUP-BASED
Info:    INITIAL STRAIN RATE IS 0 0 0
Info:       CELL FLUCTUATION IS ISOTROPIC
Info: PARTICLE MESH EWALD (PME) ACTIVE
Info: PME TOLERANCE               1e-06
Info: PME EWALD COEFFICIENT       0.348832
Info: PME INTERPOLATION ORDER     4
Info: PME GRID DIMENSIONS         36 36 40
Info: PME MAXIMUM GRID SPACING    1
Info: FULL ELECTROSTATIC EVALUATION FREQUENCY      2
Info: USING VERLET I (r-RESPA) MTS SCHEME.
Info: C1 SPLITTING OF LONG RANGE ELECTROSTATICS
Info: PLACING ATOMS IN PATCHES BY HYDROGEN GROUPS
Info: RIGID BONDS TO HYDROGEN : ALL
Info:         ERROR TOLERANCE : 1e-08
Info:          MAX ITERATIONS : 100
Info: RIGID WATER USING SETTLE ALGORITHM
Info: RANDOM NUMBER SEED     1743161017
Info: USE HYDROGEN BONDS?    NO
Info: Using AMBER format force field!
Info: AMBER PARM FILE        mobley_303222.prmtop
Info: COORDINATE PDB         mobley_303222.pdb
Info: Exclusions will be read from PARM file!
Info: SCNB (VDW SCALING)     2
Info: USING ARITHMETIC MEAN TO COMBINE L-J SIGMA PARAMETERS
Info: BINARY COORDINATES     mobley_303222_min.coor
Info: SUMMARY OF PARAMETERS:
Info: 6 BONDS
Info: 6 ANGLES
Info: 5 DIHEDRAL
Info: 0 IMPROPER
Info: 0 CROSSTERM
Info: 0 VDW
Info: 21 VDW_PAIRS
Info: 0 NBTHOLE_PAIRS
Info: STRUCTURE SUMMARY:
Info: 2934 ATOMS
Info: 2933 BONDS
Info: 12 ANGLES
Info: 18 DIHEDRALS
Info: 0 IMPROPERS
Info: 0 CROSSTERMS
Info: 2955 EXCLUSIONS
Info: 2931 RIGID BONDS
Info: 5871 DEGREES OF FREEDOM
Info: 978 HYDROGEN GROUPS
Info: 4 ATOMS IN LARGEST HYDROGEN GROUP
Info: 978 MIGRATION GROUPS
Info: 4 ATOMS IN LARGEST MIGRATION GROUP
Info: TOTAL MASS = 17607.7 amu
Info: TOTAL CHARGE = -9.99942e-05 e
Info: MASS DENSITY = 0.673881 g/cm^3
Info: ATOM DENSITY = 0.067621 atoms/A^3
Info: ADDED 0 IMPLICIT EXCLUSIONS
Info: NONBONDED TABLE R-SQUARED SPACING: 0.0625
Info: NONBONDED TABLE SIZE: 705 POINTS
Info: REMOVING COM VELOCITY 0.0166625 -0.112922 -0.059169
TCL: Running for 100000 steps
ETITLE: TS BOND ANGLE DIHED IMPRP ELECT VDW BOUNDARY MISC KINETIC TOTAL TEMP POTENTIAL TOTAL3 TEMPAVG PRESSURE GPRESSURE VOLUME PRESSAVG GPRESSAVG
ENERGY: 0 0.0042 0.0819 3.4470 0.0000 -13610.8145 2370.2261 0.0000 0.0000 1755.3329 -9481.7224 300.9108 -11237.0553 -9481.3457 300.9108 256.3798 293.3882 43388.8584 256.3798 293.3882
ENERGY: 100000 0.4638 0.6102 3.5233 0.0000 -14023.1850 2355.8378 0.0000 0.0000 179.5619 -11483.1881 30.7817 -11662.7499 -11482.8191 30.9542 -977.9642 -915.8734 29145.8682 4.7566 4.7410
TCL: Running 100000 steps at 60 kelvin.
TCL: Setting parameter langevinTemp to 60
TCL: Running for 100000 steps
ETITLE: TS BOND ANGLE DIHED IMPRP ELECT VDW BOUNDARY MISC KINETIC TOTAL TEMP POTENTIAL TOTAL3 TEMPAVG PRESSURE GPRESSURE VOLUME PRESSAVG GPRESSAVG
ENERGY: 100000 0.4638 0.6102 3.5233 0.0000 -14023.1850 2355.8378 0.0000 0.0000 179.4766 -11483.2733 30.7671 -11662.7499 -11482.8852 30.7671 -976.0270 -915.8237 29145.8682 -976.0270 -915.8237
ENERGY: 200000 0.3548 0.8029 4.2147 0.0000 -13976.1574 2348.0215 0.0000 0.0000 348.4861 -11274.2775 59.7398 -11622.7636 -11272.7585 59.9528 -732.9093 -652.0808 28685.1390 2.7955 2.9052
TCL: Running 100000 steps at 90 kelvin.
TCL: Setting parameter langevinTemp to 90
TCL: Running for 100000 steps
ETITLE: TS BOND ANGLE DIHED IMPRP ELECT VDW BOUNDARY MISC KINETIC TOTAL TEMP POTENTIAL TOTAL3 TEMPAVG PRESSURE GPRESSURE VOLUME PRESSAVG GPRESSAVG
ENERGY: 200000 0.3548 0.8029 4.2147 0.0000 -13976.1574 2348.0215 0.0000 0.0000 348.2992 -11274.4644 59.7078 -11622.7636 -11273.8228 59.7078 -715.1092 -651.6968 28685.1390 -715.1092 -651.6968
ENERGY: 300000 0.1831 0.8155 3.4874 0.0000 -13876.1259 2380.2780 0.0000 0.0000 522.0303 -10969.3316 89.4899 -11491.3618 -10967.6573 90.0075 -51.4167 26.4874 28764.8952 3.5918 3.5010
TCL: Running 100000 steps at 120 kelvin.
TCL: Setting parameter langevinTemp to 120
TCL: Running for 100000 steps
ETITLE: TS BOND ANGLE DIHED IMPRP ELECT VDW BOUNDARY MISC KINETIC TOTAL TEMP POTENTIAL TOTAL3 TEMPAVG PRESSURE GPRESSURE VOLUME PRESSAVG GPRESSAVG
ENERGY: 300000 0.1831 0.8155 3.4874 0.0000 -13876.1259 2380.2780 0.0000 0.0000 521.7591 -10969.6027 89.4434 -11491.3618 -10968.4940 89.4434 -26.3715 27.0950 28764.8952 -26.3715 27.0950
ENERGY: 400000 0.1099 1.4200 4.0508 0.0000 -13615.0862 2229.8950 0.0000 0.0000 704.7170 -10674.8934 120.8073 -11379.6104 -10673.4113 119.9322 -853.4744 -856.9383 29047.3604 3.0692 3.0711
TCL: Running 100000 steps at 150 kelvin.
TCL: Setting parameter langevinTemp to 150
TCL: Running for 100000 steps
ETITLE: TS BOND ANGLE DIHED IMPRP ELECT VDW BOUNDARY MISC KINETIC TOTAL TEMP POTENTIAL TOTAL3 TEMPAVG PRESSURE GPRESSURE VOLUME PRESSAVG GPRESSAVG
ENERGY: 400000 0.1099 1.4200 4.0508 0.0000 -13615.0862 2229.8950 0.0000 0.0000 704.3644 -10675.2460 120.7468 -11379.6104 -10673.7854 120.7468 -906.0010 -856.7040 29047.3604 -906.0010 -856.7040
ENERGY: 500000 0.3474 1.5040 4.4991 0.0000 -13367.9916 2162.9047 0.0000 0.0000 870.4862 -10328.2502 149.2245 -11198.7364 -10324.8133 149.9832 -770.3527 -707.4078 28882.7494 4.4189 4.4374
TCL: Running 100000 steps at 180 kelvin.
TCL: Setting parameter langevinTemp to 180
TCL: Running for 100000 steps
ETITLE: TS BOND ANGLE DIHED IMPRP ELECT VDW BOUNDARY MISC KINETIC TOTAL TEMP POTENTIAL TOTAL3 TEMPAVG PRESSURE GPRESSURE VOLUME PRESSAVG GPRESSAVG
ENERGY: 500000 0.3474 1.5040 4.4991 0.0000 -13367.9916 2162.9047 0.0000 0.0000 870.0467 -10328.6896 149.1492 -11198.7364 -10327.1389 149.1492 -775.6563 -706.0820 28882.7494 -775.6563 -706.0820
ENERGY: 600000 0.0487 1.5756 4.3829 0.0000 -13151.7342 2156.6399 0.0000 0.0000 1037.9957 -9951.0913 177.9401 -10989.0870 -9948.6311 180.1900 132.6244 224.2043 28561.9928 4.3302 4.1936
TCL: Running 100000 steps at 210 kelvin.
TCL: Setting parameter langevinTemp to 210
TCL: Running for 100000 steps
ETITLE: TS BOND ANGLE DIHED IMPRP ELECT VDW BOUNDARY MISC KINETIC TOTAL TEMP POTENTIAL TOTAL3 TEMPAVG PRESSURE GPRESSURE VOLUME PRESSAVG GPRESSAVG
ENERGY: 600000 0.0487 1.5756 4.3829 0.0000 -13151.7342 2156.6399 0.0000 0.0000 1037.4911 -9951.5959 177.8536 -10989.0870 -9949.1436 177.8536 147.5191 223.6834 28561.9928 147.5191 223.6834
ENERGY: 700000 0.6620 2.1086 3.8535 0.0000 -12350.3639 1905.7713 0.0000 0.0000 1238.6661 -9199.3025 212.3404 -10437.9686 -9195.5651 209.8396 257.6896 341.3419 28543.0072 5.1371 4.9561
TCL: Running 100000 steps at 240 kelvin.
TCL: Setting parameter langevinTemp to 240
TCL: Running for 100000 steps
ETITLE: TS BOND ANGLE DIHED IMPRP ELECT VDW BOUNDARY MISC KINETIC TOTAL TEMP POTENTIAL TOTAL3 TEMPAVG PRESSURE GPRESSURE VOLUME PRESSAVG GPRESSAVG
ENERGY: 700000 0.6620 2.1086 3.8535 0.0000 -12350.3639 1905.7713 0.0000 0.0000 1238.0282 -9199.9404 212.2310 -10437.9686 -9198.1600 212.2310 256.6441 341.0559 28543.0072 256.6441 341.0559
ENERGY: 800000 0.1696 1.1886 3.9766 0.0000 -11895.6512 1797.0724 0.0000 0.0000 1430.6563 -8662.5877 245.2526 -10093.2440 -8660.3505 240.0534 659.2657 733.7431 28556.9366 2.8004 2.7738
TCL: Running 100000 steps at 270 kelvin.
TCL: Setting parameter langevinTemp to 270
TCL: Running for 100000 steps
ETITLE: TS BOND ANGLE DIHED IMPRP ELECT VDW BOUNDARY MISC KINETIC TOTAL TEMP POTENTIAL TOTAL3 TEMPAVG PRESSURE GPRESSURE VOLUME PRESSAVG GPRESSAVG
ENERGY: 800000 0.1696 1.1886 3.9766 0.0000 -11895.6512 1797.0724 0.0000 0.0000 1429.9404 -8663.3035 245.1299 -10093.2440 -8660.9734 245.1299 646.9019 734.0078 28556.9366 646.9019 734.0078
ENERGY: 900000 0.3548 2.4441 5.0402 0.0000 -11059.6177 1463.6690 0.0000 0.0000 1588.9001 -7999.2094 272.3798 -9588.1095 -7998.4635 269.6920 -416.6990 -351.0352 28934.4487 3.4878 3.4124
TCL: Running 1000000 steps at 300 kelvin.
TCL: Setting parameter langevinTemp to 300
TCL: Running for 1000000 steps
ETITLE: TS BOND ANGLE DIHED IMPRP ELECT VDW BOUNDARY MISC KINETIC TOTAL TEMP POTENTIAL TOTAL3 TEMPAVG PRESSURE GPRESSURE VOLUME PRESSAVG GPRESSAVG
ENERGY: 900000 0.3548 2.4441 5.0402 0.0000 -11059.6177 1463.6690 0.0000 0.0000 1588.1175 -7999.9920 272.2456 -9588.1095 -7997.5825 272.2456 -422.7082 -352.0974 28934.4487 -422.7082 -352.0974
ENERGY: 1100000 0.1056 1.8739 3.7621 0.0000 -10618.7890 1433.0834 0.0000 0.0000 1732.4325 -7447.5316 296.9851 -9179.9641 -7443.3465 300.4156 -4.6325 136.7665 30252.0084 2.0603 2.1035
ENERGY: 1300000 1.4166 1.9401 4.8788 0.0000 -10580.9266 1389.1367 0.0000 0.0000 1766.9024 -7416.6520 302.8941 -9183.5543 -7411.8567 299.8260 -468.5232 -357.6945 30562.4697 3.8501 3.6891
ENERGY: 1500000 1.7734 2.3182 4.0404 0.0000 -10732.1591 1498.8976 0.0000 0.0000 1673.7029 -7551.4266 286.9173 -9225.1295 -7549.0800 300.2751 600.4594 658.0631 29968.6516 1.4740 1.4537
ENERGY: 1700000 0.0869 5.4814 4.0721 0.0000 -10642.6870 1475.5565 0.0000 0.0000 1812.1405 -7345.3496 310.6491 -9157.4901 -7341.0901 299.7931 597.5325 719.8157 29961.8215 3.4130 3.1627
ENERGY: 1900000 0.5103 2.3743 5.4442 0.0000 -10659.2101 1455.8402 0.0000 0.0000 1770.4001 -7424.6411 303.4937 -9195.0411 -7422.6391 300.5392 92.8625 225.8269 30265.5647 3.0586 2.9525
TCL: Exiting due to exit command.
