Info: SIMULATION PARAMETERS:
Info: TIMESTEP               2
Info: NUMBER OF STEPS        0
Info: STEPS PER CYCLE        10
Info: PERIODIC CELL BASIS 1  37.133 0 0
Info: PERIODIC CELL BASIS 2  0 32.158 0
Info: PERIODIC CELL BASIS 3  0 0 36.583
Info: PERIODIC CELL CENTER   0 0 0
Info: WRAPPING WATERS AROUND PERIODIC BOUNDARIES ON OUTPUT.
Info: WRAPPING ALL CLUSTERS AROUND PERIODIC BOUNDARIES ON OUTPUT.
Info: FIRST LDB TIMESTEP     50
Info: LAST LDB TIMESTEP     -1
Info: HOM BACKGROUND SCALING 1
Info: PME BACKGROUND SCALING 1
Info: MIN ATOMS PER PATCH    40
Info: EMPTY PATCH LOAD       40 ATOMS
Info: INITIAL TEMPERATURE    300
Info: CENTER OF MASS MOVING INITIALLY? NO
Info: DIELECTRIC             1
Info: EXCLUDE                SCALED ONE-FOUR
Info: 1-4 ELECTROSTATICS SCALED BY 0.833333
Info: MODIFIED 1-4 VDW PARAMETERS WILL BE USED
Info: DCD FILENAME           mobley_3802803_equil.dcd
Info: DCD FREQUENCY          100000
Info: DCD FIRST STEP         100000
Info: DCD FILE WILL CONTAIN UNIT CELL DATA
Info: XST FILENAME           mobley_3802803_equil.xst
Info: XST FREQUENCY          100000
Info: NO VELOCITY DCD OUTPUT
Info: NO FORCE DCD OUTPUT
Info: OUTPUT FILENAME        mobley_3802803_equil
Info: BINARY OUTPUT FILES WILL BE USED
Info: RESTART FILENAME       mobley_3802803_equil.restart
Info: RESTART FREQUENCY      100000
Info: BINARY RESTART FILES WILL BE USED
Info: CUTOFF                 9
Info: PAIRLIST DISTANCE      11
Info: PAIRLIST SHRINK RATE   0.01
Info: PAIRLIST GROW RATE     0.01
Info: PAIRLIST TRIGGER       0.3
Info: PAIRLISTS PER CYCLE    2
Info: PAIRLISTS ENABLED
Info: MARGIN                 8
Info: HYDROGEN GROUP CUTOFF  2.5
Info: PATCH DIMENSION        21.5
Info: ENERGY OUTPUT STEPS    100000
Info: ENERGY EVALUATION STEPS    100000
Info: OUTPUT ENERGY PRECISION 4
Info: CROSSTERM ENERGY INCLUDED IN DIHEDRAL
Info: TIMING OUTPUT STEPS    1000000
Info: PRESSURE OUTPUT STEPS  100000
Info: LANGEVIN DYNAMICS ACTIVE
Info: LANGEVIN TEMPERATURE   30
Info: LANGEVIN USING BBK INTEGRATOR
Info: LANGEVIN DAMPING COEFFICIENT IS 1 INVERSE PS
Info: LANGEVIN DYNAMICS APPLIED TO HYDROGENS
Info: LANGEVIN PISTON PRESSURE CONTROL ACTIVE
Info:        TARGET PRESSURE IS 1.01325 BAR
Info:     OSCILLATION PERIOD IS 50 FS
Info:             DECAY TIME IS 25 FS
Info:     PISTON TEMPERATURE IS 300 K
Info:       PRESSURE CONTROL IS GROUP-BASED
Info:    INITIAL STRAIN RATE IS 0 0 0
Info:       CELL FLUCTUATION IS ISOTROPIC
Info: PARTICLE MESH EWALD (PME) ACTIVE
Info: PME TOLERANCE               1e-06
Info: PME EWALD COEFFICIENT       0.348832
Info: PME INTERPOLATION ORDER     4
Info: PME GRID DIMENSIONS         40 36 40
Info: PME MAXIMUM GRID SPACING    1
Info: FULL ELECTROSTATIC EVALUATION FREQUENCY      2
Info: USING VERLET I (r-RESPA) MTS SCHEME.
Info: C1 SPLITTING OF LONG RANGE ELECTROSTATICS
Info: PLACING ATOMS IN PATCHES BY HYDROGEN GROUPS
Info: RIGID BONDS TO HYDROGEN : ALL
Info:         ERROR TOLERANCE : 1e-08
Info:          MAX ITERATIONS : 100
Info: RIGID WATER USING SETTLE ALGORITHM
Info: RANDOM NUMBER SEED     1743261232
Info: USE HYDROGEN BONDS?    NO
Info: Using AMBER format force field!
Info: AMBER PARM FILE        mobley_3802803.prmtop
Info: COORDINATE PDB         mobley_3802803.pdb
Info: Exclusions will be read from PARM file!
Info: SCNB (VDW SCALING)     2
Info: USING ARITHMETIC MEAN TO COMBINE L-J SIGMA PARAMETERS
Info: BINARY COORDINATES     mobley_3802803_min.coor
Info: SUMMARY OF PARAMETERS:
Info: 8 BONDS
Info: 10 ANGLES
Info:   10 HARMONIC
Info:   0 COSINE-BASED
Info: 10 DIHEDRAL
Info: 0 IMPROPER
Info: 0 CROSSTERM
Info: 0 VDW
Info: 36 VDW_PAIRS
Info: 0 NBTHOLE_PAIRS
Info: STRUCTURE SUMMARY:
Info: 2948 ATOMS
Info: 2947 BONDS
Info: 40 ANGLES
Info: 58 DIHEDRALS
Info: 0 IMPROPERS
Info: 0 CROSSTERMS
Info: 3037 EXCLUSIONS
Info: 2938 RIGID BONDS
Info: 5906 DEGREES OF FREEDOM
Info: 985 HYDROGEN GROUPS
Info: 4 ATOMS IN LARGEST HYDROGEN GROUP
Info: 985 MIGRATION GROUPS
Info: 4 ATOMS IN LARGEST MIGRATION GROUP
Info: TOTAL MASS = 17712.8 amu
Info: TOTAL CHARGE = -0.000200003 e
Info: MASS DENSITY = 0.673314 g/cm^3
Info: ATOM DENSITY = 0.0674837 atoms/A^3
Info: ADDED 0 IMPLICIT EXCLUSIONS
Info: NONBONDED TABLE R-SQUARED SPACING: 0.0625
Info: NONBONDED TABLE SIZE: 705 POINTS
Info: REMOVING COM VELOCITY 0.0939589 -0.0574778 -0.073358
TCL: Running for 100000 steps
ETITLE: TS BOND ANGLE DIHED IMPRP ELECT VDW BOUNDARY MISC KINETIC TOTAL TEMP POTENTIAL TOTAL3 TEMPAVG PRESSURE GPRESSURE VOLUME PRESSAVG GPRESSAVG
ENERGY: 0 0.1455 0.8709 2.0607 0.0000 -13551.9857 2374.8330 0.0000 0.0000 1769.3759 -9404.6997 301.5206 -11174.0756 -9404.3551 301.5206 354.7451 389.2915 43684.6022 354.7451 389.2915
ENERGY: 100000 0.4386 2.7001 2.6572 0.0000 -14123.7550 2482.0888 0.0000 0.0000 172.9002 -11462.9701 29.4641 -11635.8703 -11462.4419 30.9234 351.4267 383.5001 29549.5815 4.7356 4.7467
TCL: Running 100000 steps at 60 kelvin.
TCL: Setting parameter langevinTemp to 60
TCL: Running for 100000 steps
ETITLE: TS BOND ANGLE DIHED IMPRP ELECT VDW BOUNDARY MISC KINETIC TOTAL TEMP POTENTIAL TOTAL3 TEMPAVG PRESSURE GPRESSURE VOLUME PRESSAVG GPRESSAVG
ENERGY: 100000 0.4386 2.7001 2.6572 0.0000 -14123.7550 2482.0888 0.0000 0.0000 172.8126 -11463.0577 29.4491 -11635.8703 -11462.7026 29.4491 338.3079 383.7401 29549.5815 338.3079 383.7401
ENERGY: 200000 1.9070 2.1290 3.0896 0.0000 -13882.9801 2277.7621 0.0000 0.0000 344.2723 -11253.8201 58.6677 -11598.0925 -11253.0393 59.9518 -1404.8270 -1353.5291 29674.3732 3.2888 3.2969
TCL: Running 100000 steps at 90 kelvin.
TCL: Setting parameter langevinTemp to 90
TCL: Running for 100000 steps
ETITLE: TS BOND ANGLE DIHED IMPRP ELECT VDW BOUNDARY MISC KINETIC TOTAL TEMP POTENTIAL TOTAL3 TEMPAVG PRESSURE GPRESSURE VOLUME PRESSAVG GPRESSAVG
ENERGY: 200000 1.9070 2.1290 3.0896 0.0000 -13882.9801 2277.7621 0.0000 0.0000 344.0950 -11253.9974 58.6375 -11598.0925 -11253.2002 58.6375 -1414.5008 -1353.6445 29674.3732 -1414.5008 -1353.6445
ENERGY: 300000 0.8250 5.0367 2.4162 0.0000 -13824.5033 2327.0264 0.0000 0.0000 517.3256 -10971.8733 88.1578 -11489.1990 -10970.9298 89.8887 -535.5659 -484.8787 29414.2444 4.1173 4.1085
TCL: Running 100000 steps at 120 kelvin.
TCL: Setting parameter langevinTemp to 120
TCL: Running for 100000 steps
ETITLE: TS BOND ANGLE DIHED IMPRP ELECT VDW BOUNDARY MISC KINETIC TOTAL TEMP POTENTIAL TOTAL3 TEMPAVG PRESSURE GPRESSURE VOLUME PRESSAVG GPRESSAVG
ENERGY: 300000 0.8250 5.0367 2.4162 0.0000 -13824.5033 2327.0264 0.0000 0.0000 517.0644 -10972.1346 88.1133 -11489.1990 -10970.9746 88.1133 -544.1742 -484.9880 29414.2444 -544.1742 -484.9880
ENERGY: 400000 0.4984 4.0978 3.0907 0.0000 -13603.7965 2190.8561 0.0000 0.0000 720.0105 -10685.2430 122.6975 -11405.2535 -10684.3442 120.0672 -745.9518 -691.5273 28666.5794 4.0087 4.0798
TCL: Running 100000 steps at 150 kelvin.
TCL: Setting parameter langevinTemp to 150
TCL: Running for 100000 steps
ETITLE: TS BOND ANGLE DIHED IMPRP ELECT VDW BOUNDARY MISC KINETIC TOTAL TEMP POTENTIAL TOTAL3 TEMPAVG PRESSURE GPRESSURE VOLUME PRESSAVG GPRESSAVG
ENERGY: 400000 0.4984 4.0978 3.0907 0.0000 -13603.7965 2190.8561 0.0000 0.0000 719.6701 -10685.5834 122.6395 -11405.2535 -10684.4034 122.6395 -767.4980 -692.4801 28666.5794 -767.4980 -692.4801
ENERGY: 500000 2.3840 3.5695 3.8412 0.0000 -13438.6197 2204.8294 0.0000 0.0000 876.0322 -10347.9634 149.2853 -11223.9956 -10345.4750 149.9580 -233.5594 -151.8332 28639.6122 3.3876 3.2944
TCL: Running 100000 steps at 180 kelvin.
TCL: Setting parameter langevinTemp to 180
TCL: Running for 100000 steps
ETITLE: TS BOND ANGLE DIHED IMPRP ELECT VDW BOUNDARY MISC KINETIC TOTAL TEMP POTENTIAL TOTAL3 TEMPAVG PRESSURE GPRESSURE VOLUME PRESSAVG GPRESSAVG
ENERGY: 500000 2.3840 3.5695 3.8412 0.0000 -13438.6197 2204.8294 0.0000 0.0000 875.6043 -10348.3914 149.2124 -11223.9956 -10346.4043 149.2124 -205.7160 -151.7061 28639.6122 -205.7160 -151.7061
ENERGY: 600000 2.4115 3.2938 3.7235 0.0000 -13082.3243 2155.5552 0.0000 0.0000 1098.1044 -9819.2359 187.1288 -10917.3403 -9816.4573 180.2280 541.9905 539.2407 28794.9162 3.7682 3.7357
TCL: Running 100000 steps at 210 kelvin.
TCL: Setting parameter langevinTemp to 210
TCL: Running for 100000 steps
ETITLE: TS BOND ANGLE DIHED IMPRP ELECT VDW BOUNDARY MISC KINETIC TOTAL TEMP POTENTIAL TOTAL3 TEMPAVG PRESSURE GPRESSURE VOLUME PRESSAVG GPRESSAVG
ENERGY: 600000 2.4115 3.2938 3.7235 0.0000 -13082.3243 2155.5552 0.0000 0.0000 1097.5559 -9819.7844 187.0353 -10917.3403 -9817.9938 187.0353 472.5219 539.0402 28794.9162 472.5219 539.0402
ENERGY: 700000 2.3867 3.7459 3.1471 0.0000 -12366.6500 1907.0705 0.0000 0.0000 1261.6076 -9188.6923 214.9915 -10450.2999 -9184.7512 210.2291 143.9170 245.0829 28740.2195 5.4884 5.5333
TCL: Running 100000 steps at 240 kelvin.
TCL: Setting parameter langevinTemp to 240
TCL: Running for 100000 steps
ETITLE: TS BOND ANGLE DIHED IMPRP ELECT VDW BOUNDARY MISC KINETIC TOTAL TEMP POTENTIAL TOTAL3 TEMPAVG PRESSURE GPRESSURE VOLUME PRESSAVG GPRESSAVG
ENERGY: 700000 2.3867 3.7459 3.1471 0.0000 -12366.6500 1907.0705 0.0000 0.0000 1260.9874 -9189.3125 214.8858 -10450.2999 -9187.5526 214.8858 166.8976 245.4993 28740.2195 166.8976 245.4993
ENERGY: 800000 2.6501 7.2350 4.0043 0.0000 -11726.4667 1686.0605 0.0000 0.0000 1419.4758 -8607.0410 241.8939 -10026.5168 -8604.2939 240.7105 -52.7902 38.5996 28930.6796 2.4599 2.4796
TCL: Running 100000 steps at 270 kelvin.
TCL: Setting parameter langevinTemp to 270
TCL: Running for 100000 steps
ETITLE: TS BOND ANGLE DIHED IMPRP ELECT VDW BOUNDARY MISC KINETIC TOTAL TEMP POTENTIAL TOTAL3 TEMPAVG PRESSURE GPRESSURE VOLUME PRESSAVG GPRESSAVG
ENERGY: 800000 2.6501 7.2350 4.0043 0.0000 -11726.4667 1686.0605 0.0000 0.0000 1418.8167 -8607.7002 241.7816 -10026.5168 -8605.1098 241.7816 -52.4556 36.8032 28930.6796 -52.4556 36.8032
ENERGY: 900000 0.7839 7.6212 4.9715 0.0000 -11077.5311 1503.8569 0.0000 0.0000 1585.3713 -7974.9264 270.1643 -9560.2977 -7969.5371 269.7434 -464.7838 -415.6615 30030.5798 2.0320 2.1767
TCL: Running 1000000 steps at 300 kelvin.
TCL: Setting parameter langevinTemp to 300
TCL: Running for 1000000 steps
ETITLE: TS BOND ANGLE DIHED IMPRP ELECT VDW BOUNDARY MISC KINETIC TOTAL TEMP POTENTIAL TOTAL3 TEMPAVG PRESSURE GPRESSURE VOLUME PRESSAVG GPRESSAVG
ENERGY: 900000 0.7839 7.6212 4.9715 0.0000 -11077.5311 1503.8569 0.0000 0.0000 1584.5606 -7975.7371 270.0261 -9560.2977 -7973.5052 270.0261 -497.2364 -413.6689 30030.5798 -497.2364 -413.6689
ENERGY: 1100000 2.4105 9.5900 4.2348 0.0000 -10529.7930 1354.2574 0.0000 0.0000 1743.9275 -7415.3729 297.1840 -9159.3004 -7410.4587 299.8281 -458.4148 -401.5662 30549.9860 2.4556 2.3707
ENERGY: 1300000 2.8168 12.5780 2.6090 0.0000 -10540.1190 1329.6404 0.0000 0.0000 1788.0574 -7404.4175 304.7042 -9192.4748 -7403.0345 300.4952 -555.5677 -457.4631 30122.8686 3.5979 3.4935
ENERGY: 1500000 3.9403 11.3379 4.3650 0.0000 -10714.6201 1453.4891 0.0000 0.0000 1747.3880 -7494.0998 297.7737 -9241.4878 -7491.4744 299.2246 -183.7474 -97.5159 30603.5506 3.7631 3.6742
ENERGY: 1700000 1.5782 16.5989 4.8480 0.0000 -10604.5397 1377.0282 0.0000 0.0000 1820.9475 -7383.5390 310.3090 -9204.4865 -7377.9953 299.9136 -318.3843 -235.7669 30121.3713 2.6213 2.6455
ENERGY: 1900000 4.8225 7.1800 4.3288 0.0000 -10679.4875 1515.2769 0.0000 0.0000 1760.7729 -7387.1065 300.0546 -9147.8794 -7384.1098 300.3333 764.2945 835.0354 30219.5291 4.4154 4.3323
TCL: Exiting due to exit command.
