Info: SIMULATION PARAMETERS:
Info: TIMESTEP               2
Info: NUMBER OF STEPS        0
Info: STEPS PER CYCLE        10
Info: PERIODIC CELL BASIS 1  34.207 0 0
Info: PERIODIC CELL BASIS 2  0 36.762 0
Info: PERIODIC CELL BASIS 3  0 0 34.68
Info: PERIODIC CELL CENTER   0 0 0
Info: WRAPPING WATERS AROUND PERIODIC BOUNDARIES ON OUTPUT.
Info: WRAPPING ALL CLUSTERS AROUND PERIODIC BOUNDARIES ON OUTPUT.
Info: FIRST LDB TIMESTEP     50
Info: LAST LDB TIMESTEP     -1
Info: HOM BACKGROUND SCALING 1
Info: PME BACKGROUND SCALING 1
Info: MIN ATOMS PER PATCH    40
Info: EMPTY PATCH LOAD       40 ATOMS
Info: INITIAL TEMPERATURE    300
Info: CENTER OF MASS MOVING INITIALLY? NO
Info: DIELECTRIC             1
Info: EXCLUDE                SCALED ONE-FOUR
Info: 1-4 ELECTROSTATICS SCALED BY 0.833333
Info: MODIFIED 1-4 VDW PARAMETERS WILL BE USED
Info: DCD FILENAME           mobley_3686115_equil.dcd
Info: DCD FREQUENCY          100000
Info: DCD FIRST STEP         100000
Info: DCD FILE WILL CONTAIN UNIT CELL DATA
Info: XST FILENAME           mobley_3686115_equil.xst
Info: XST FREQUENCY          100000
Info: NO VELOCITY DCD OUTPUT
Info: NO FORCE DCD OUTPUT
Info: OUTPUT FILENAME        mobley_3686115_equil
Info: BINARY OUTPUT FILES WILL BE USED
Info: RESTART FILENAME       mobley_3686115_equil.restart
Info: RESTART FREQUENCY      100000
Info: BINARY RESTART FILES WILL BE USED
Info: CUTOFF                 9
Info: PAIRLIST DISTANCE      11
Info: PAIRLIST SHRINK RATE   0.01
Info: PAIRLIST GROW RATE     0.01
Info: PAIRLIST TRIGGER       0.3
Info: PAIRLISTS PER CYCLE    2
Info: PAIRLISTS ENABLED
Info: MARGIN                 8
Info: HYDROGEN GROUP CUTOFF  2.5
Info: PATCH DIMENSION        21.5
Info: ENERGY OUTPUT STEPS    100000
Info: ENERGY EVALUATION STEPS    100000
Info: OUTPUT ENERGY PRECISION 4
Info: CROSSTERM ENERGY INCLUDED IN DIHEDRAL
Info: TIMING OUTPUT STEPS    1000000
Info: PRESSURE OUTPUT STEPS  100000
Info: LANGEVIN DYNAMICS ACTIVE
Info: LANGEVIN TEMPERATURE   30
Info: LANGEVIN USING BBK INTEGRATOR
Info: LANGEVIN DAMPING COEFFICIENT IS 1 INVERSE PS
Info: LANGEVIN DYNAMICS APPLIED TO HYDROGENS
Info: LANGEVIN PISTON PRESSURE CONTROL ACTIVE
Info:        TARGET PRESSURE IS 1.01325 BAR
Info:     OSCILLATION PERIOD IS 50 FS
Info:             DECAY TIME IS 25 FS
Info:     PISTON TEMPERATURE IS 300 K
Info:       PRESSURE CONTROL IS GROUP-BASED
Info:    INITIAL STRAIN RATE IS 0 0 0
Info:       CELL FLUCTUATION IS ISOTROPIC
Info: PARTICLE MESH EWALD (PME) ACTIVE
Info: PME TOLERANCE               1e-06
Info: PME EWALD COEFFICIENT       0.348832
Info: PME INTERPOLATION ORDER     4
Info: PME GRID DIMENSIONS         36 40 36
Info: PME MAXIMUM GRID SPACING    1
Info: FULL ELECTROSTATIC EVALUATION FREQUENCY      2
Info: USING VERLET I (r-RESPA) MTS SCHEME.
Info: C1 SPLITTING OF LONG RANGE ELECTROSTATICS
Info: PLACING ATOMS IN PATCHES BY HYDROGEN GROUPS
Info: RIGID BONDS TO HYDROGEN : ALL
Info:         ERROR TOLERANCE : 1e-08
Info:          MAX ITERATIONS : 100
Info: RIGID WATER USING SETTLE ALGORITHM
Info: RANDOM NUMBER SEED     1743255720
Info: USE HYDROGEN BONDS?    NO
Info: Using AMBER format force field!
Info: AMBER PARM FILE        mobley_3686115.prmtop
Info: COORDINATE PDB         mobley_3686115.pdb
Info: Exclusions will be read from PARM file!
Info: SCNB (VDW SCALING)     2
Info: USING ARITHMETIC MEAN TO COMBINE L-J SIGMA PARAMETERS
Info: BINARY COORDINATES     mobley_3686115_min.coor
Info: SUMMARY OF PARAMETERS:
Info: 7 BONDS
Info: 10 ANGLES
Info:   10 HARMONIC
Info:   0 COSINE-BASED
Info: 9 DIHEDRAL
Info: 0 IMPROPER
Info: 0 CROSSTERM
Info: 0 VDW
Info: 28 VDW_PAIRS
Info: 0 NBTHOLE_PAIRS
Info: STRUCTURE SUMMARY:
Info: 2908 ATOMS
Info: 2907 BONDS
Info: 38 ANGLES
Info: 59 DIHEDRALS
Info: 0 IMPROPERS
Info: 0 CROSSTERMS
Info: 2984 EXCLUSIONS
Info: 2900 RIGID BONDS
Info: 5824 DEGREES OF FREEDOM
Info: 970 HYDROGEN GROUPS
Info: 4 ATOMS IN LARGEST HYDROGEN GROUP
Info: 970 MIGRATION GROUPS
Info: 4 ATOMS IN LARGEST MIGRATION GROUP
Info: TOTAL MASS = 17449.6 amu
Info: TOTAL CHARGE = 0 e
Info: MASS DENSITY = 0.664432 g/cm^3
Info: ATOM DENSITY = 0.0666809 atoms/A^3
Info: ADDED 0 IMPLICIT EXCLUSIONS
Info: NONBONDED TABLE R-SQUARED SPACING: 0.0625
Info: NONBONDED TABLE SIZE: 705 POINTS
Info: REMOVING COM VELOCITY -0.00922628 0.0908454 -0.126518
TCL: Running for 100000 steps
ETITLE: TS BOND ANGLE DIHED IMPRP ELECT VDW BOUNDARY MISC KINETIC TOTAL TEMP POTENTIAL TOTAL3 TEMPAVG PRESSURE GPRESSURE VOLUME PRESSAVG GPRESSAVG
ENERGY: 0 0.1316 0.4260 8.7310 0.0000 -13440.1447 2363.8943 0.0000 0.0000 1745.3106 -9321.6512 301.6072 -11066.9618 -9321.2792 301.6072 498.6806 536.2274 43610.7150 498.6806 536.2274
ENERGY: 100000 0.0852 1.6713 11.4056 0.0000 -14011.0814 2405.8951 0.0000 0.0000 174.9299 -11417.0943 30.2296 -11592.0242 -11416.5308 30.9217 -247.7552 -188.5769 28094.9399 4.5860 4.5670
TCL: Running 100000 steps at 60 kelvin.
TCL: Setting parameter langevinTemp to 60
TCL: Running for 100000 steps
ETITLE: TS BOND ANGLE DIHED IMPRP ELECT VDW BOUNDARY MISC KINETIC TOTAL TEMP POTENTIAL TOTAL3 TEMPAVG PRESSURE GPRESSURE VOLUME PRESSAVG GPRESSAVG
ENERGY: 100000 0.0852 1.6713 11.4056 0.0000 -14011.0814 2405.8951 0.0000 0.0000 174.8468 -11417.1774 30.2153 -11592.0242 -11416.8367 30.2153 -259.5288 -188.7474 28094.9399 -259.5288 -188.7474
ENERGY: 200000 1.2241 2.6693 10.0124 0.0000 -13857.4181 2338.9386 0.0000 0.0000 343.7077 -11160.8660 59.3962 -11504.5737 -11160.4565 59.8925 -511.8118 -451.8918 28041.2317 3.8009 3.6978
TCL: Running 100000 steps at 90 kelvin.
TCL: Setting parameter langevinTemp to 90
TCL: Running for 100000 steps
ETITLE: TS BOND ANGLE DIHED IMPRP ELECT VDW BOUNDARY MISC KINETIC TOTAL TEMP POTENTIAL TOTAL3 TEMPAVG PRESSURE GPRESSURE VOLUME PRESSAVG GPRESSAVG
ENERGY: 200000 1.2241 2.6693 10.0124 0.0000 -13857.4181 2338.9386 0.0000 0.0000 343.5373 -11161.0364 59.3667 -11504.5737 -11160.4483 59.3667 -508.6866 -452.0677 28041.2317 -508.6866 -452.0677
ENERGY: 300000 0.5838 3.5351 10.0591 0.0000 -13720.3129 2321.9471 0.0000 0.0000 523.2430 -10860.9449 90.4217 -11384.1879 -10859.6077 89.8541 -118.0467 -31.2433 28182.0534 3.1235 3.1935
TCL: Running 100000 steps at 120 kelvin.
TCL: Setting parameter langevinTemp to 120
TCL: Running for 100000 steps
ETITLE: TS BOND ANGLE DIHED IMPRP ELECT VDW BOUNDARY MISC KINETIC TOTAL TEMP POTENTIAL TOTAL3 TEMPAVG PRESSURE GPRESSURE VOLUME PRESSAVG GPRESSAVG
ENERGY: 300000 0.5838 3.5351 10.0591 0.0000 -13720.3129 2321.9471 0.0000 0.0000 522.9852 -10861.2028 90.3771 -11384.1879 -10860.5015 90.3771 -82.8211 -30.5024 28182.0534 -82.8211 -30.5024
ENERGY: 400000 1.3161 5.9872 8.2681 0.0000 -13568.4310 2280.0241 0.0000 0.0000 706.9922 -10565.8433 122.1754 -11272.8355 -10563.8468 120.1350 84.6994 157.2408 27958.4327 3.4212 3.4234
TCL: Running 100000 steps at 150 kelvin.
TCL: Setting parameter langevinTemp to 150
TCL: Running for 100000 steps
ETITLE: TS BOND ANGLE DIHED IMPRP ELECT VDW BOUNDARY MISC KINETIC TOTAL TEMP POTENTIAL TOTAL3 TEMPAVG PRESSURE GPRESSURE VOLUME PRESSAVG GPRESSAVG
ENERGY: 400000 1.3161 5.9872 8.2681 0.0000 -13568.4310 2280.0241 0.0000 0.0000 706.6483 -10566.1872 122.1159 -11272.8355 -10564.9331 122.1159 100.4694 157.1286 27958.4327 100.4694 157.1286
ENERGY: 500000 1.8862 7.9695 10.2273 0.0000 -13409.3093 2256.6369 0.0000 0.0000 870.2578 -10262.3316 150.3893 -11132.5894 -10259.9838 149.9740 449.5535 459.9880 28082.2228 4.6186 4.3630
TCL: Running 100000 steps at 180 kelvin.
TCL: Setting parameter langevinTemp to 180
TCL: Running for 100000 steps
ETITLE: TS BOND ANGLE DIHED IMPRP ELECT VDW BOUNDARY MISC KINETIC TOTAL TEMP POTENTIAL TOTAL3 TEMPAVG PRESSURE GPRESSURE VOLUME PRESSAVG GPRESSAVG
ENERGY: 500000 1.8862 7.9695 10.2273 0.0000 -13409.3093 2256.6369 0.0000 0.0000 869.8221 -10262.7673 150.3140 -11132.5894 -10260.8910 150.3140 410.7926 459.7477 28082.2228 410.7926 459.7477
ENERGY: 600000 0.7932 7.0011 9.7137 0.0000 -12888.2703 2105.8852 0.0000 0.0000 1045.1635 -9719.7136 180.6148 -10764.8771 -9718.5198 179.8265 405.9785 443.5167 28321.0188 5.0939 5.1020
TCL: Running 100000 steps at 210 kelvin.
TCL: Setting parameter langevinTemp to 210
TCL: Running for 100000 steps
ETITLE: TS BOND ANGLE DIHED IMPRP ELECT VDW BOUNDARY MISC KINETIC TOTAL TEMP POTENTIAL TOTAL3 TEMPAVG PRESSURE GPRESSURE VOLUME PRESSAVG GPRESSAVG
ENERGY: 600000 0.7932 7.0011 9.7137 0.0000 -12888.2703 2105.8852 0.0000 0.0000 1044.6281 -9720.2490 180.5222 -10764.8771 -9718.1448 180.5222 382.3123 440.1486 28321.0188 382.3123 440.1486
ENERGY: 700000 1.0542 4.9395 10.3559 0.0000 -12260.8287 1879.4960 0.0000 0.0000 1208.0897 -9156.8935 208.7700 -10364.9832 -9152.4207 210.1319 41.1920 149.8319 28445.4488 3.7710 3.8531
TCL: Running 100000 steps at 240 kelvin.
TCL: Setting parameter langevinTemp to 240
TCL: Running for 100000 steps
ETITLE: TS BOND ANGLE DIHED IMPRP ELECT VDW BOUNDARY MISC KINETIC TOTAL TEMP POTENTIAL TOTAL3 TEMPAVG PRESSURE GPRESSURE VOLUME PRESSAVG GPRESSAVG
ENERGY: 700000 1.0542 4.9395 10.3559 0.0000 -12260.8287 1879.4960 0.0000 0.0000 1207.4753 -9157.5079 208.6639 -10364.9832 -9155.5413 208.6639 70.7992 151.6143 28445.4488 70.7992 151.6143
ENERGY: 800000 2.4508 6.3257 10.9821 0.0000 -11634.2470 1719.1550 0.0000 0.0000 1377.1068 -8518.2265 237.9779 -9895.3333 -8514.6798 239.6266 35.9730 114.2758 28874.2646 2.7392 2.6628
TCL: Running 100000 steps at 270 kelvin.
TCL: Setting parameter langevinTemp to 270
TCL: Running for 100000 steps
ETITLE: TS BOND ANGLE DIHED IMPRP ELECT VDW BOUNDARY MISC KINETIC TOTAL TEMP POTENTIAL TOTAL3 TEMPAVG PRESSURE GPRESSURE VOLUME PRESSAVG GPRESSAVG
ENERGY: 800000 2.4508 6.3257 10.9821 0.0000 -11634.2470 1719.1550 0.0000 0.0000 1376.4033 -8518.9300 237.8563 -9895.3333 -8516.6901 237.8563 36.6090 114.3358 28874.2646 36.6090 114.3358
ENERGY: 900000 4.6569 10.3673 10.6167 0.0000 -10934.9271 1482.2645 0.0000 0.0000 1602.0875 -7824.9341 276.8568 -9427.0216 -7821.5373 269.5769 -337.5975 -252.2428 29293.4350 3.3046 3.1781
TCL: Running 1000000 steps at 300 kelvin.
TCL: Setting parameter langevinTemp to 300
TCL: Running for 1000000 steps
ETITLE: TS BOND ANGLE DIHED IMPRP ELECT VDW BOUNDARY MISC KINETIC TOTAL TEMP POTENTIAL TOTAL3 TEMPAVG PRESSURE GPRESSURE VOLUME PRESSAVG GPRESSAVG
ENERGY: 900000 4.6569 10.3673 10.6167 0.0000 -10934.9271 1482.2645 0.0000 0.0000 1601.3127 -7825.7089 276.7229 -9427.0216 -7823.5123 276.7229 -341.1881 -251.5854 29293.4350 -341.1881 -251.5854
ENERGY: 1100000 1.4318 5.8509 11.1815 0.0000 -10572.9481 1431.1087 0.0000 0.0000 1723.7409 -7399.6342 297.8798 -9123.3751 -7398.3722 300.3638 207.9704 278.2481 29847.7246 2.7815 2.5918
ENERGY: 1300000 2.4507 14.7297 8.6084 0.0000 -10580.7687 1430.7960 0.0000 0.0000 1764.3313 -7359.8527 304.8942 -9124.1840 -7355.5408 300.4054 143.6702 231.6825 29833.2958 2.6868 2.7903
ENERGY: 1500000 1.9637 14.1305 9.3470 0.0000 -10651.5028 1501.5349 0.0000 0.0000 1753.6875 -7370.8392 303.0548 -9124.5266 -7368.7522 301.2617 635.7041 710.5034 30063.3830 2.9969 2.8889
ENERGY: 1700000 1.5327 8.4330 9.8458 0.0000 -10570.5881 1458.4818 0.0000 0.0000 1722.0868 -7370.2079 297.5939 -9092.2947 -7366.2888 299.3246 446.0204 585.0506 29833.3458 3.2576 3.2446
ENERGY: 1900000 2.7030 7.5083 9.9693 0.0000 -10549.1955 1428.8231 0.0000 0.0000 1761.4362 -7338.7555 304.3939 -9100.1917 -7334.8720 300.1077 126.3889 217.1261 30114.9595 3.9215 3.9544
TCL: Exiting due to exit command.
