Info: SIMULATION PARAMETERS:
Info: TIMESTEP               2
Info: NUMBER OF STEPS        0
Info: STEPS PER CYCLE        10
Info: PERIODIC CELL BASIS 1  34.207 0 0
Info: PERIODIC CELL BASIS 2  0 35.847 0
Info: PERIODIC CELL BASIS 3  0 0 35.856
Info: PERIODIC CELL CENTER   0 0 0
Info: WRAPPING WATERS AROUND PERIODIC BOUNDARIES ON OUTPUT.
Info: WRAPPING ALL CLUSTERS AROUND PERIODIC BOUNDARIES ON OUTPUT.
Info: FIRST LDB TIMESTEP     50
Info: LAST LDB TIMESTEP     -1
Info: HOM BACKGROUND SCALING 1
Info: PME BACKGROUND SCALING 1
Info: MIN ATOMS PER PATCH    40
Info: EMPTY PATCH LOAD       40 ATOMS
Info: INITIAL TEMPERATURE    300
Info: CENTER OF MASS MOVING INITIALLY? NO
Info: DIELECTRIC             1
Info: EXCLUDE                SCALED ONE-FOUR
Info: 1-4 ELECTROSTATICS SCALED BY 0.833333
Info: MODIFIED 1-4 VDW PARAMETERS WILL BE USED
Info: DCD FILENAME           mobley_5467162_equil.dcd
Info: DCD FREQUENCY          100000
Info: DCD FIRST STEP         100000
Info: DCD FILE WILL CONTAIN UNIT CELL DATA
Info: XST FILENAME           mobley_5467162_equil.xst
Info: XST FREQUENCY          100000
Info: NO VELOCITY DCD OUTPUT
Info: NO FORCE DCD OUTPUT
Info: OUTPUT FILENAME        mobley_5467162_equil
Info: BINARY OUTPUT FILES WILL BE USED
Info: RESTART FILENAME       mobley_5467162_equil.restart
Info: RESTART FREQUENCY      100000
Info: BINARY RESTART FILES WILL BE USED
Info: CUTOFF                 9
Info: PAIRLIST DISTANCE      11
Info: PAIRLIST SHRINK RATE   0.01
Info: PAIRLIST GROW RATE     0.01
Info: PAIRLIST TRIGGER       0.3
Info: PAIRLISTS PER CYCLE    2
Info: PAIRLISTS ENABLED
Info: MARGIN                 8
Info: HYDROGEN GROUP CUTOFF  2.5
Info: PATCH DIMENSION        21.5
Info: ENERGY OUTPUT STEPS    100000
Info: ENERGY EVALUATION STEPS    100000
Info: OUTPUT ENERGY PRECISION 4
Info: CROSSTERM ENERGY INCLUDED IN DIHEDRAL
Info: TIMING OUTPUT STEPS    1000000
Info: PRESSURE OUTPUT STEPS  100000
Info: LANGEVIN DYNAMICS ACTIVE
Info: LANGEVIN TEMPERATURE   30
Info: LANGEVIN USING BBK INTEGRATOR
Info: LANGEVIN DAMPING COEFFICIENT IS 1 INVERSE PS
Info: LANGEVIN DYNAMICS APPLIED TO HYDROGENS
Info: LANGEVIN PISTON PRESSURE CONTROL ACTIVE
Info:        TARGET PRESSURE IS 1.01325 BAR
Info:     OSCILLATION PERIOD IS 50 FS
Info:             DECAY TIME IS 25 FS
Info:     PISTON TEMPERATURE IS 300 K
Info:       PRESSURE CONTROL IS GROUP-BASED
Info:    INITIAL STRAIN RATE IS 0 0 0
Info:       CELL FLUCTUATION IS ISOTROPIC
Info: PARTICLE MESH EWALD (PME) ACTIVE
Info: PME TOLERANCE               1e-06
Info: PME EWALD COEFFICIENT       0.348832
Info: PME INTERPOLATION ORDER     4
Info: PME GRID DIMENSIONS         36 36 36
Info: PME MAXIMUM GRID SPACING    1
Info: FULL ELECTROSTATIC EVALUATION FREQUENCY      2
Info: USING VERLET I (r-RESPA) MTS SCHEME.
Info: C1 SPLITTING OF LONG RANGE ELECTROSTATICS
Info: PLACING ATOMS IN PATCHES BY HYDROGEN GROUPS
Info: RIGID BONDS TO HYDROGEN : ALL
Info:         ERROR TOLERANCE : 1e-08
Info:          MAX ITERATIONS : 100
Info: RIGID WATER USING SETTLE ALGORITHM
Info: RANDOM NUMBER SEED     1743222018
Info: USE HYDROGEN BONDS?    NO
Info: Using AMBER format force field!
Info: AMBER PARM FILE        mobley_5467162.prmtop
Info: COORDINATE PDB         mobley_5467162.pdb
Info: Exclusions will be read from PARM file!
Info: SCNB (VDW SCALING)     2
Info: USING ARITHMETIC MEAN TO COMBINE L-J SIGMA PARAMETERS
Info: BINARY COORDINATES     mobley_5467162_min.coor
Info: SUMMARY OF PARAMETERS:
Info: 9 BONDS
Info: 9 ANGLES
Info:   9 HARMONIC
Info:   0 COSINE-BASED
Info: 6 DIHEDRAL
Info: 0 IMPROPER
Info: 0 CROSSTERM
Info: 0 VDW
Info: 28 VDW_PAIRS
Info: 0 NBTHOLE_PAIRS
Info: STRUCTURE SUMMARY:
Info: 2914 ATOMS
Info: 2914 BONDS
Info: 43 ANGLES
Info: 65 DIHEDRALS
Info: 0 IMPROPERS
Info: 0 CROSSTERMS
Info: 3013 EXCLUSIONS
Info: 2903 RIGID BONDS
Info: 5839 DEGREES OF FREEDOM
Info: 974 HYDROGEN GROUPS
Info: 4 ATOMS IN LARGEST HYDROGEN GROUP
Info: 974 MIGRATION GROUPS
Info: 4 ATOMS IN LARGEST MIGRATION GROUP
Info: TOTAL MASS = 17499.6 amu
Info: TOTAL CHARGE = -0.000499953 e
Info: MASS DENSITY = 0.660934 g/cm^3
Info: ATOM DENSITY = 0.0662766 atoms/A^3
Info: ADDED 0 IMPLICIT EXCLUSIONS
Info: NONBONDED TABLE R-SQUARED SPACING: 0.0625
Info: NONBONDED TABLE SIZE: 705 POINTS
Info: REMOVING COM VELOCITY -0.0564381 0.0701817 0.0306462
TCL: Running for 100000 steps
ETITLE: TS BOND ANGLE DIHED IMPRP ELECT VDW BOUNDARY MISC KINETIC TOTAL TEMP POTENTIAL TOTAL3 TEMPAVG PRESSURE GPRESSURE VOLUME PRESSAVG GPRESSAVG
ENERGY: 0 0.8027 1.6567 0.1730 0.0000 -13533.6428 2398.7475 0.0000 0.0000 1739.8883 -9392.3745 299.8978 -11132.2628 -9392.0414 299.8978 515.0321 547.2516 43967.2844 515.0321 547.2516
ENERGY: 100000 1.2400 2.5696 0.6005 0.0000 -14093.1530 2500.2594 0.0000 0.0000 168.7357 -11419.7478 29.0843 -11588.4835 -11419.2750 30.8826 481.6586 557.2827 28299.9487 2.7015 2.6639
TCL: Running 100000 steps at 60 kelvin.
TCL: Setting parameter langevinTemp to 60
TCL: Running for 100000 steps
ETITLE: TS BOND ANGLE DIHED IMPRP ELECT VDW BOUNDARY MISC KINETIC TOTAL TEMP POTENTIAL TOTAL3 TEMPAVG PRESSURE GPRESSURE VOLUME PRESSAVG GPRESSAVG
ENERGY: 100000 1.2400 2.5696 0.6005 0.0000 -14093.1530 2500.2594 0.0000 0.0000 168.6506 -11419.8329 29.0696 -11588.4835 -11419.5177 29.0696 496.2468 557.3263 28299.9487 496.2468 557.3263
ENERGY: 200000 0.8091 3.7248 0.6514 0.0000 -13928.8040 2418.9077 0.0000 0.0000 362.7887 -11141.9223 62.5325 -11504.7110 -11141.3602 60.0152 151.9420 214.9804 28579.9567 4.4886 4.4919
TCL: Running 100000 steps at 90 kelvin.
TCL: Setting parameter langevinTemp to 90
TCL: Running for 100000 steps
ETITLE: TS BOND ANGLE DIHED IMPRP ELECT VDW BOUNDARY MISC KINETIC TOTAL TEMP POTENTIAL TOTAL3 TEMPAVG PRESSURE GPRESSURE VOLUME PRESSAVG GPRESSAVG
ENERGY: 200000 0.8091 3.7248 0.6514 0.0000 -13928.8040 2418.9077 0.0000 0.0000 362.6175 -11142.0935 62.5030 -11504.7110 -11141.4262 62.5030 160.2073 214.3057 28579.9567 160.2073 214.3057
ENERGY: 300000 0.9817 3.0431 1.8800 0.0000 -13812.3326 2409.3515 0.0000 0.0000 522.6130 -10874.4633 90.0808 -11397.0763 -10873.3170 90.0593 387.8608 404.5949 28763.4051 3.5232 3.5673
TCL: Running 100000 steps at 120 kelvin.
TCL: Setting parameter langevinTemp to 120
TCL: Running for 100000 steps
ETITLE: TS BOND ANGLE DIHED IMPRP ELECT VDW BOUNDARY MISC KINETIC TOTAL TEMP POTENTIAL TOTAL3 TEMPAVG PRESSURE GPRESSURE VOLUME PRESSAVG GPRESSAVG
ENERGY: 300000 0.9817 3.0431 1.8800 0.0000 -13812.3326 2409.3515 0.0000 0.0000 522.3537 -10874.7227 90.0361 -11397.0763 -10873.6621 90.0361 355.2087 403.7811 28763.4051 355.2087 403.7811
ENERGY: 400000 1.1908 4.6118 1.0976 0.0000 -13571.2703 2284.6967 0.0000 0.0000 698.4913 -10581.1821 120.3962 -11279.6734 -10578.7876 119.9771 -158.8838 -105.2185 28463.4004 3.7350 3.8764
TCL: Running 100000 steps at 150 kelvin.
TCL: Setting parameter langevinTemp to 150
TCL: Running for 100000 steps
ETITLE: TS BOND ANGLE DIHED IMPRP ELECT VDW BOUNDARY MISC KINETIC TOTAL TEMP POTENTIAL TOTAL3 TEMPAVG PRESSURE GPRESSURE VOLUME PRESSAVG GPRESSAVG
ENERGY: 400000 1.1908 4.6118 1.0976 0.0000 -13571.2703 2284.6967 0.0000 0.0000 698.1460 -10581.5274 120.3367 -11279.6734 -10580.0246 120.3367 -145.7595 -104.5460 28463.4004 -145.7595 -104.5460
ENERGY: 500000 1.4825 5.6342 2.2972 0.0000 -13405.6747 2263.8638 0.0000 0.0000 861.3970 -10270.9999 148.4757 -11132.3969 -10269.6172 150.1902 65.8424 160.0596 28716.2168 4.3412 4.4277
TCL: Running 100000 steps at 180 kelvin.
TCL: Setting parameter langevinTemp to 180
TCL: Running for 100000 steps
ETITLE: TS BOND ANGLE DIHED IMPRP ELECT VDW BOUNDARY MISC KINETIC TOTAL TEMP POTENTIAL TOTAL3 TEMPAVG PRESSURE GPRESSURE VOLUME PRESSAVG GPRESSAVG
ENERGY: 500000 1.4825 5.6342 2.2972 0.0000 -13405.6747 2263.8638 0.0000 0.0000 860.9638 -10271.4331 148.4010 -11132.3969 -10269.6104 148.4010 102.0930 159.8509 28716.2168 102.0930 159.8509
ENERGY: 600000 8.6025 7.0575 1.3126 0.0000 -12970.6943 2080.4035 0.0000 0.0000 1053.5906 -9819.7276 181.6033 -10873.3183 -9818.0691 179.8828 -330.5935 -212.7651 28553.5474 4.6498 4.6760
TCL: Running 100000 steps at 210 kelvin.
TCL: Setting parameter langevinTemp to 210
TCL: Running for 100000 steps
ETITLE: TS BOND ANGLE DIHED IMPRP ELECT VDW BOUNDARY MISC KINETIC TOTAL TEMP POTENTIAL TOTAL3 TEMPAVG PRESSURE GPRESSURE VOLUME PRESSAVG GPRESSAVG
ENERGY: 600000 8.6025 7.0575 1.3126 0.0000 -12970.6943 2080.4035 0.0000 0.0000 1053.0627 -9820.2555 181.5123 -10873.3183 -9818.1414 181.5123 -276.6170 -213.9570 28553.5474 -276.6170 -213.9570
ENERGY: 700000 2.5082 9.8192 3.4123 0.0000 -12332.8098 1926.3998 0.0000 0.0000 1215.0279 -9175.6424 209.4296 -10390.6703 -9173.7234 209.6462 290.6488 318.5880 28434.6301 3.8987 3.9421
TCL: Running 100000 steps at 240 kelvin.
TCL: Setting parameter langevinTemp to 240
TCL: Running for 100000 steps
ETITLE: TS BOND ANGLE DIHED IMPRP ELECT VDW BOUNDARY MISC KINETIC TOTAL TEMP POTENTIAL TOTAL3 TEMPAVG PRESSURE GPRESSURE VOLUME PRESSAVG GPRESSAVG
ENERGY: 700000 2.5082 9.8192 3.4123 0.0000 -12332.8098 1926.3998 0.0000 0.0000 1214.4166 -9176.2537 209.3243 -10390.6703 -9173.8325 209.3243 259.2173 316.3689 28434.6301 259.2173 316.3689
ENERGY: 800000 1.9050 12.2405 1.4533 0.0000 -11645.4217 1694.0882 0.0000 0.0000 1397.5075 -8538.2272 240.8830 -9935.7347 -8537.3785 239.4141 -85.7551 -3.4272 28743.9835 4.3661 4.2114
TCL: Running 100000 steps at 270 kelvin.
TCL: Setting parameter langevinTemp to 270
TCL: Running for 100000 steps
ETITLE: TS BOND ANGLE DIHED IMPRP ELECT VDW BOUNDARY MISC KINETIC TOTAL TEMP POTENTIAL TOTAL3 TEMPAVG PRESSURE GPRESSURE VOLUME PRESSAVG GPRESSAVG
ENERGY: 800000 1.9050 12.2405 1.4533 0.0000 -11645.4217 1694.0882 0.0000 0.0000 1396.8079 -8538.9268 240.7624 -9935.7347 -8536.5473 240.7624 -70.5985 -4.7303 28743.9835 -70.5985 -4.7303
ENERGY: 900000 2.9355 9.2354 1.2813 0.0000 -11094.7785 1532.0058 0.0000 0.0000 1561.3787 -7987.9417 269.1288 -9549.3204 -7984.8175 270.1713 -96.4071 26.8156 28975.8782 3.7648 3.8056
TCL: Running 1000000 steps at 300 kelvin.
TCL: Setting parameter langevinTemp to 300
TCL: Running for 1000000 steps
ETITLE: TS BOND ANGLE DIHED IMPRP ELECT VDW BOUNDARY MISC KINETIC TOTAL TEMP POTENTIAL TOTAL3 TEMPAVG PRESSURE GPRESSURE VOLUME PRESSAVG GPRESSAVG
ENERGY: 900000 2.9355 9.2354 1.2813 0.0000 -11094.7785 1532.0058 0.0000 0.0000 1560.6135 -7988.7070 268.9969 -9549.3204 -7985.5896 268.9969 -64.7333 27.8240 28975.8782 -64.7333 27.8240
ENERGY: 1100000 2.5195 6.5710 5.6406 0.0000 -10412.0908 1337.4286 0.0000 0.0000 1693.4324 -7366.4986 291.8904 -9059.9311 -7361.3882 300.4494 -537.0351 -445.9931 29933.1202 3.3001 3.2469
ENERGY: 1300000 1.8694 8.0429 3.2371 0.0000 -10569.6047 1411.9513 0.0000 0.0000 1765.6450 -7378.8589 304.3374 -9144.5039 -7375.3210 299.4443 -98.3816 32.1144 29925.6297 3.0816 3.1992
ENERGY: 1500000 4.9575 11.1104 6.1469 0.0000 -10507.0748 1415.8307 0.0000 0.0000 1696.7363 -7372.2931 292.4599 -9069.0294 -7369.3669 300.1944 104.9457 199.4266 29700.5548 4.2235 4.0726
ENERGY: 1700000 5.2873 7.5969 4.7313 0.0000 -10371.3177 1285.7223 0.0000 0.0000 1821.0394 -7246.9405 313.8855 -9067.9799 -7242.8076 300.2112 -988.3685 -855.9866 30142.2387 3.3865 3.4310
ENERGY: 1900000 7.2942 8.2650 5.5663 0.0000 -10557.2376 1419.0822 0.0000 0.0000 1772.1242 -7344.9056 305.4542 -9117.0298 -7340.6529 300.8447 14.2695 58.9232 29846.7765 2.7741 2.7550
TCL: Exiting due to exit command.
