Info: SIMULATION PARAMETERS:
Info: TIMESTEP               2
Info: NUMBER OF STEPS        0
Info: STEPS PER CYCLE        10
Info: PERIODIC CELL BASIS 1  34.207 0 0
Info: PERIODIC CELL BASIS 2  0 34.26 0
Info: PERIODIC CELL BASIS 3  0 0 37.195
Info: PERIODIC CELL CENTER   0 0 0
Info: WRAPPING WATERS AROUND PERIODIC BOUNDARIES ON OUTPUT.
Info: WRAPPING ALL CLUSTERS AROUND PERIODIC BOUNDARIES ON OUTPUT.
Info: FIRST LDB TIMESTEP     50
Info: LAST LDB TIMESTEP     -1
Info: HOM BACKGROUND SCALING 1
Info: PME BACKGROUND SCALING 1
Info: MIN ATOMS PER PATCH    40
Info: EMPTY PATCH LOAD       40 ATOMS
Info: INITIAL TEMPERATURE    300
Info: CENTER OF MASS MOVING INITIALLY? NO
Info: DIELECTRIC             1
Info: EXCLUDE                SCALED ONE-FOUR
Info: 1-4 ELECTROSTATICS SCALED BY 0.833333
Info: MODIFIED 1-4 VDW PARAMETERS WILL BE USED
Info: DCD FILENAME           mobley_3746675_equil.dcd
Info: DCD FREQUENCY          100000
Info: DCD FIRST STEP         100000
Info: DCD FILE WILL CONTAIN UNIT CELL DATA
Info: XST FILENAME           mobley_3746675_equil.xst
Info: XST FREQUENCY          100000
Info: NO VELOCITY DCD OUTPUT
Info: NO FORCE DCD OUTPUT
Info: OUTPUT FILENAME        mobley_3746675_equil
Info: BINARY OUTPUT FILES WILL BE USED
Info: RESTART FILENAME       mobley_3746675_equil.restart
Info: RESTART FREQUENCY      100000
Info: BINARY RESTART FILES WILL BE USED
Info: CUTOFF                 9
Info: PAIRLIST DISTANCE      11
Info: PAIRLIST SHRINK RATE   0.01
Info: PAIRLIST GROW RATE     0.01
Info: PAIRLIST TRIGGER       0.3
Info: PAIRLISTS PER CYCLE    2
Info: PAIRLISTS ENABLED
Info: MARGIN                 8
Info: HYDROGEN GROUP CUTOFF  2.5
Info: PATCH DIMENSION        21.5
Info: ENERGY OUTPUT STEPS    100000
Info: ENERGY EVALUATION STEPS    100000
Info: OUTPUT ENERGY PRECISION 4
Info: CROSSTERM ENERGY INCLUDED IN DIHEDRAL
Info: TIMING OUTPUT STEPS    1000000
Info: PRESSURE OUTPUT STEPS  100000
Info: LANGEVIN DYNAMICS ACTIVE
Info: LANGEVIN TEMPERATURE   30
Info: LANGEVIN USING BBK INTEGRATOR
Info: LANGEVIN DAMPING COEFFICIENT IS 1 INVERSE PS
Info: LANGEVIN DYNAMICS APPLIED TO HYDROGENS
Info: LANGEVIN PISTON PRESSURE CONTROL ACTIVE
Info:        TARGET PRESSURE IS 1.01325 BAR
Info:     OSCILLATION PERIOD IS 50 FS
Info:             DECAY TIME IS 25 FS
Info:     PISTON TEMPERATURE IS 300 K
Info:       PRESSURE CONTROL IS GROUP-BASED
Info:    INITIAL STRAIN RATE IS 0 0 0
Info:       CELL FLUCTUATION IS ISOTROPIC
Info: PARTICLE MESH EWALD (PME) ACTIVE
Info: PME TOLERANCE               1e-06
Info: PME EWALD COEFFICIENT       0.348832
Info: PME INTERPOLATION ORDER     4
Info: PME GRID DIMENSIONS         36 36 40
Info: PME MAXIMUM GRID SPACING    1
Info: FULL ELECTROSTATIC EVALUATION FREQUENCY      2
Info: USING VERLET I (r-RESPA) MTS SCHEME.
Info: C1 SPLITTING OF LONG RANGE ELECTROSTATICS
Info: PLACING ATOMS IN PATCHES BY HYDROGEN GROUPS
Info: RIGID BONDS TO HYDROGEN : ALL
Info:         ERROR TOLERANCE : 1e-08
Info:          MAX ITERATIONS : 100
Info: RIGID WATER USING SETTLE ALGORITHM
Info: RANDOM NUMBER SEED     1743233712
Info: USE HYDROGEN BONDS?    NO
Info: Using AMBER format force field!
Info: AMBER PARM FILE        mobley_3746675.prmtop
Info: COORDINATE PDB         mobley_3746675.pdb
Info: Exclusions will be read from PARM file!
Info: SCNB (VDW SCALING)     2
Info: USING ARITHMETIC MEAN TO COMBINE L-J SIGMA PARAMETERS
Info: BINARY COORDINATES     mobley_3746675_min.coor
Info: SUMMARY OF PARAMETERS:
Info: 9 BONDS
Info: 10 ANGLES
Info:   10 HARMONIC
Info:   0 COSINE-BASED
Info: 6 DIHEDRAL
Info: 0 IMPROPER
Info: 0 CROSSTERM
Info: 0 VDW
Info: 21 VDW_PAIRS
Info: 0 NBTHOLE_PAIRS
Info: STRUCTURE SUMMARY:
Info: 2956 ATOMS
Info: 2956 BONDS
Info: 30 ANGLES
Info: 52 DIHEDRALS
Info: 0 IMPROPERS
Info: 0 CROSSTERMS
Info: 3021 EXCLUSIONS
Info: 2947 RIGID BONDS
Info: 5921 DEGREES OF FREEDOM
Info: 988 HYDROGEN GROUPS
Info: 4 ATOMS IN LARGEST HYDROGEN GROUP
Info: 988 MIGRATION GROUPS
Info: 4 ATOMS IN LARGEST MIGRATION GROUP
Info: TOTAL MASS = 17755.8 amu
Info: TOTAL CHARGE = 0.000199996 e
Info: MASS DENSITY = 0.676415 g/cm^3
Info: ATOM DENSITY = 0.0678137 atoms/A^3
Info: ADDED 0 IMPLICIT EXCLUSIONS
Info: NONBONDED TABLE R-SQUARED SPACING: 0.0625
Info: NONBONDED TABLE SIZE: 705 POINTS
Info: REMOVING COM VELOCITY -0.192983 -0.132095 -0.190481
TCL: Running for 100000 steps
ETITLE: TS BOND ANGLE DIHED IMPRP ELECT VDW BOUNDARY MISC KINETIC TOTAL TEMP POTENTIAL TOTAL3 TEMPAVG PRESSURE GPRESSURE VOLUME PRESSAVG GPRESSAVG
ENERGY: 0 0.2670 0.3212 10.9507 0.0000 -13623.1209 2382.0268 0.0000 0.0000 1780.5170 -9449.0382 302.6505 -11229.5552 -9448.7273 302.6505 417.5167 458.3119 43590.0040 417.5167 458.3119
ENERGY: 100000 1.3949 0.9959 11.3940 0.0000 -14188.0903 2426.2838 0.0000 0.0000 175.6559 -11572.3658 29.8578 -11748.0216 -11571.9496 30.9410 -609.3612 -540.7924 28865.6774 3.1114 3.0714
TCL: Running 100000 steps at 60 kelvin.
TCL: Setting parameter langevinTemp to 60
TCL: Running for 100000 steps
ETITLE: TS BOND ANGLE DIHED IMPRP ELECT VDW BOUNDARY MISC KINETIC TOTAL TEMP POTENTIAL TOTAL3 TEMPAVG PRESSURE GPRESSURE VOLUME PRESSAVG GPRESSAVG
ENERGY: 100000 1.3949 0.9959 11.3940 0.0000 -14188.0903 2426.2838 0.0000 0.0000 175.5681 -11572.4535 29.8429 -11748.0216 -11571.9657 29.8429 -592.3596 -540.9246 28865.6774 -592.3596 -540.9246
ENERGY: 200000 1.4839 1.9053 11.5253 0.0000 -13969.2214 2308.8777 0.0000 0.0000 350.6719 -11294.7573 59.6069 -11645.4292 -11293.5806 60.0632 -1154.3612 -1083.0926 28892.3624 4.7990 4.8160
TCL: Running 100000 steps at 90 kelvin.
TCL: Setting parameter langevinTemp to 90
TCL: Running for 100000 steps
ETITLE: TS BOND ANGLE DIHED IMPRP ELECT VDW BOUNDARY MISC KINETIC TOTAL TEMP POTENTIAL TOTAL3 TEMPAVG PRESSURE GPRESSURE VOLUME PRESSAVG GPRESSAVG
ENERGY: 200000 1.4839 1.9053 11.5253 0.0000 -13969.2214 2308.8777 0.0000 0.0000 350.5034 -11294.9259 59.5782 -11645.4292 -11294.1172 59.5782 -1132.6579 -1082.7908 28892.3624 -1132.6579 -1082.7908
ENERGY: 300000 0.7822 1.5092 13.6231 0.0000 -14110.7315 2540.5319 0.0000 0.0000 529.2108 -11025.0743 89.9547 -11554.2851 -11023.7877 90.0452 1381.5608 1434.3357 28400.2098 3.8421 3.8102
TCL: Running 100000 steps at 120 kelvin.
TCL: Setting parameter langevinTemp to 120
TCL: Running for 100000 steps
ETITLE: TS BOND ANGLE DIHED IMPRP ELECT VDW BOUNDARY MISC KINETIC TOTAL TEMP POTENTIAL TOTAL3 TEMPAVG PRESSURE GPRESSURE VOLUME PRESSAVG GPRESSAVG
ENERGY: 300000 0.7822 1.5092 13.6231 0.0000 -14110.7315 2540.5319 0.0000 0.0000 528.9634 -11025.3217 89.9127 -11554.2851 -11024.4063 89.9127 1376.4502 1434.5858 28400.2098 1376.4502 1434.5858
ENERGY: 400000 1.1023 4.1932 14.0140 0.0000 -13862.8536 2402.6731 0.0000 0.0000 687.0643 -10753.8067 116.7865 -11440.8710 -10752.4742 119.8192 363.9386 435.7996 28692.9652 3.7820 3.9056
TCL: Running 100000 steps at 150 kelvin.
TCL: Setting parameter langevinTemp to 150
TCL: Running for 100000 steps
ETITLE: TS BOND ANGLE DIHED IMPRP ELECT VDW BOUNDARY MISC KINETIC TOTAL TEMP POTENTIAL TOTAL3 TEMPAVG PRESSURE GPRESSURE VOLUME PRESSAVG GPRESSAVG
ENERGY: 400000 1.1023 4.1932 14.0140 0.0000 -13862.8536 2402.6731 0.0000 0.0000 686.7252 -10754.1458 116.7289 -11440.8710 -10753.1993 116.7289 388.1656 435.3338 28692.9652 388.1656 435.3338
ENERGY: 500000 1.6555 1.8963 14.9047 0.0000 -13499.3116 2214.0988 0.0000 0.0000 870.9067 -10395.8496 148.0359 -11266.7563 -10395.1822 149.7996 -324.5695 -256.0449 28889.4219 5.2855 5.3836
TCL: Running 100000 steps at 180 kelvin.
TCL: Setting parameter langevinTemp to 180
TCL: Running for 100000 steps
ETITLE: TS BOND ANGLE DIHED IMPRP ELECT VDW BOUNDARY MISC KINETIC TOTAL TEMP POTENTIAL TOTAL3 TEMPAVG PRESSURE GPRESSURE VOLUME PRESSAVG GPRESSAVG
ENERGY: 500000 1.6555 1.8963 14.9047 0.0000 -13499.3116 2214.0988 0.0000 0.0000 870.4751 -10396.2812 147.9625 -11266.7563 -10394.7233 147.9625 -308.8141 -256.4112 28889.4219 -308.8141 -256.4112
ENERGY: 600000 1.9501 4.1623 15.4199 0.0000 -13142.5742 2122.3519 0.0000 0.0000 1057.0901 -9941.5999 179.6831 -10998.6901 -9938.0311 179.9877 68.5723 127.3303 28646.0538 2.1985 2.3994
TCL: Running 100000 steps at 210 kelvin.
TCL: Setting parameter langevinTemp to 210
TCL: Running for 100000 steps
ETITLE: TS BOND ANGLE DIHED IMPRP ELECT VDW BOUNDARY MISC KINETIC TOTAL TEMP POTENTIAL TOTAL3 TEMPAVG PRESSURE GPRESSURE VOLUME PRESSAVG GPRESSAVG
ENERGY: 600000 1.9501 4.1623 15.4199 0.0000 -13142.5742 2122.3519 0.0000 0.0000 1056.5545 -9942.1356 179.5921 -10998.6901 -9940.1786 179.5921 59.3397 128.2357 28646.0538 59.3397 128.2357
ENERGY: 700000 1.8057 4.8035 15.0000 0.0000 -12383.1072 1890.3929 0.0000 0.0000 1213.4648 -9257.6402 206.2636 -10471.1050 -9256.0217 210.3054 -48.2096 -37.1817 28839.9128 4.8431 4.6985
TCL: Running 100000 steps at 240 kelvin.
TCL: Setting parameter langevinTemp to 240
TCL: Running for 100000 steps
ETITLE: TS BOND ANGLE DIHED IMPRP ELECT VDW BOUNDARY MISC KINETIC TOTAL TEMP POTENTIAL TOTAL3 TEMPAVG PRESSURE GPRESSURE VOLUME PRESSAVG GPRESSAVG
ENERGY: 700000 1.8057 4.8035 15.0000 0.0000 -12383.1072 1890.3929 0.0000 0.0000 1212.8431 -9258.2620 206.1579 -10471.1050 -9255.8876 206.1579 -116.7066 -38.5165 28839.9128 -116.7066 -38.5165
ENERGY: 800000 4.8811 3.3680 15.6941 0.0000 -11828.9349 1799.7359 0.0000 0.0000 1409.9753 -8595.2805 239.6662 -10005.2558 -8592.1134 240.3376 891.7009 976.9696 28988.5390 4.3490 4.4554
TCL: Running 100000 steps at 270 kelvin.
TCL: Setting parameter langevinTemp to 270
TCL: Running for 100000 steps
ETITLE: TS BOND ANGLE DIHED IMPRP ELECT VDW BOUNDARY MISC KINETIC TOTAL TEMP POTENTIAL TOTAL3 TEMPAVG PRESSURE GPRESSURE VOLUME PRESSAVG GPRESSAVG
ENERGY: 800000 4.8811 3.3680 15.6941 0.0000 -11828.9349 1799.7359 0.0000 0.0000 1409.2976 -8595.9582 239.5510 -10005.2558 -8593.9957 239.5510 906.6975 978.9555 28988.5390 906.6975 978.9555
ENERGY: 900000 1.5695 7.0145 14.0545 0.0000 -11078.0286 1464.9024 0.0000 0.0000 1562.6066 -8027.8811 265.6103 -9590.4877 -8025.3992 269.6613 -725.5201 -625.1868 30133.9905 3.3997 3.1134
TCL: Running 1000000 steps at 300 kelvin.
TCL: Setting parameter langevinTemp to 300
TCL: Running for 1000000 steps
ETITLE: TS BOND ANGLE DIHED IMPRP ELECT VDW BOUNDARY MISC KINETIC TOTAL TEMP POTENTIAL TOTAL3 TEMPAVG PRESSURE GPRESSURE VOLUME PRESSAVG GPRESSAVG
ENERGY: 900000 1.5695 7.0145 14.0545 0.0000 -11078.0286 1464.9024 0.0000 0.0000 1561.7935 -8028.6943 265.4721 -9590.4877 -8026.1214 265.4721 -710.9723 -625.5934 30133.9905 -710.9723 -625.5934
ENERGY: 1100000 3.2902 6.4847 14.4527 0.0000 -10670.8687 1423.7650 0.0000 0.0000 1699.9646 -7522.9116 288.9583 -9222.8762 -7520.1361 300.3879 -106.9789 -64.5193 30689.2698 2.3199 2.4911
ENERGY: 1300000 3.3859 9.2237 13.3268 0.0000 -10622.6346 1365.2551 0.0000 0.0000 1790.0957 -7441.3473 304.2787 -9231.4430 -7435.7840 300.6978 -470.5923 -365.5648 30398.9624 3.3641 3.3489
ENERGY: 1500000 3.0425 5.0413 18.4003 0.0000 -10622.0627 1428.6757 0.0000 0.0000 1732.8717 -7434.0312 294.5518 -9166.9029 -7429.1638 300.2103 -97.0497 -12.5299 30590.0524 1.9941 2.1009
ENERGY: 1700000 6.9395 5.1996 14.3757 0.0000 -10707.2562 1416.2020 0.0000 0.0000 1706.3846 -7558.1549 290.0496 -9264.5395 -7555.2343 299.9448 -307.2886 -209.4165 30055.9141 2.1313 1.9642
ENERGY: 1900000 3.5659 4.0055 18.2968 0.0000 -10549.5322 1412.4401 0.0000 0.0000 1733.2278 -7377.9960 294.6124 -9111.2238 -7374.9927 301.2691 302.7417 391.3828 30336.2440 1.9600 2.0456
TCL: Exiting due to exit command.
