Info: SIMULATION PARAMETERS:
Info: TIMESTEP               2
Info: NUMBER OF STEPS        0
Info: STEPS PER CYCLE        10
Info: PERIODIC CELL BASIS 1  32.955 0 0
Info: PERIODIC CELL BASIS 2  0 34.457 0
Info: PERIODIC CELL BASIS 3  0 0 37.451
Info: PERIODIC CELL CENTER   0 0 0
Info: WRAPPING WATERS AROUND PERIODIC BOUNDARIES ON OUTPUT.
Info: WRAPPING ALL CLUSTERS AROUND PERIODIC BOUNDARIES ON OUTPUT.
Info: FIRST LDB TIMESTEP     50
Info: LAST LDB TIMESTEP     -1
Info: HOM BACKGROUND SCALING 1
Info: PME BACKGROUND SCALING 1
Info: MIN ATOMS PER PATCH    40
Info: EMPTY PATCH LOAD       40 ATOMS
Info: INITIAL TEMPERATURE    300
Info: CENTER OF MASS MOVING INITIALLY? NO
Info: DIELECTRIC             1
Info: EXCLUDE                SCALED ONE-FOUR
Info: 1-4 ELECTROSTATICS SCALED BY 0.833333
Info: MODIFIED 1-4 VDW PARAMETERS WILL BE USED
Info: DCD FILENAME           mobley_1893937_equil.dcd
Info: DCD FREQUENCY          100000
Info: DCD FIRST STEP         100000
Info: DCD FILE WILL CONTAIN UNIT CELL DATA
Info: XST FILENAME           mobley_1893937_equil.xst
Info: XST FREQUENCY          100000
Info: NO VELOCITY DCD OUTPUT
Info: NO FORCE DCD OUTPUT
Info: OUTPUT FILENAME        mobley_1893937_equil
Info: BINARY OUTPUT FILES WILL BE USED
Info: RESTART FILENAME       mobley_1893937_equil.restart
Info: RESTART FREQUENCY      100000
Info: BINARY RESTART FILES WILL BE USED
Info: CUTOFF                 9
Info: PAIRLIST DISTANCE      11
Info: PAIRLIST SHRINK RATE   0.01
Info: PAIRLIST GROW RATE     0.01
Info: PAIRLIST TRIGGER       0.3
Info: PAIRLISTS PER CYCLE    2
Info: PAIRLISTS ENABLED
Info: MARGIN                 8
Info: HYDROGEN GROUP CUTOFF  2.5
Info: PATCH DIMENSION        21.5
Info: ENERGY OUTPUT STEPS    100000
Info: ENERGY EVALUATION STEPS    100000
Info: OUTPUT ENERGY PRECISION 4
Info: CROSSTERM ENERGY INCLUDED IN DIHEDRAL
Info: TIMING OUTPUT STEPS    1000000
Info: PRESSURE OUTPUT STEPS  100000
Info: LANGEVIN DYNAMICS ACTIVE
Info: LANGEVIN TEMPERATURE   30
Info: LANGEVIN USING BBK INTEGRATOR
Info: LANGEVIN DAMPING COEFFICIENT IS 1 INVERSE PS
Info: LANGEVIN DYNAMICS APPLIED TO HYDROGENS
Info: LANGEVIN PISTON PRESSURE CONTROL ACTIVE
Info:        TARGET PRESSURE IS 1.01325 BAR
Info:     OSCILLATION PERIOD IS 50 FS
Info:             DECAY TIME IS 25 FS
Info:     PISTON TEMPERATURE IS 300 K
Info:       PRESSURE CONTROL IS GROUP-BASED
Info:    INITIAL STRAIN RATE IS 0 0 0
Info:       CELL FLUCTUATION IS ISOTROPIC
Info: PARTICLE MESH EWALD (PME) ACTIVE
Info: PME TOLERANCE               1e-06
Info: PME EWALD COEFFICIENT       0.348832
Info: PME INTERPOLATION ORDER     4
Info: PME GRID DIMENSIONS         36 36 40
Info: PME MAXIMUM GRID SPACING    1
Info: FULL ELECTROSTATIC EVALUATION FREQUENCY      2
Info: USING VERLET I (r-RESPA) MTS SCHEME.
Info: C1 SPLITTING OF LONG RANGE ELECTROSTATICS
Info: PLACING ATOMS IN PATCHES BY HYDROGEN GROUPS
Info: RIGID BONDS TO HYDROGEN : ALL
Info:         ERROR TOLERANCE : 1e-08
Info:          MAX ITERATIONS : 100
Info: RIGID WATER USING SETTLE ALGORITHM
Info: RANDOM NUMBER SEED     1743253786
Info: USE HYDROGEN BONDS?    NO
Info: Using AMBER format force field!
Info: AMBER PARM FILE        mobley_1893937.prmtop
Info: COORDINATE PDB         mobley_1893937.pdb
Info: Exclusions will be read from PARM file!
Info: SCNB (VDW SCALING)     2
Info: USING ARITHMETIC MEAN TO COMBINE L-J SIGMA PARAMETERS
Info: BINARY COORDINATES     mobley_1893937_min.coor
Info: SUMMARY OF PARAMETERS:
Info: 6 BONDS
Info: 7 ANGLES
Info: 8 DIHEDRAL
Info: 0 IMPROPER
Info: 0 CROSSTERM
Info: 0 VDW
Info: 21 VDW_PAIRS
Info: 0 NBTHOLE_PAIRS
Info: STRUCTURE SUMMARY:
Info: 2900 ATOMS
Info: 2899 BONDS
Info: 36 ANGLES
Info: 53 DIHEDRALS
Info: 0 IMPROPERS
Info: 0 CROSSTERMS
Info: 2980 EXCLUSIONS
Info: 2893 RIGID BONDS
Info: 5807 DEGREES OF FREEDOM
Info: 967 HYDROGEN GROUPS
Info: 4 ATOMS IN LARGEST HYDROGEN GROUP
Info: 967 MIGRATION GROUPS
Info: 4 ATOMS IN LARGEST MIGRATION GROUP
Info: TOTAL MASS = 17416 amu
Info: TOTAL CHARGE = 0.000100013 e
Info: MASS DENSITY = 0.680056 g/cm^3
Info: ATOM DENSITY = 0.0681924 atoms/A^3
Info: ADDED 0 IMPLICIT EXCLUSIONS
Info: NONBONDED TABLE R-SQUARED SPACING: 0.0625
Info: NONBONDED TABLE SIZE: 705 POINTS
Info: REMOVING COM VELOCITY -0.104625 0.0145357 -0.0452488
TCL: Running for 100000 steps
ETITLE: TS BOND ANGLE DIHED IMPRP ELECT VDW BOUNDARY MISC KINETIC TOTAL TEMP POTENTIAL TOTAL3 TEMPAVG PRESSURE GPRESSURE VOLUME PRESSAVG GPRESSAVG
ENERGY: 0 0.0513 0.2055 1.9926 0.0000 -13288.9773 2302.3572 0.0000 0.0000 1724.7523 -9259.6183 298.9271 -10984.3706 -9259.2864 298.9271 188.3743 227.1552 42526.7503 188.3743 227.1552
ENERGY: 100000 0.0293 1.2746 2.0712 0.0000 -13910.6000 2449.8227 0.0000 0.0000 175.9200 -11281.4822 30.4897 -11457.4022 -11281.0569 30.8902 159.5661 234.6990 29074.2599 4.2564 4.2044
TCL: Running 100000 steps at 60 kelvin.
TCL: Setting parameter langevinTemp to 60
TCL: Running for 100000 steps
ETITLE: TS BOND ANGLE DIHED IMPRP ELECT VDW BOUNDARY MISC KINETIC TOTAL TEMP POTENTIAL TOTAL3 TEMPAVG PRESSURE GPRESSURE VOLUME PRESSAVG GPRESSAVG
ENERGY: 100000 0.0293 1.2746 2.0712 0.0000 -13910.6000 2449.8227 0.0000 0.0000 175.8325 -11281.5697 30.4746 -11457.4022 -11281.1398 30.4746 179.4081 234.4971 29074.2599 179.4081 234.4971
ENERGY: 200000 0.2579 2.3605 2.4072 0.0000 -13875.1968 2448.6797 0.0000 0.0000 344.7608 -11076.7308 59.7525 -11421.4916 -11076.1468 59.8934 526.0433 589.9728 28502.0120 3.2441 3.2841
TCL: Running 100000 steps at 90 kelvin.
TCL: Setting parameter langevinTemp to 90
TCL: Running for 100000 steps
ETITLE: TS BOND ANGLE DIHED IMPRP ELECT VDW BOUNDARY MISC KINETIC TOTAL TEMP POTENTIAL TOTAL3 TEMPAVG PRESSURE GPRESSURE VOLUME PRESSAVG GPRESSAVG
ENERGY: 200000 0.2579 2.3605 2.4072 0.0000 -13875.1968 2448.6797 0.0000 0.0000 344.5965 -11076.8951 59.7241 -11421.4916 -11076.2473 59.7241 533.8212 589.8922 28502.0120 533.8212 589.8922
ENERGY: 300000 0.3296 2.8060 2.7646 0.0000 -13757.6385 2417.2240 0.0000 0.0000 537.6474 -10796.8670 93.1829 -11334.5144 -10795.4123 90.0128 649.0284 738.6333 28306.7570 4.1533 4.1137
TCL: Running 100000 steps at 120 kelvin.
TCL: Setting parameter langevinTemp to 120
TCL: Running for 100000 steps
ETITLE: TS BOND ANGLE DIHED IMPRP ELECT VDW BOUNDARY MISC KINETIC TOTAL TEMP POTENTIAL TOTAL3 TEMPAVG PRESSURE GPRESSURE VOLUME PRESSAVG GPRESSAVG
ENERGY: 300000 0.3296 2.8060 2.7646 0.0000 -13757.6385 2417.2240 0.0000 0.0000 537.3957 -10797.1187 93.1392 -11334.5144 -10795.9942 93.1392 679.0923 738.5892 28306.7570 679.0923 738.5892
ENERGY: 400000 0.6521 3.2876 2.7644 0.0000 -13523.4924 2281.5687 0.0000 0.0000 692.8146 -10542.4051 120.0758 -11235.2197 -10540.3578 119.9952 -47.0429 -1.0635 28020.0769 2.9980 3.0441
TCL: Running 100000 steps at 150 kelvin.
TCL: Setting parameter langevinTemp to 150
TCL: Running for 100000 steps
ETITLE: TS BOND ANGLE DIHED IMPRP ELECT VDW BOUNDARY MISC KINETIC TOTAL TEMP POTENTIAL TOTAL3 TEMPAVG PRESSURE GPRESSURE VOLUME PRESSAVG GPRESSAVG
ENERGY: 400000 0.6521 3.2876 2.7644 0.0000 -13523.4924 2281.5687 0.0000 0.0000 692.4610 -10542.7587 120.0145 -11235.2197 -10541.0506 120.0145 -51.8089 -1.3526 28020.0769 -51.8089 -1.3526
ENERGY: 500000 1.6315 4.2850 2.6475 0.0000 -13331.4378 2238.7063 0.0000 0.0000 874.2403 -10209.9271 151.5198 -11084.1674 -10209.1508 149.9511 250.4991 253.1779 28305.3066 4.0944 4.2539
TCL: Running 100000 steps at 180 kelvin.
TCL: Setting parameter langevinTemp to 180
TCL: Running for 100000 steps
ETITLE: TS BOND ANGLE DIHED IMPRP ELECT VDW BOUNDARY MISC KINETIC TOTAL TEMP POTENTIAL TOTAL3 TEMPAVG PRESSURE GPRESSURE VOLUME PRESSAVG GPRESSAVG
ENERGY: 500000 1.6315 4.2850 2.6475 0.0000 -13331.4378 2238.7063 0.0000 0.0000 873.8204 -10210.3471 151.4470 -11084.1674 -10208.6634 151.4470 188.2981 252.0826 28305.3066 188.2981 252.0826
ENERGY: 600000 0.9798 6.1873 2.4482 0.0000 -13066.0506 2223.8556 0.0000 0.0000 1016.1523 -9816.4274 176.1154 -10832.5797 -9815.2881 179.7988 1027.5717 1037.6614 28302.9499 3.9927 4.0614
TCL: Running 100000 steps at 210 kelvin.
TCL: Setting parameter langevinTemp to 210
TCL: Running for 100000 steps
ETITLE: TS BOND ANGLE DIHED IMPRP ELECT VDW BOUNDARY MISC KINETIC TOTAL TEMP POTENTIAL TOTAL3 TEMPAVG PRESSURE GPRESSURE VOLUME PRESSAVG GPRESSAVG
ENERGY: 600000 0.9798 6.1873 2.4482 0.0000 -13066.0506 2223.8556 0.0000 0.0000 1015.6315 -9816.9482 176.0251 -10832.5797 -9815.2932 176.0251 976.9957 1037.6163 28302.9499 976.9957 1037.6163
ENERGY: 700000 0.4276 8.1548 2.8634 0.0000 -12063.7667 1802.7249 0.0000 0.0000 1216.4697 -9033.1263 210.8336 -10249.5960 -9030.5645 209.8765 -450.6054 -297.6185 28360.1597 3.4100 3.1388
TCL: Running 100000 steps at 240 kelvin.
TCL: Setting parameter langevinTemp to 240
TCL: Running for 100000 steps
ETITLE: TS BOND ANGLE DIHED IMPRP ELECT VDW BOUNDARY MISC KINETIC TOTAL TEMP POTENTIAL TOTAL3 TEMPAVG PRESSURE GPRESSURE VOLUME PRESSAVG GPRESSAVG
ENERGY: 700000 0.4276 8.1548 2.8634 0.0000 -12063.7667 1802.7249 0.0000 0.0000 1215.8639 -9033.7321 210.7286 -10249.5960 -9031.3363 210.7286 -397.9346 -298.8467 28360.1597 -397.9346 -298.8467
ENERGY: 800000 1.4742 7.3154 1.9316 0.0000 -11435.3499 1565.2836 0.0000 0.0000 1394.6285 -8464.7166 241.7114 -9859.3451 -8461.6654 239.9318 -791.0778 -722.4235 28657.9232 2.7728 2.6620
TCL: Running 100000 steps at 270 kelvin.
TCL: Setting parameter langevinTemp to 270
TCL: Running for 100000 steps
ETITLE: TS BOND ANGLE DIHED IMPRP ELECT VDW BOUNDARY MISC KINETIC TOTAL TEMP POTENTIAL TOTAL3 TEMPAVG PRESSURE GPRESSURE VOLUME PRESSAVG GPRESSAVG
ENERGY: 800000 1.4742 7.3154 1.9316 0.0000 -11435.3499 1565.2836 0.0000 0.0000 1393.9545 -8465.3907 241.5946 -9859.3451 -8462.5809 241.5946 -808.1051 -721.9855 28657.9232 -808.1051 -721.9855
ENERGY: 900000 2.0041 8.5657 3.5157 0.0000 -11140.0363 1686.9812 0.0000 0.0000 1550.2740 -7888.6955 268.6872 -9438.9695 -7887.4965 270.2389 1496.8903 1506.4418 28791.5168 3.1487 3.0633
TCL: Running 1000000 steps at 300 kelvin.
TCL: Setting parameter langevinTemp to 300
TCL: Running for 1000000 steps
ETITLE: TS BOND ANGLE DIHED IMPRP ELECT VDW BOUNDARY MISC KINETIC TOTAL TEMP POTENTIAL TOTAL3 TEMPAVG PRESSURE GPRESSURE VOLUME PRESSAVG GPRESSAVG
ENERGY: 900000 2.0041 8.5657 3.5157 0.0000 -11140.0363 1686.9812 0.0000 0.0000 1549.4851 -7889.4844 268.5505 -9438.9695 -7887.6645 268.5505 1439.8590 1506.4535 28791.5168 1439.8590 1506.4535
ENERGY: 1100000 4.7854 10.8228 2.9982 0.0000 -10417.8598 1352.1089 0.0000 0.0000 1705.9242 -7341.2202 295.6639 -9047.1444 -7337.9452 300.1197 -801.4752 -681.2144 30323.7521 3.9222 3.7344
ENERGY: 1300000 0.9048 7.6652 5.2621 0.0000 -10604.7920 1417.3098 0.0000 0.0000 1709.5647 -7464.0855 296.2948 -9173.6501 -7460.4075 300.0963 -302.1870 -237.2240 30093.3369 3.5652 3.4276
ENERGY: 1500000 2.1272 8.1014 2.9142 0.0000 -10661.2558 1483.3992 0.0000 0.0000 1785.8141 -7378.8998 309.5101 -9164.7139 -7378.2590 299.9066 587.8754 709.1130 29396.8849 3.0861 2.9720
ENERGY: 1700000 1.5367 10.0293 2.5834 0.0000 -10545.3777 1458.2747 0.0000 0.0000 1752.0818 -7320.8719 303.6637 -9072.9536 -7315.7084 300.5404 742.2843 874.9266 29470.6041 2.6422 2.2878
ENERGY: 1900000 1.1978 13.0407 4.3553 0.0000 -10449.1424 1351.9569 0.0000 0.0000 1739.4767 -7339.1150 301.4791 -9078.5917 -7335.9037 300.2852 -455.0292 -335.1925 29882.0884 2.9371 2.9299
TCL: Exiting due to exit command.
