Info: SIMULATION PARAMETERS:
Info: TIMESTEP               2
Info: NUMBER OF STEPS        0
Info: STEPS PER CYCLE        10
Info: PERIODIC CELL BASIS 1  36.592 0 0
Info: PERIODIC CELL BASIS 2  0 34.26 0
Info: PERIODIC CELL BASIS 3  0 0 35.723
Info: PERIODIC CELL CENTER   0 0 0
Info: WRAPPING WATERS AROUND PERIODIC BOUNDARIES ON OUTPUT.
Info: WRAPPING ALL CLUSTERS AROUND PERIODIC BOUNDARIES ON OUTPUT.
Info: FIRST LDB TIMESTEP     50
Info: LAST LDB TIMESTEP     -1
Info: HOM BACKGROUND SCALING 1
Info: PME BACKGROUND SCALING 1
Info: MIN ATOMS PER PATCH    40
Info: EMPTY PATCH LOAD       40 ATOMS
Info: INITIAL TEMPERATURE    300
Info: CENTER OF MASS MOVING INITIALLY? NO
Info: DIELECTRIC             1
Info: EXCLUDE                SCALED ONE-FOUR
Info: 1-4 ELECTROSTATICS SCALED BY 0.833333
Info: MODIFIED 1-4 VDW PARAMETERS WILL BE USED
Info: DCD FILENAME           mobley_7150646_equil.dcd
Info: DCD FREQUENCY          100000
Info: DCD FIRST STEP         100000
Info: DCD FILE WILL CONTAIN UNIT CELL DATA
Info: XST FILENAME           mobley_7150646_equil.xst
Info: XST FREQUENCY          100000
Info: NO VELOCITY DCD OUTPUT
Info: NO FORCE DCD OUTPUT
Info: OUTPUT FILENAME        mobley_7150646_equil
Info: BINARY OUTPUT FILES WILL BE USED
Info: RESTART FILENAME       mobley_7150646_equil.restart
Info: RESTART FREQUENCY      100000
Info: BINARY RESTART FILES WILL BE USED
Info: CUTOFF                 9
Info: PAIRLIST DISTANCE      11
Info: PAIRLIST SHRINK RATE   0.01
Info: PAIRLIST GROW RATE     0.01
Info: PAIRLIST TRIGGER       0.3
Info: PAIRLISTS PER CYCLE    2
Info: PAIRLISTS ENABLED
Info: MARGIN                 8
Info: HYDROGEN GROUP CUTOFF  2.5
Info: PATCH DIMENSION        21.5
Info: ENERGY OUTPUT STEPS    100000
Info: ENERGY EVALUATION STEPS    100000
Info: OUTPUT ENERGY PRECISION 4
Info: CROSSTERM ENERGY INCLUDED IN DIHEDRAL
Info: TIMING OUTPUT STEPS    1000000
Info: PRESSURE OUTPUT STEPS  100000
Info: LANGEVIN DYNAMICS ACTIVE
Info: LANGEVIN TEMPERATURE   30
Info: LANGEVIN USING BBK INTEGRATOR
Info: LANGEVIN DAMPING COEFFICIENT IS 1 INVERSE PS
Info: LANGEVIN DYNAMICS APPLIED TO HYDROGENS
Info: LANGEVIN PISTON PRESSURE CONTROL ACTIVE
Info:        TARGET PRESSURE IS 1.01325 BAR
Info:     OSCILLATION PERIOD IS 50 FS
Info:             DECAY TIME IS 25 FS
Info:     PISTON TEMPERATURE IS 300 K
Info:       PRESSURE CONTROL IS GROUP-BASED
Info:    INITIAL STRAIN RATE IS 0 0 0
Info:       CELL FLUCTUATION IS ISOTROPIC
Info: PARTICLE MESH EWALD (PME) ACTIVE
Info: PME TOLERANCE               1e-06
Info: PME EWALD COEFFICIENT       0.348832
Info: PME INTERPOLATION ORDER     4
Info: PME GRID DIMENSIONS         40 36 36
Info: PME MAXIMUM GRID SPACING    1
Info: FULL ELECTROSTATIC EVALUATION FREQUENCY      2
Info: USING VERLET I (r-RESPA) MTS SCHEME.
Info: C1 SPLITTING OF LONG RANGE ELECTROSTATICS
Info: PLACING ATOMS IN PATCHES BY HYDROGEN GROUPS
Info: RIGID BONDS TO HYDROGEN : ALL
Info:         ERROR TOLERANCE : 1e-08
Info:          MAX ITERATIONS : 100
Info: RIGID WATER USING SETTLE ALGORITHM
Info: RANDOM NUMBER SEED     1743164113
Info: USE HYDROGEN BONDS?    NO
Info: Using AMBER format force field!
Info: AMBER PARM FILE        mobley_7150646.prmtop
Info: COORDINATE PDB         mobley_7150646.pdb
Info: Exclusions will be read from PARM file!
Info: SCNB (VDW SCALING)     2
Info: USING ARITHMETIC MEAN TO COMBINE L-J SIGMA PARAMETERS
Info: BINARY COORDINATES     mobley_7150646_min.coor
Info: SUMMARY OF PARAMETERS:
Info: 5 BONDS
Info: 3 ANGLES
Info:   3 HARMONIC
Info:   0 COSINE-BASED
Info: 2 DIHEDRAL
Info: 0 IMPROPER
Info: 0 CROSSTERM
Info: 0 VDW
Info: 15 VDW_PAIRS
Info: 0 NBTHOLE_PAIRS
Info: STRUCTURE SUMMARY:
Info: 2955 ATOMS
Info: 2955 BONDS
Info: 18 ANGLES
Info: 30 DIHEDRALS
Info: 0 IMPROPERS
Info: 0 CROSSTERMS
Info: 2994 EXCLUSIONS
Info: 2947 RIGID BONDS
Info: 5918 DEGREES OF FREEDOM
Info: 989 HYDROGEN GROUPS
Info: 3 ATOMS IN LARGEST HYDROGEN GROUP
Info: 989 MIGRATION GROUPS
Info: 3 ATOMS IN LARGEST MIGRATION GROUP
Info: TOTAL MASS = 17909.6 amu
Info: TOTAL CHARGE = -0.000399988 e
Info: MASS DENSITY = 0.664085 g/cm^3
Info: ATOM DENSITY = 0.0659836 atoms/A^3
Info: ADDED 0 IMPLICIT EXCLUSIONS
Info: NONBONDED TABLE R-SQUARED SPACING: 0.0625
Info: NONBONDED TABLE SIZE: 705 POINTS
Info: REMOVING COM VELOCITY 0.0413925 0.119408 0.193771
TCL: Running for 100000 steps
ETITLE: TS BOND ANGLE DIHED IMPRP ELECT VDW BOUNDARY MISC KINETIC TOTAL TEMP POTENTIAL TOTAL3 TEMPAVG PRESSURE GPRESSURE VOLUME PRESSAVG GPRESSAVG
ENERGY: 0 0.1285 0.0484 0.0186 0.0000 -13620.4323 2402.0709 0.0000 0.0000 1780.4984 -9437.6676 302.8008 -11218.1660 -9437.2836 302.8008 353.7009 393.4761 44783.8503 353.7009 393.4761
ENERGY: 100000 0.4780 0.2107 0.2100 0.0000 -14122.6967 2407.5148 0.0000 0.0000 174.4150 -11539.8681 29.6619 -11714.2831 -11539.6599 30.9090 -371.8026 -289.9105 29530.5302 3.1604 3.0949
TCL: Running 100000 steps at 60 kelvin.
TCL: Setting parameter langevinTemp to 60
TCL: Running for 100000 steps
ETITLE: TS BOND ANGLE DIHED IMPRP ELECT VDW BOUNDARY MISC KINETIC TOTAL TEMP POTENTIAL TOTAL3 TEMPAVG PRESSURE GPRESSURE VOLUME PRESSAVG GPRESSAVG
ENERGY: 100000 0.4780 0.2107 0.2100 0.0000 -14122.6967 2407.5148 0.0000 0.0000 174.3267 -11539.9564 29.6469 -11714.2831 -11539.6188 29.6469 -363.2249 -289.8815 29530.5302 -363.2249 -289.8815
ENERGY: 200000 0.3810 0.5946 0.2284 0.0000 -14107.3344 2426.8408 0.0000 0.0000 348.8699 -11330.4196 59.3306 -11679.2895 -11329.4125 59.9508 70.1592 152.0084 29064.2300 4.9337 4.8803
TCL: Running 100000 steps at 90 kelvin.
TCL: Setting parameter langevinTemp to 90
TCL: Running for 100000 steps
ETITLE: TS BOND ANGLE DIHED IMPRP ELECT VDW BOUNDARY MISC KINETIC TOTAL TEMP POTENTIAL TOTAL3 TEMPAVG PRESSURE GPRESSURE VOLUME PRESSAVG GPRESSAVG
ENERGY: 200000 0.3810 0.5946 0.2284 0.0000 -14107.3344 2426.8408 0.0000 0.0000 348.7024 -11330.5871 59.3021 -11679.2895 -11330.0038 59.3021 77.9862 152.1253 29064.2300 77.9862 152.1253
ENERGY: 300000 1.3887 0.5503 0.5526 0.0000 -14141.1333 2555.7133 0.0000 0.0000 508.5333 -11074.3951 86.4838 -11582.9285 -11073.5577 89.9642 1550.9458 1660.4558 28733.7796 5.2412 5.2572
TCL: Running 100000 steps at 120 kelvin.
TCL: Setting parameter langevinTemp to 120
TCL: Running for 100000 steps
ETITLE: TS BOND ANGLE DIHED IMPRP ELECT VDW BOUNDARY MISC KINETIC TOTAL TEMP POTENTIAL TOTAL3 TEMPAVG PRESSURE GPRESSURE VOLUME PRESSAVG GPRESSAVG
ENERGY: 300000 1.3887 0.5503 0.5526 0.0000 -14141.1333 2555.7133 0.0000 0.0000 508.2766 -11074.6519 86.4402 -11582.9285 -11073.7155 86.4402 1605.1385 1660.6177 28733.7796 1605.1385 1660.6177
ENERGY: 400000 2.4157 1.1465 2.1678 0.0000 -13627.1052 2162.4550 0.0000 0.0000 712.4366 -10746.4835 121.1607 -11458.9201 -10744.8631 120.1218 -1437.5001 -1352.4317 29252.6577 3.9028 3.9463
TCL: Running 100000 steps at 150 kelvin.
TCL: Setting parameter langevinTemp to 150
TCL: Running for 100000 steps
ETITLE: TS BOND ANGLE DIHED IMPRP ELECT VDW BOUNDARY MISC KINETIC TOTAL TEMP POTENTIAL TOTAL3 TEMPAVG PRESSURE GPRESSURE VOLUME PRESSAVG GPRESSAVG
ENERGY: 400000 2.4157 1.1465 2.1678 0.0000 -13627.1052 2162.4550 0.0000 0.0000 712.0882 -10746.8319 121.1014 -11458.9201 -10745.3733 121.1014 -1414.3184 -1352.8855 29252.6577 -1414.3184 -1352.8855
ENERGY: 500000 1.9383 0.8962 1.1572 0.0000 -13701.2479 2374.7337 0.0000 0.0000 864.0325 -10458.4901 146.9419 -11322.5226 -10456.8107 150.3735 910.5633 974.6247 28956.7477 2.9584 2.9270
TCL: Running 100000 steps at 180 kelvin.
TCL: Setting parameter langevinTemp to 180
TCL: Running for 100000 steps
ETITLE: TS BOND ANGLE DIHED IMPRP ELECT VDW BOUNDARY MISC KINETIC TOTAL TEMP POTENTIAL TOTAL3 TEMPAVG PRESSURE GPRESSURE VOLUME PRESSAVG GPRESSAVG
ENERGY: 500000 1.9383 0.8962 1.1572 0.0000 -13701.2479 2374.7337 0.0000 0.0000 863.6122 -10458.9104 146.8704 -11322.5226 -10457.4847 146.8704 914.8026 973.4699 28956.7477 914.8026 973.4699
ENERGY: 600000 1.1894 1.0921 0.3086 0.0000 -13162.4010 2144.1977 0.0000 0.0000 1050.6677 -9964.9455 178.6820 -11015.6132 -9964.6512 179.6821 208.4769 262.0263 28916.8505 3.7435 3.7393
TCL: Running 100000 steps at 210 kelvin.
TCL: Setting parameter langevinTemp to 210
TCL: Running for 100000 steps
ETITLE: TS BOND ANGLE DIHED IMPRP ELECT VDW BOUNDARY MISC KINETIC TOTAL TEMP POTENTIAL TOTAL3 TEMPAVG PRESSURE GPRESSURE VOLUME PRESSAVG GPRESSAVG
ENERGY: 600000 1.1894 1.0921 0.3086 0.0000 -13162.4010 2144.1977 0.0000 0.0000 1050.1417 -9965.4715 178.5925 -11015.6132 -9963.9544 178.5925 212.8451 261.4199 28916.8505 212.8451 261.4199
ENERGY: 700000 3.3383 1.5893 2.3857 0.0000 -12199.5738 1703.7529 0.0000 0.0000 1272.5427 -9215.9650 216.4152 -10488.5077 -9212.1420 209.8424 -1616.0197 -1512.8392 29118.3515 3.7444 3.8649
TCL: Running 100000 steps at 240 kelvin.
TCL: Setting parameter langevinTemp to 240
TCL: Running for 100000 steps
ETITLE: TS BOND ANGLE DIHED IMPRP ELECT VDW BOUNDARY MISC KINETIC TOTAL TEMP POTENTIAL TOTAL3 TEMPAVG PRESSURE GPRESSURE VOLUME PRESSAVG GPRESSAVG
ENERGY: 700000 3.3383 1.5893 2.3857 0.0000 -12199.5738 1703.7529 0.0000 0.0000 1271.9155 -9216.5921 216.3086 -10488.5077 -9213.3696 216.3086 -1587.5189 -1511.1040 29118.3515 -1587.5189 -1511.1040
ENERGY: 800000 1.2196 3.1557 2.9457 0.0000 -11748.8632 1658.5074 0.0000 0.0000 1383.8708 -8699.1640 235.3483 -10083.0348 -8697.2187 240.3965 -301.4965 -274.0913 28965.1592 4.0517 4.0381
TCL: Running 100000 steps at 270 kelvin.
TCL: Setting parameter langevinTemp to 270
TCL: Running for 100000 steps
ETITLE: TS BOND ANGLE DIHED IMPRP ELECT VDW BOUNDARY MISC KINETIC TOTAL TEMP POTENTIAL TOTAL3 TEMPAVG PRESSURE GPRESSURE VOLUME PRESSAVG GPRESSAVG
ENERGY: 800000 1.2196 3.1557 2.9457 0.0000 -11748.8632 1658.5074 0.0000 0.0000 1383.1611 -8699.8737 235.2276 -10083.0348 -8697.7724 235.2276 -346.4802 -272.5960 28965.1592 -346.4802 -272.5960
ENERGY: 900000 1.6217 1.7707 4.2336 0.0000 -11285.8451 1576.0695 0.0000 0.0000 1657.6413 -8044.5084 281.9071 -9702.1497 -8040.8684 269.8987 93.3354 105.3733 29806.8411 2.8620 2.6776
TCL: Running 1000000 steps at 300 kelvin.
TCL: Setting parameter langevinTemp to 300
TCL: Running for 1000000 steps
ETITLE: TS BOND ANGLE DIHED IMPRP ELECT VDW BOUNDARY MISC KINETIC TOTAL TEMP POTENTIAL TOTAL3 TEMPAVG PRESSURE GPRESSURE VOLUME PRESSAVG GPRESSAVG
ENERGY: 900000 1.6217 1.7707 4.2336 0.0000 -11285.8451 1576.0695 0.0000 0.0000 1656.8433 -8045.3064 281.7714 -9702.1497 -8043.0057 281.7714 33.7215 105.1905 29806.8411 33.7215 105.1905
ENERGY: 1100000 3.3827 2.6649 0.6020 0.0000 -10599.6674 1304.6530 0.0000 0.0000 1720.1919 -7568.1729 292.5448 -9288.3649 -7562.4395 300.3231 -1175.0125 -1096.5157 30530.7698 2.7908 2.6846
ENERGY: 1300000 4.1982 4.5613 3.1022 0.0000 -10555.1146 1326.3455 0.0000 0.0000 1713.8857 -7503.0217 291.4723 -9216.9074 -7499.9290 300.4780 -587.2490 -570.8647 30317.7797 4.1420 4.2653
ENERGY: 1500000 3.5417 2.6108 0.4247 0.0000 -10648.3765 1401.0733 0.0000 0.0000 1792.3324 -7448.3935 304.8133 -9240.7259 -7444.1544 299.9574 -169.7613 -122.9663 30660.3398 2.6076 2.6036
ENERGY: 1700000 1.6816 2.1495 2.6472 0.0000 -10689.6190 1432.4446 0.0000 0.0000 1731.6942 -7519.0019 294.5009 -9250.6962 -7514.7025 300.3259 70.0009 104.9895 30525.2375 3.2291 3.2559
ENERGY: 1900000 4.3590 2.9167 2.0459 0.0000 -10666.4021 1380.6987 0.0000 0.0000 1745.6745 -7530.7074 296.8785 -9276.3819 -7525.7491 299.3663 -83.2377 -59.5452 30220.2472 3.9381 3.9201
TCL: Exiting due to exit command.
