Info: SIMULATION PARAMETERS:
Info: TIMESTEP               2
Info: NUMBER OF STEPS        0
Info: STEPS PER CYCLE        10
Info: PERIODIC CELL BASIS 1  31.028 0 0
Info: PERIODIC CELL BASIS 2  0 30.3841 0
Info: PERIODIC CELL BASIS 3  0 0 32.1038
Info: PERIODIC CELL CENTER   0 0 0
Info: WRAPPING WATERS AROUND PERIODIC BOUNDARIES ON OUTPUT.
Info: WRAPPING ALL CLUSTERS AROUND PERIODIC BOUNDARIES ON OUTPUT.
Info: FIRST LDB TIMESTEP     50
Info: LAST LDB TIMESTEP     -1
Info: HOM BACKGROUND SCALING 1
Info: PME BACKGROUND SCALING 1
Info: MIN ATOMS PER PATCH    40
Info: EMPTY PATCH LOAD       40 ATOMS
Info: VELOCITY FILE          mobley_664966_equil.vel
Info: CENTER OF MASS MOVING INITIALLY? NO
Info: DIELECTRIC             1
Info: EXCLUDE                SCALED ONE-FOUR
Info: 1-4 ELECTROSTATICS SCALED BY 0.833333
Info: MODIFIED 1-4 VDW PARAMETERS WILL BE USED
Info: DCD FILENAME           mobley_664966_prod.dcd
Info: DCD FREQUENCY          100000
Info: DCD FIRST STEP         100000
Info: DCD FILE WILL CONTAIN UNIT CELL DATA
Info: XST FILENAME           mobley_664966_prod.xst
Info: XST FREQUENCY          100000
Info: NO VELOCITY DCD OUTPUT
Info: NO FORCE DCD OUTPUT
Info: OUTPUT FILENAME        mobley_664966_prod
Info: BINARY OUTPUT FILES WILL BE USED
Info: RESTART FILENAME       mobley_664966_prod.restart
Info: RESTART FREQUENCY      100000
Info: BINARY RESTART FILES WILL BE USED
Info: CUTOFF                 9
Info: PAIRLIST DISTANCE      11
Info: PAIRLIST SHRINK RATE   0.01
Info: PAIRLIST GROW RATE     0.01
Info: PAIRLIST TRIGGER       0.3
Info: PAIRLISTS PER CYCLE    2
Info: PAIRLISTS ENABLED
Info: MARGIN                 2
Info: HYDROGEN GROUP CUTOFF  2.5
Info: PATCH DIMENSION        15.5
Info: ENERGY OUTPUT STEPS    100000
Info: ENERGY EVALUATION STEPS    100000
Info: OUTPUT ENERGY PRECISION 4
Info: CROSSTERM ENERGY INCLUDED IN DIHEDRAL
Info: TIMING OUTPUT STEPS    1000000
Info: PRESSURE OUTPUT STEPS  100000
Info: ALCHEMICAL FEP ON
Info: FEP CURRENT LAMBDA VALUE     1
Info: FEP COMPARISON LAMBDA VALUE  0.95
Info: FEP INTRA-ALCHEMICAL NON-BONDED INTERACTIONS WILL BE RETAINED
Info: FEP INTRA-ALCHEMICAL BONDED INTERACTIONS WILL BE RETAINED
Info: FEP VDW SHIFTING COEFFICIENT 5
Info: FEP ELEC. ACTIVE FOR ANNIHILATED PARTICLES BETWEEN LAMBDA = 0 AND LAMBDA = 0.5
Info: FEP ELEC. ACTIVE FOR EXNIHILATED PARTICLES BETWEEN LAMBDA = 0.5 AND LAMBDA = 1
Info: FEP VDW ACTIVE FOR ANNIHILATED PARTICLES BETWEEN LAMBDA = 0 AND LAMBDA = 1
Info: FEP VDW ACTIVE FOR EXNIHILATED PARTICLES BETWEEN LAMBDA = 0 AND LAMBDA = 1
Info: FEP BOND ACTIVE FOR ANNIHILATED PARTICLES BETWEEN LAMBDA = 1 AND LAMBDA = 1
Info: FEP BOND ACTIVE FOR EXNIHILATED PARTICLES BETWEEN LAMBDA = 0 AND LAMBDA = 0
Info: LANGEVIN DYNAMICS ACTIVE
Info: LANGEVIN TEMPERATURE   300
Info: LANGEVIN USING BBK INTEGRATOR
Info: LANGEVIN DAMPING COEFFICIENT IS 1 INVERSE PS
Info: LANGEVIN DYNAMICS APPLIED TO HYDROGENS
Info: LANGEVIN PISTON PRESSURE CONTROL ACTIVE
Info:        TARGET PRESSURE IS 1.01325 BAR
Info:     OSCILLATION PERIOD IS 50 FS
Info:             DECAY TIME IS 25 FS
Info:     PISTON TEMPERATURE IS 300 K
Info:       PRESSURE CONTROL IS GROUP-BASED
Info:    INITIAL STRAIN RATE IS -0.00037758 -0.00037758 -0.00037758
Info:       CELL FLUCTUATION IS ISOTROPIC
Info: PARTICLE MESH EWALD (PME) ACTIVE
Info: PME TOLERANCE               1e-06
Info: PME EWALD COEFFICIENT       0.348832
Info: PME INTERPOLATION ORDER     4
Info: PME GRID DIMENSIONS         32 32 36
Info: PME MAXIMUM GRID SPACING    1
Info: PME CALCULATION WILL BE PERFORMED ON GPU
Info: FULL ELECTROSTATIC EVALUATION FREQUENCY      2
Info: USING VERLET I (r-RESPA) MTS SCHEME.
Info: C1 SPLITTING OF LONG RANGE ELECTROSTATICS
Info: PLACING ATOMS IN PATCHES BY HYDROGEN GROUPS
Info: RIGID BONDS TO HYDROGEN : ALL
Info:         ERROR TOLERANCE : 1e-08
Info:          MAX ITERATIONS : 100
Info: RIGID WATER USING SETTLE ALGORITHM
Info: RANDOM NUMBER SEED     1743482841
Info: USE HYDROGEN BONDS?    NO
Info: Using AMBER format force field!
Info: AMBER PARM FILE        mobley_664966.prmtop
Info: COORDINATE PDB         mobley_664966.pdb
Info: Exclusions will be read from PARM file!
Info: SCNB (VDW SCALING)     2
Info: USING ARITHMETIC MEAN TO COMBINE L-J SIGMA PARAMETERS
Info: BINARY COORDINATES     mobley_664966_equil.coor
Info: SUMMARY OF PARAMETERS:
Info: 4 BONDS
Info: 3 ANGLES
Info:   3 HARMONIC
Info:   0 COSINE-BASED
Info: 0 DIHEDRAL
Info: 0 IMPROPER
Info: 0 CROSSTERM
Info: 0 VDW
Info: 15 VDW_PAIRS
Info: 0 NBTHOLE_PAIRS
Info: To read alchdata from file: mobley_664966.pdb
Info: To read alchflag data from column: 5
Info: STRUCTURE SUMMARY:
Info: 2933 ATOMS
Info: 2932 BONDS
Info: 6 ANGLES
Info: 0 DIHEDRALS
Info: 0 IMPROPERS
Info: 0 CROSSTERMS
Info: 2938 EXCLUSIONS
Info: 2930 RIGID BONDS
Info: ALCH: 0 ATOMS TO DISAPPEAR IN FINAL STATE
Info: ALCH: 5 ATOMS TO APPEAR IN FINAL STATE
Info: 5869 DEGREES OF FREEDOM
Info: 979 HYDROGEN GROUPS
Info: 3 ATOMS IN LARGEST HYDROGEN GROUP
Info: 979 MIGRATION GROUPS
Info: 3 ATOMS IN LARGEST MIGRATION GROUP
Info: TOTAL MASS = 17851.4 amu
Info: TOTAL CHARGE = -0.000200003 e
Info: MASS DENSITY = 0.979434 g/cm^3
Info: ATOM DENSITY = 0.0969069 atoms/A^3
Info: ADDED 0 IMPLICIT EXCLUSIONS
Info: NONBONDED TABLE R-SQUARED SPACING: 0.0625
Info: NONBONDED TABLE SIZE: 705 POINTS
Info: REMOVING COM VELOCITY 0.0199828 0.109752 -0.0904295
Info: Use 3D box decompostion in PME FFT.
Info: Updated CUDA force table with 4096 elements.
Info: Updated CUDA LJ table with 5 x 5 elements.
Info: Found 8 unique exclusion lists needing 8 bytes
TCL: Running for 1500000 steps
ETITLE: TS BOND ANGLE DIHED IMPRP ELECT VDW BOUNDARY MISC KINETIC TOTAL TEMP POTENTIAL TOTALAVG TEMPAVG PRESSURE GPRESSURE VOLUME PRESSAVG GPRESSAVG
ENERGY: 0 0.5480 1.2424 0.0000 0.0000 -10652.1862 1396.4564 0.0000 0.0000 1720.0751 -7533.8643 294.9672 -9253.9394 -7533.8643 294.9672 -286.4224 -210.9401 30266.1659 -286.4224 -210.9401
ENERGY: 300000 0.1411 1.6242 0.0000 0.0000 -10772.2377 1496.3279 0.0000 0.0000 1722.5419 -7551.6027 295.3902 -9274.1445 -7498.1891 298.3373 411.2469 481.9878 29997.6793 -352.3093 -301.4903
ENERGY: 600000 0.6578 1.7791 0.0000 0.0000 -10610.4656 1391.8662 0.0000 0.0000 1764.6766 -7451.4858 302.6157 -9216.1624 -7490.7275 300.7491 -162.3005 -177.3546 30372.0903 -338.6900 -290.0345
ENERGY: 900000 0.0599 1.4321 0.0000 0.0000 -10700.1738 1492.1667 0.0000 0.0000 1726.6131 -7479.9020 296.0883 -9206.5151 -7490.7268 299.9048 850.4897 906.7067 29673.7316 -195.4997 -140.0877
ENERGY: 1200000 0.3398 1.0010 0.0000 0.0000 -10607.5956 1431.0932 0.0000 0.0000 1722.0479 -7453.1137 295.3055 -9175.1616 -7495.3075 299.0964 83.5780 130.7990 30451.5500 -151.8610 -97.2021
ENERGY: 1500000 0.2218 2.9146 0.0000 0.0000 -10537.8447 1374.2244 0.0000 0.0000 1742.5171 -7417.9667 298.8156 -9160.4838 -7484.9421 299.6314 -315.3542 -263.7433 30566.7334 -99.4649 -41.8241
TCL: Running FEP window   2: Lambda1 0.95   Lambda2 0.8999999999999999 [dLambda -0.050000000000000044]
TCL: Setting parameter firsttimestep to 0
TCL: Setting parameter alchLambda to 0.95
Info: NONBONDED TABLE R-SQUARED SPACING: 0.0625
Info: NONBONDED TABLE SIZE: 705 POINTS
TCL: Setting parameter alchLambda2 to 0.8999999999999999
Info: NONBONDED TABLE R-SQUARED SPACING: 0.0625
Info: NONBONDED TABLE SIZE: 705 POINTS
TCL: Running for 1500000 steps
ETITLE: TS BOND ANGLE DIHED IMPRP ELECT VDW BOUNDARY MISC KINETIC TOTAL TEMP POTENTIAL TOTALAVG TEMPAVG PRESSURE GPRESSURE VOLUME PRESSAVG GPRESSAVG
ENERGY: 0 0.2218 2.9146 0.0000 0.0000 -10537.2422 1374.5588 0.0000 0.0000 1741.6561 -7417.8908 298.6680 -9159.5469 -7417.8908 298.6680 -351.0308 -267.7181 30566.7334 -351.0308 -267.7181
ENERGY: 300000 0.2688 2.9815 0.0000 0.0000 -10625.6223 1383.1558 0.0000 0.0000 1690.6443 -7548.5719 289.9202 -9239.2163 -7519.7340 295.4230 -505.0985 -441.9301 30381.2310 -55.8647 -15.7932
ENERGY: 600000 0.6107 2.3243 0.0000 0.0000 -10606.3823 1424.3604 0.0000 0.0000 1766.8791 -7412.2078 302.9934 -9179.0869 -7490.0514 296.6091 67.2206 194.8202 30391.7142 -94.8592 -44.0416
ENERGY: 900000 0.1698 1.3746 0.0000 0.0000 -10633.1459 1406.1053 0.0000 0.0000 1758.8875 -7466.6087 301.6229 -9225.4962 -7485.5854 296.8890 122.2848 213.2776 29741.9306 -130.5595 -76.3358
ENERGY: 1200000 0.1305 1.7190 0.0000 0.0000 -10599.5709 1415.7702 0.0000 0.0000 1722.0716 -7459.8796 295.3095 -9181.9512 -7480.4945 296.6149 -19.5454 105.4257 30226.9751 -141.5904 -85.2753
ENERGY: 1500000 0.5650 3.4588 0.0000 0.0000 -10710.5246 1477.3351 0.0000 0.0000 1749.3210 -7479.8448 299.9824 -9229.1658 -7480.4415 296.7572 469.7119 519.6110 30134.6673 -100.1348 -34.3469
TCL: Running FEP window   3: Lambda1 0.8999999999999999 Lambda2 0.8499999999999999 [dLambda -0.050000000000000044]
TCL: Setting parameter firsttimestep to 0
TCL: Setting parameter alchLambda to 0.8999999999999999
Info: NONBONDED TABLE R-SQUARED SPACING: 0.0625
Info: NONBONDED TABLE SIZE: 705 POINTS
TCL: Setting parameter alchLambda2 to 0.8499999999999999
Info: NONBONDED TABLE R-SQUARED SPACING: 0.0625
Info: NONBONDED TABLE SIZE: 705 POINTS
TCL: Running for 1500000 steps
ETITLE: TS BOND ANGLE DIHED IMPRP ELECT VDW BOUNDARY MISC KINETIC TOTAL TEMP POTENTIAL TOTALAVG TEMPAVG PRESSURE GPRESSURE VOLUME PRESSAVG GPRESSAVG
ENERGY: 0 0.5650 3.4588 0.0000 0.0000 -10710.1258 1477.6876 0.0000 0.0000 1748.4349 -7479.9796 299.8305 -9228.4145 -7479.9796 299.8305 433.4311 515.2082 30134.6673 433.4311 515.2082
ENERGY: 300000 0.7718 1.1453 0.0000 0.0000 -10615.9889 1424.5762 0.0000 0.0000 1757.8515 -7431.6440 301.4453 -9189.4956 -7436.7245 302.2981 -37.3485 41.7711 30575.5127 -89.0279 -30.6082
ENERGY: 600000 0.5302 2.8758 0.0000 0.0000 -10679.1732 1458.8192 0.0000 0.0000 1701.9321 -7515.0159 291.8559 -9216.9480 -7451.2737 302.1032 317.4684 363.9671 30004.6848 -69.7392 -16.2508
ENERGY: 900000 1.1821 0.6586 0.0000 0.0000 -10632.7650 1411.9209 0.0000 0.0000 1785.1871 -7433.8163 306.1329 -9219.0035 -7469.3353 300.5837 -152.4320 -42.2497 30327.9612 -83.2077 -9.6584
ENERGY: 1200000 0.0550 1.6671 0.0000 0.0000 -10621.7527 1427.9974 0.0000 0.0000 1792.8507 -7399.1825 307.4471 -9192.0332 -7453.6017 302.4307 118.2533 169.6066 30138.3929 -115.0695 -46.6037
ENERGY: 1500000 0.0929 1.5044 0.0000 0.0000 -10643.2653 1404.1246 0.0000 0.0000 1732.7753 -7504.7681 297.1451 -9237.5434 -7459.6631 301.1755 -197.6672 -172.9238 30189.8277 -152.6328 -88.0632
TCL: Running FEP window   4: Lambda1 0.8499999999999999 Lambda2 0.7999999999999998 [dLambda -0.050000000000000044]
TCL: Setting parameter firsttimestep to 0
TCL: Setting parameter alchLambda to 0.8499999999999999
Info: NONBONDED TABLE R-SQUARED SPACING: 0.0625
Info: NONBONDED TABLE SIZE: 705 POINTS
TCL: Setting parameter alchLambda2 to 0.7999999999999998
Info: NONBONDED TABLE R-SQUARED SPACING: 0.0625
Info: NONBONDED TABLE SIZE: 705 POINTS
TCL: Running for 1500000 steps
ETITLE: TS BOND ANGLE DIHED IMPRP ELECT VDW BOUNDARY MISC KINETIC TOTAL TEMP POTENTIAL TOTALAVG TEMPAVG PRESSURE GPRESSURE VOLUME PRESSAVG GPRESSAVG
ENERGY: 0 0.0929 1.5044 0.0000 0.0000 -10642.9491 1404.3877 0.0000 0.0000 1731.9330 -7505.0311 297.0006 -9236.9641 -7505.0311 297.0006 -265.8752 -178.6824 30189.8277 -265.8752 -178.6824
ENERGY: 300000 1.9497 1.8686 0.0000 0.0000 -10443.7661 1275.3684 0.0000 0.0000 1795.6615 -7368.9179 307.9291 -9164.5794 -7455.3032 301.2459 -1011.8370 -973.3413 30890.7360 -375.7242 -325.0106
ENERGY: 600000 0.4633 2.6652 0.0000 0.0000 -10565.9753 1373.1632 0.0000 0.0000 1749.8414 -7439.8421 300.0716 -9189.6835 -7475.7464 298.2019 -442.2834 -367.1703 30282.5930 -283.6898 -234.7805
ENERGY: 900000 0.0539 2.3125 0.0000 0.0000 -10470.2400 1359.9029 0.0000 0.0000 1820.9563 -7287.0144 312.2668 -9107.9707 -7452.7414 298.9461 -218.2082 -187.4753 30498.4614 -219.9277 -184.8879
ENERGY: 1200000 0.6257 3.9568 0.0000 0.0000 -10693.2642 1438.5741 0.0000 0.0000 1730.4048 -7519.7027 296.7386 -9250.1075 -7453.4062 299.1263 -319.4381 -230.4971 30878.4101 -269.7219 -227.0688
ENERGY: 1500000 0.1121 1.3614 0.0000 0.0000 -10575.9379 1362.1244 0.0000 0.0000 1757.0397 -7455.3004 301.3060 -9212.3401 -7469.0356 299.1883 -416.1327 -364.8858 30008.7924 -221.7298 -180.2411
TCL: Running FEP window   5: Lambda1 0.7999999999999998 Lambda2 0.7499999999999998 [dLambda -0.050000000000000044]
TCL: Setting parameter firsttimestep to 0
TCL: Setting parameter alchLambda to 0.7999999999999998
Info: NONBONDED TABLE R-SQUARED SPACING: 0.0625
Info: NONBONDED TABLE SIZE: 705 POINTS
TCL: Setting parameter alchLambda2 to 0.7499999999999998
Info: NONBONDED TABLE R-SQUARED SPACING: 0.0625
Info: NONBONDED TABLE SIZE: 705 POINTS
TCL: Running for 1500000 steps
ETITLE: TS BOND ANGLE DIHED IMPRP ELECT VDW BOUNDARY MISC KINETIC TOTAL TEMP POTENTIAL TOTALAVG TEMPAVG PRESSURE GPRESSURE VOLUME PRESSAVG GPRESSAVG
ENERGY: 0 0.1121 1.3614 0.0000 0.0000 -10575.3303 1362.4616 0.0000 0.0000 1756.1668 -7455.2284 301.1564 -9211.3952 -7455.2284 301.1564 -452.0771 -369.1505 30008.7924 -452.0771 -369.1505
ENERGY: 300000 0.1794 0.8374 0.0000 0.0000 -10663.2119 1416.3186 0.0000 0.0000 1760.1178 -7485.7586 301.8339 -9245.8764 -7456.1398 305.8462 -119.0933 -30.7583 30163.3453 -62.2618 37.3830
ENERGY: 600000 0.7092 2.5670 0.0000 0.0000 -10766.5751 1491.8611 0.0000 0.0000 1768.0165 -7503.4213 303.1884 -9271.4378 -7455.3849 303.8093 475.6405 531.3642 29717.1650 -94.3741 -8.0593
ENERGY: 900000 0.2193 2.2668 0.0000 0.0000 -10636.5059 1445.6548 0.0000 0.0000 1788.7173 -7399.6478 306.7383 -9188.3651 -7450.9950 304.4407 360.3819 398.7990 30107.2157 -20.0867 58.2907
ENERGY: 1200000 0.3287 0.8782 0.0000 0.0000 -10672.9337 1436.4967 0.0000 0.0000 1754.2599 -7480.9703 300.8293 -9235.2301 -7456.6050 303.0632 12.1851 87.4870 30137.5178 -44.2993 28.1917
ENERGY: 1500000 1.2362 0.9800 0.0000 0.0000 -10545.4408 1396.9729 0.0000 0.0000 1721.8575 -7424.3942 295.2728 -9146.2517 -7459.0398 301.2734 130.6020 180.3726 30194.2069 -55.9875 18.2082
TCL: Running FEP window   6: Lambda1 0.7499999999999998 Lambda2 0.6999999999999997 [dLambda -0.050000000000000044]
TCL: Setting parameter firsttimestep to 0
TCL: Setting parameter alchLambda to 0.7499999999999998
Info: NONBONDED TABLE R-SQUARED SPACING: 0.0625
Info: NONBONDED TABLE SIZE: 705 POINTS
TCL: Setting parameter alchLambda2 to 0.6999999999999997
Info: NONBONDED TABLE R-SQUARED SPACING: 0.0625
Info: NONBONDED TABLE SIZE: 705 POINTS
TCL: Running for 1500000 steps
ETITLE: TS BOND ANGLE DIHED IMPRP ELECT VDW BOUNDARY MISC KINETIC TOTAL TEMP POTENTIAL TOTALAVG TEMPAVG PRESSURE GPRESSURE VOLUME PRESSAVG GPRESSAVG
ENERGY: 0 1.2362 0.9800 0.0000 0.0000 -10545.5498 1397.3259 0.0000 0.0000 1721.0123 -7424.9955 295.1279 -9146.0078 -7424.9955 295.1279 94.1957 177.5766 30194.2069 94.1957 177.5766
ENERGY: 300000 0.2251 1.1163 0.0000 0.0000 -10726.8041 1482.0398 0.0000 0.0000 1823.3559 -7420.0670 312.6783 -9243.4229 -7464.9960 300.1024 332.8204 379.7427 30404.9609 194.8552 268.6811
ENERGY: 600000 0.0326 1.2104 0.0000 0.0000 -10707.5304 1390.1460 0.0000 0.0000 1773.3964 -7542.7450 304.1110 -9316.1414 -7480.0714 299.5891 -445.9276 -381.5038 29954.2525 -123.0558 -50.9956
ENERGY: 900000 1.4298 0.7729 0.0000 0.0000 -10704.4432 1460.9051 0.0000 0.0000 1714.1526 -7527.1827 293.9515 -9241.3353 -7486.8804 297.9766 317.6631 378.7013 30064.6440 -70.6090 -2.2596
ENERGY: 1200000 0.9783 1.6063 0.0000 0.0000 -10662.4365 1393.2746 0.0000 0.0000 1749.7076 -7516.8698 300.0487 -9266.5774 -7493.2576 299.3591 -291.5780 -260.4864 29719.6529 -31.8866 26.3303
ENERGY: 1500000 0.1613 1.1942 0.0000 0.0000 -10677.1746 1458.1057 0.0000 0.0000 1787.4027 -7430.3107 306.5129 -9217.7134 -7481.2230 300.3749 364.4428 398.4664 30098.8842 -21.5786 41.7016
TCL: Running FEP window   7: Lambda1 0.6999999999999997 Lambda2 0.6499999999999997 [dLambda -0.050000000000000044]
TCL: Setting parameter firsttimestep to 0
TCL: Setting parameter alchLambda to 0.6999999999999997
Info: NONBONDED TABLE R-SQUARED SPACING: 0.0625
Info: NONBONDED TABLE SIZE: 705 POINTS
TCL: Setting parameter alchLambda2 to 0.6499999999999997
Info: NONBONDED TABLE R-SQUARED SPACING: 0.0625
Info: NONBONDED TABLE SIZE: 705 POINTS
TCL: Running for 1500000 steps
ETITLE: TS BOND ANGLE DIHED IMPRP ELECT VDW BOUNDARY MISC KINETIC TOTAL TEMP POTENTIAL TOTALAVG TEMPAVG PRESSURE GPRESSURE VOLUME PRESSAVG GPRESSAVG
ENERGY: 0 0.1613 1.1942 0.0000 0.0000 -10676.8991 1458.3816 0.0000 0.0000 1786.5469 -7430.6152 306.3661 -9217.1621 -7430.6152 306.3661 312.4075 396.9536 30098.8842 312.4075 396.9536
ENERGY: 300000 0.1474 3.4719 0.0000 0.0000 -10721.7307 1497.3829 0.0000 0.0000 1811.3286 -7409.3999 310.6158 -9220.7285 -7411.9673 307.6536 230.4184 357.2395 30634.3476 -42.7334 50.7940
ENERGY: 600000 1.0728 2.6329 0.0000 0.0000 -10723.0803 1440.1401 0.0000 0.0000 1822.2979 -7456.9366 312.4969 -9279.2345 -7435.5287 307.5492 346.2805 484.2508 29514.7888 -34.5773 54.5299
ENERGY: 900000 0.0915 1.4668 0.0000 0.0000 -10801.2073 1536.5222 0.0000 0.0000 1724.9938 -7538.1330 295.8107 -9263.1268 -7453.2760 304.4012 685.8269 789.3861 29876.1829 189.3239 271.8289
ENERGY: 1200000 0.1939 2.0746 0.0000 0.0000 -10582.1338 1390.8698 0.0000 0.0000 1750.3330 -7438.6624 300.1560 -9188.9954 -7479.5543 302.0538 -361.2299 -229.3374 30441.9043 35.1632 123.6873
ENERGY: 1500000 0.3066 1.3606 0.0000 0.0000 -10629.7565 1368.6120 0.0000 0.0000 1690.9069 -7568.5704 289.9653 -9259.4773 -7483.4220 301.1231 -719.7219 -684.7043 30543.6570 -76.9984 2.4994
TCL: Running FEP window   8: Lambda1 0.6499999999999997 Lambda2 0.5999999999999996 [dLambda -0.050000000000000044]
TCL: Setting parameter firsttimestep to 0
TCL: Setting parameter alchLambda to 0.6499999999999997
Info: NONBONDED TABLE R-SQUARED SPACING: 0.0625
Info: NONBONDED TABLE SIZE: 705 POINTS
TCL: Setting parameter alchLambda2 to 0.5999999999999996
Info: NONBONDED TABLE R-SQUARED SPACING: 0.0625
Info: NONBONDED TABLE SIZE: 705 POINTS
TCL: Running for 1500000 steps
ETITLE: TS BOND ANGLE DIHED IMPRP ELECT VDW BOUNDARY MISC KINETIC TOTAL TEMP POTENTIAL TOTALAVG TEMPAVG PRESSURE GPRESSURE VOLUME PRESSAVG GPRESSAVG
ENERGY: 0 0.3066 1.3606 0.0000 0.0000 -10629.6648 1368.4672 0.0000 0.0000 1689.9799 -7569.5506 289.8063 -9259.5304 -7569.5506 289.8063 -763.7861 -696.0084 30543.6570 -763.7861 -696.0084
ENERGY: 300000 3.0593 3.0527 0.0000 0.0000 -10859.0341 1562.9551 0.0000 0.0000 1762.1104 -7527.8566 302.1756 -9289.9670 -7510.7049 301.2668 882.6375 881.5023 30081.7481 114.8184 164.4904
ENERGY: 600000 0.0212 1.6486 0.0000 0.0000 -10580.0249 1413.7419 0.0000 0.0000 1723.0633 -7441.5498 295.4796 -9164.6131 -7486.8925 300.2716 63.0932 98.6573 30194.9026 14.9905 70.6540
ENERGY: 900000 0.0573 0.8404 0.0000 0.0000 -10656.7853 1413.9875 0.0000 0.0000 1817.3648 -7424.5352 311.6509 -9241.9001 -7486.7204 301.1758 -92.7847 7.4864 30197.4819 44.9603 93.5379
ENERGY: 1200000 0.6851 2.4446 0.0000 0.0000 -10575.0600 1364.2508 0.0000 0.0000 1731.2771 -7476.4024 296.8881 -9207.6795 -7482.0403 300.6121 -743.6885 -688.6759 30845.1699 83.3128 129.8582
ENERGY: 1500000 0.0549 2.4092 0.0000 0.0000 -10758.8637 1514.4685 0.0000 0.0000 1805.7060 -7436.2252 309.6516 -9241.9312 -7472.0845 302.0044 748.6365 828.3898 29853.1403 114.4866 162.9292
TCL: Running FEP window   9: Lambda1 0.5999999999999996 Lambda2 0.5499999999999996 [dLambda -0.050000000000000044]
TCL: Setting parameter firsttimestep to 0
TCL: Setting parameter alchLambda to 0.5999999999999996
Info: NONBONDED TABLE R-SQUARED SPACING: 0.0625
Info: NONBONDED TABLE SIZE: 705 POINTS
TCL: Setting parameter alchLambda2 to 0.5499999999999996
Info: NONBONDED TABLE R-SQUARED SPACING: 0.0625
Info: NONBONDED TABLE SIZE: 705 POINTS
TCL: Running for 1500000 steps
ETITLE: TS BOND ANGLE DIHED IMPRP ELECT VDW BOUNDARY MISC KINETIC TOTAL TEMP POTENTIAL TOTALAVG TEMPAVG PRESSURE GPRESSURE VOLUME PRESSAVG GPRESSAVG
ENERGY: 0 0.0549 2.4092 0.0000 0.0000 -10758.2289 1514.2748 0.0000 0.0000 1804.8185 -7436.6715 309.4994 -9241.4900 -7436.6715 309.4994 734.2388 819.3090 29853.1403 734.2388 819.3090
ENERGY: 300000 0.6283 2.1556 0.0000 0.0000 -10685.7468 1470.2406 0.0000 0.0000 1748.8887 -7463.8337 299.9083 -9212.7224 -7474.6634 303.4022 254.4520 305.7424 30474.0023 124.6672 198.3749
ENERGY: 600000 2.0429 0.6763 0.0000 0.0000 -10525.0836 1321.8434 0.0000 0.0000 1758.3931 -7442.1278 301.5381 -9200.5210 -7465.6883 300.2354 -528.3302 -518.5183 30083.7091 34.9457 109.9868
ENERGY: 900000 0.6116 1.0956 0.0000 0.0000 -10739.0712 1499.9441 0.0000 0.0000 1727.3764 -7510.0435 296.2192 -9237.4199 -7469.8523 300.3501 368.0014 450.3920 30257.7298 -23.7485 53.3263
ENERGY: 1200000 0.9400 1.8571 0.0000 0.0000 -10692.8311 1411.1066 0.0000 0.0000 1745.5650 -7533.3625 299.3383 -9278.9275 -7487.2874 299.9750 -375.7128 -348.1212 30330.5754 -15.0942 54.7551
ENERGY: 1500000 0.1923 1.3482 0.0000 0.0000 -10758.0697 1472.1411 0.0000 0.0000 1745.4644 -7538.9237 299.3211 -9284.3882 -7497.9719 299.2740 237.8546 292.5398 30070.6330 16.0530 83.4411
TCL: Running FEP window  10: Lambda1 0.5499999999999996 Lambda2 0.4999999999999996 [dLambda -0.04999999999999999]
TCL: Setting parameter firsttimestep to 0
TCL: Setting parameter alchLambda to 0.5499999999999996
Info: NONBONDED TABLE R-SQUARED SPACING: 0.0625
Info: NONBONDED TABLE SIZE: 705 POINTS
TCL: Setting parameter alchLambda2 to 0.4999999999999996
Info: NONBONDED TABLE R-SQUARED SPACING: 0.0625
Info: NONBONDED TABLE SIZE: 705 POINTS
TCL: Running for 1500000 steps
ETITLE: TS BOND ANGLE DIHED IMPRP ELECT VDW BOUNDARY MISC KINETIC TOTAL TEMP POTENTIAL TOTALAVG TEMPAVG PRESSURE GPRESSURE VOLUME PRESSAVG GPRESSAVG
ENERGY: 0 0.1923 1.3482 0.0000 0.0000 -10757.6039 1472.5087 0.0000 0.0000 1744.6303 -7538.9243 299.1780 -9283.5546 -7538.9243 299.1780 221.3435 290.2018 30070.6330 221.3435 290.2018
ENERGY: 300000 0.7074 2.7564 0.0000 0.0000 -10672.6491 1467.6917 0.0000 0.0000 1769.2683 -7432.2253 303.4031 -9201.4936 -7473.4819 303.3229 680.5201 677.7986 29666.1192 249.2631 301.1791
ENERGY: 600000 0.1190 1.1843 0.0000 0.0000 -10676.5407 1407.5782 0.0000 0.0000 1708.8023 -7558.8570 293.0341 -9267.6593 -7493.8609 298.7602 -343.5472 -286.2578 30087.7674 -81.9064 -19.7050
ENERGY: 900000 0.1838 2.8832 0.0000 0.0000 -10679.8896 1442.4720 0.0000 0.0000 1747.0900 -7487.2605 299.5998 -9234.3505 -7496.7178 299.6259 -67.2584 6.8232 30433.2847 -143.0369 -79.5717
ENERGY: 1200000 0.6255 1.9099 0.0000 0.0000 -10771.2648 1487.5680 0.0000 0.0000 1738.8638 -7542.2976 298.1892 -9281.1614 -7500.0694 299.4774 166.7582 223.6679 30332.4029 -74.8844 -8.5289
ENERGY: 1500000 0.4825 1.3640 0.0000 0.0000 -10519.2099 1376.0111 0.0000 0.0000 1797.8857 -7343.4666 308.3105 -9141.3523 -7499.7407 299.4339 -426.3585 -412.1428 30739.2597 -110.9403 -50.1625
TCL: Running FEP window  11: Lambda1 0.4999999999999996 Lambda2 0.4499999999999996 [dLambda -0.04999999999999999]
TCL: Setting parameter firsttimestep to 0
TCL: Setting parameter alchLambda to 0.4999999999999996
Info: NONBONDED TABLE R-SQUARED SPACING: 0.0625
Info: NONBONDED TABLE SIZE: 705 POINTS
TCL: Setting parameter alchLambda2 to 0.4499999999999996
Info: NONBONDED TABLE R-SQUARED SPACING: 0.0625
Info: NONBONDED TABLE SIZE: 705 POINTS
TCL: Running for 1500000 steps
ETITLE: TS BOND ANGLE DIHED IMPRP ELECT VDW BOUNDARY MISC KINETIC TOTAL TEMP POTENTIAL TOTALAVG TEMPAVG PRESSURE GPRESSURE VOLUME PRESSAVG GPRESSAVG
ENERGY: 0 0.4825 1.3640 0.0000 0.0000 -10519.1526 1375.8516 0.0000 0.0000 1796.9936 -7344.4609 308.1575 -9141.4545 -7344.4609 308.1575 -498.6433 -418.5504 30739.2597 -498.6433 -418.5504
ENERGY: 300000 0.5870 1.5838 0.0000 0.0000 -10644.3422 1457.7446 0.0000 0.0000 1838.6050 -7345.8218 315.2933 -9184.4268 -7418.0817 304.0179 256.3381 316.2317 30632.8213 -112.8429 -43.3957
ENERGY: 600000 0.3610 0.9319 0.0000 0.0000 -10587.1702 1365.5447 0.0000 0.0000 1725.7128 -7494.6198 295.9340 -9220.3326 -7470.2583 301.2246 -460.2009 -429.5629 30200.5055 -146.5734 -76.1967
ENERGY: 900000 0.0023 2.7966 0.0000 0.0000 -10710.5264 1447.0932 0.0000 0.0000 1711.7787 -7548.8556 293.5445 -9260.6343 -7474.4753 300.9839 291.4616 281.2050 29587.9763 -206.1291 -148.6670
ENERGY: 1200000 0.2664 3.6683 0.0000 0.0000 -10718.1783 1503.2613 0.0000 0.0000 1733.0282 -7477.9541 297.1884 -9210.9823 -7482.5395 300.2456 613.2912 697.5721 30147.2879 -149.8379 -93.1748
ENERGY: 1500000 0.5604 1.1771 0.0000 0.0000 -10695.0322 1484.1508 0.0000 0.0000 1756.3380 -7452.8059 301.1857 -9209.1439 -7483.1639 299.8984 218.3054 293.6621 30521.4268 -94.7806 -33.6501
TCL: Running FEP window  12: Lambda1 0.4499999999999996 Lambda2 0.39999999999999963 [dLambda -0.04999999999999999]
TCL: Setting parameter firsttimestep to 0
TCL: Setting parameter alchLambda to 0.4499999999999996
Info: NONBONDED TABLE R-SQUARED SPACING: 0.0625
Info: NONBONDED TABLE SIZE: 705 POINTS
TCL: Setting parameter alchLambda2 to 0.39999999999999963
Info: NONBONDED TABLE R-SQUARED SPACING: 0.0625
Info: NONBONDED TABLE SIZE: 705 POINTS
TCL: Running for 1500000 steps
ETITLE: TS BOND ANGLE DIHED IMPRP ELECT VDW BOUNDARY MISC KINETIC TOTAL TEMP POTENTIAL TOTALAVG TEMPAVG PRESSURE GPRESSURE VOLUME PRESSAVG GPRESSAVG
ENERGY: 0 0.5604 1.1771 0.0000 0.0000 -10695.0305 1484.3076 0.0000 0.0000 1755.4483 -7453.5371 301.0331 -9208.9853 -7453.5371 301.0331 212.1551 289.9058 30521.4268 212.1551 289.9058
ENERGY: 300000 1.0498 2.9093 0.0000 0.0000 -10591.9267 1308.6086 0.0000 0.0000 1737.0929 -7542.2662 297.8855 -9279.3591 -7489.1102 303.2755 -1324.8522 -1234.4034 30484.2504 -168.0254 -116.6590
ENERGY: 600000 0.1760 1.9301 0.0000 0.0000 -10715.1736 1428.0090 0.0000 0.0000 1761.1368 -7523.9217 302.0086 -9285.0584 -7487.7020 301.8936 -513.8534 -424.9203 30452.1007 -246.9138 -185.8052
ENERGY: 900000 0.8703 4.9132 0.0000 0.0000 -10678.0236 1442.6727 0.0000 0.0000 1797.1221 -7432.4453 308.1796 -9229.5674 -7478.8421 302.3320 120.5528 260.1555 29806.1995 -240.2870 -170.3853
ENERGY: 1200000 0.4299 2.1670 0.0000 0.0000 -10605.5217 1389.5299 0.0000 0.0000 1803.5758 -7409.8190 309.2863 -9213.3948 -7476.9554 302.6905 -427.3767 -383.5278 30496.4350 -215.9107 -151.6271
ENERGY: 1500000 0.4350 3.2853 0.0000 0.0000 -10707.0576 1481.1945 0.0000 0.0000 1783.8228 -7438.3199 305.8989 -9222.1427 -7472.4701 302.9280 545.5670 614.7207 29864.7227 -152.8751 -90.8872
TCL: Running FEP window  13: Lambda1 0.39999999999999963 Lambda2 0.34999999999999964 [dLambda -0.04999999999999999]
TCL: Setting parameter firsttimestep to 0
TCL: Setting parameter alchLambda to 0.39999999999999963
Info: NONBONDED TABLE R-SQUARED SPACING: 0.0625
Info: NONBONDED TABLE SIZE: 705 POINTS
TCL: Setting parameter alchLambda2 to 0.34999999999999964
Info: NONBONDED TABLE R-SQUARED SPACING: 0.0625
Info: NONBONDED TABLE SIZE: 705 POINTS
TCL: Running for 1500000 steps
ETITLE: TS BOND ANGLE DIHED IMPRP ELECT VDW BOUNDARY MISC KINETIC TOTAL TEMP POTENTIAL TOTALAVG TEMPAVG PRESSURE GPRESSURE VOLUME PRESSAVG GPRESSAVG
ENERGY: 0 0.4350 3.2853 0.0000 0.0000 -10707.0576 1481.2876 0.0000 0.0000 1782.9523 -7439.0973 305.7497 -9222.0496 -7439.0973 305.7497 525.1707 612.4751 29864.7227 525.1707 612.4751
ENERGY: 300000 1.2666 1.0603 0.0000 0.0000 -10778.2221 1479.2539 0.0000 0.0000 1766.6773 -7529.9640 302.9588 -9296.6413 -7491.5250 302.9519 296.2148 378.0845 29866.1059 256.3305 339.2109
ENERGY: 600000 0.0417 2.7641 0.0000 0.0000 -10658.7570 1450.2877 0.0000 0.0000 1767.7176 -7437.9459 303.1372 -9205.6635 -7485.9843 303.0058 271.7624 304.5788 30226.3889 112.3226 169.5769
ENERGY: 900000 0.2556 2.0441 0.0000 0.0000 -10742.8321 1535.7455 0.0000 0.0000 1760.0874 -7444.6995 301.8287 -9204.7869 -7477.6574 301.5715 646.7044 687.4378 30262.0390 196.6564 253.7846
ENERGY: 1200000 0.0669 1.6228 0.0000 0.0000 -10743.2208 1516.9623 0.0000 0.0000 1767.3540 -7457.2149 303.0748 -9224.5688 -7464.3282 302.1385 851.7655 815.7211 29929.8983 212.7220 260.6722
ENERGY: 1500000 2.0483 2.4934 0.0000 0.0000 -10590.2551 1442.2773 0.0000 0.0000 1704.5494 -7438.8867 292.3048 -9143.4361 -7459.9908 301.5643 359.6369 405.6120 29896.1825 161.1461 213.6569
TCL: Running FEP window  14: Lambda1 0.34999999999999964 Lambda2 0.29999999999999966 [dLambda -0.04999999999999999]
TCL: Setting parameter firsttimestep to 0
TCL: Setting parameter alchLambda to 0.34999999999999964
Info: NONBONDED TABLE R-SQUARED SPACING: 0.0625
Info: NONBONDED TABLE SIZE: 705 POINTS
TCL: Setting parameter alchLambda2 to 0.29999999999999966
Info: NONBONDED TABLE R-SQUARED SPACING: 0.0625
Info: NONBONDED TABLE SIZE: 705 POINTS
TCL: Running for 1500000 steps
ETITLE: TS BOND ANGLE DIHED IMPRP ELECT VDW BOUNDARY MISC KINETIC TOTAL TEMP POTENTIAL TOTALAVG TEMPAVG PRESSURE GPRESSURE VOLUME PRESSAVG GPRESSAVG
ENERGY: 0 2.0483 2.4934 0.0000 0.0000 -10590.2543 1442.2029 0.0000 0.0000 1703.7115 -7439.7982 292.1611 -9143.5097 -7439.7982 292.1611 319.4445 399.1954 29896.1825 319.4445 399.1954
ENERGY: 300000 0.7695 1.1213 0.0000 0.0000 -10717.0291 1479.5572 0.0000 0.0000 1750.2899 -7485.2911 300.1486 -9235.5811 -7470.1324 297.1478 315.1446 353.3786 30176.4115 78.1829 146.2842
ENERGY: 600000 0.0144 1.3571 0.0000 0.0000 -10656.8423 1416.9556 0.0000 0.0000 1783.8525 -7454.6626 305.9040 -9238.5151 -7478.6496 298.9086 -212.5756 -55.9249 30182.8553 -23.5231 50.0531
ENERGY: 900000 0.1088 1.5465 0.0000 0.0000 -10734.8463 1489.4720 0.0000 0.0000 1712.4172 -7531.3017 293.6540 -9243.7190 -7489.7100 297.1985 672.5737 737.1566 29568.0221 134.8276 202.9335
ENERGY: 1200000 0.4745 2.1618 0.0000 0.0000 -10547.6351 1346.1868 0.0000 0.0000 1801.1378 -7397.6742 308.8682 -9198.8120 -7473.9465 298.6474 -449.8258 -510.1293 30207.6685 105.1737 159.4036
ENERGY: 1500000 0.7759 1.1079 0.0000 0.0000 -10788.2664 1487.5674 0.0000 0.0000 1725.9432 -7572.8720 295.9735 -9298.8151 -7486.3941 298.8816 -22.6259 -36.9701 30614.2776 74.1053 128.1439
TCL: Running FEP window  15: Lambda1 0.29999999999999966 Lambda2 0.24999999999999967 [dLambda -0.04999999999999999]
TCL: Setting parameter firsttimestep to 0
TCL: Setting parameter alchLambda to 0.29999999999999966
Info: NONBONDED TABLE R-SQUARED SPACING: 0.0625
Info: NONBONDED TABLE SIZE: 705 POINTS
TCL: Setting parameter alchLambda2 to 0.24999999999999967
Info: NONBONDED TABLE R-SQUARED SPACING: 0.0625
Info: NONBONDED TABLE SIZE: 705 POINTS
TCL: Running for 1500000 steps
ETITLE: TS BOND ANGLE DIHED IMPRP ELECT VDW BOUNDARY MISC KINETIC TOTAL TEMP POTENTIAL TOTALAVG TEMPAVG PRESSURE GPRESSURE VOLUME PRESSAVG GPRESSAVG
ENERGY: 0 0.7759 1.1079 0.0000 0.0000 -10788.2670 1487.4519 0.0000 0.0000 1725.0929 -7573.8384 295.8276 -9298.9313 -7573.8384 295.8276 -120.7153 -41.2305 30614.2776 -120.7153 -41.2305
ENERGY: 300000 1.4229 1.7700 0.0000 0.0000 -10662.1635 1384.5414 0.0000 0.0000 1759.0291 -7515.4001 301.6472 -9274.4292 -7497.0393 298.0608 -487.6883 -484.4478 30168.5648 -427.8896 -383.8942
ENERGY: 600000 0.1161 2.1156 0.0000 0.0000 -10563.1676 1374.0152 0.0000 0.0000 1821.8208 -7365.0999 312.4150 -9186.9207 -7480.8848 299.7454 -301.1527 -265.4285 30382.2149 -328.3805 -276.8652
ENERGY: 900000 0.3115 1.4429 0.0000 0.0000 -10692.8550 1444.3921 0.0000 0.0000 1731.6588 -7515.0497 296.9536 -9246.7085 -7484.2860 299.9884 3.0496 73.8454 30080.8538 -264.3771 -197.8357
ENERGY: 1200000 0.4245 0.9550 0.0000 0.0000 -10699.7293 1450.6770 0.0000 0.0000 1755.4200 -7492.2527 301.0283 -9247.6727 -7479.5337 299.7818 106.1198 134.8399 29934.8832 -283.8780 -223.2815
ENERGY: 1500000 0.2707 1.0728 0.0000 0.0000 -10715.4349 1506.7489 0.0000 0.0000 1799.6366 -7407.7059 308.6108 -9207.3425 -7468.1733 300.3637 739.0381 763.7895 30099.0746 -229.2544 -170.5242
TCL: Running FEP window  16: Lambda1 0.24999999999999967 Lambda2 0.19999999999999968 [dLambda -0.04999999999999999]
TCL: Setting parameter firsttimestep to 0
TCL: Setting parameter alchLambda to 0.24999999999999967
Info: NONBONDED TABLE R-SQUARED SPACING: 0.0625
Info: NONBONDED TABLE SIZE: 705 POINTS
TCL: Setting parameter alchLambda2 to 0.19999999999999968
Info: NONBONDED TABLE R-SQUARED SPACING: 0.0625
Info: NONBONDED TABLE SIZE: 705 POINTS
TCL: Running for 1500000 steps
ETITLE: TS BOND ANGLE DIHED IMPRP ELECT VDW BOUNDARY MISC KINETIC TOTAL TEMP POTENTIAL TOTALAVG TEMPAVG PRESSURE GPRESSURE VOLUME PRESSAVG GPRESSAVG
ENERGY: 0 0.2707 1.0728 0.0000 0.0000 -10715.4346 1505.9281 0.0000 0.0000 1798.7782 -7409.3848 308.4636 -9208.1630 -7409.3848 308.4636 675.9630 752.8993 30099.0746 675.9630 752.8993
ENERGY: 300000 0.9834 2.8292 0.0000 0.0000 -10653.5597 1414.8543 0.0000 0.0000 1734.7992 -7500.0935 297.4921 -9234.8927 -7446.8765 300.2253 -183.9356 -78.1368 29834.6370 308.7855 387.8042
ENERGY: 600000 0.1000 0.7258 0.0000 0.0000 -10757.4463 1551.9452 0.0000 0.0000 1747.8308 -7456.8446 299.7269 -9204.6753 -7457.5574 300.4953 1036.0337 1142.8766 29933.3830 249.7529 324.3153
ENERGY: 900000 0.8437 0.9521 0.0000 0.0000 -10706.7616 1471.6595 0.0000 0.0000 1768.9395 -7464.3668 303.3467 -9233.3063 -7447.0602 302.2508 441.3260 522.4536 29931.7889 260.4548 332.2880
ENERGY: 1200000 0.5215 1.8229 0.0000 0.0000 -10611.9919 1358.2055 0.0000 0.0000 1745.3077 -7506.1343 299.2942 -9251.4420 -7446.3533 302.6593 -664.5508 -600.1648 30109.0402 140.4057 214.3702
ENERGY: 1500000 0.7306 0.7300 0.0000 0.0000 -10650.7961 1443.0535 0.0000 0.0000 1720.8579 -7485.4241 295.1014 -9206.2819 -7457.0418 301.0454 -27.2956 -39.7590 30478.6767 72.3630 138.3248
TCL: Running FEP window  17: Lambda1 0.19999999999999968 Lambda2 0.1499999999999997 [dLambda -0.04999999999999999]
TCL: Setting parameter firsttimestep to 0
TCL: Setting parameter alchLambda to 0.19999999999999968
Info: NONBONDED TABLE R-SQUARED SPACING: 0.0625
Info: NONBONDED TABLE SIZE: 705 POINTS
TCL: Setting parameter alchLambda2 to 0.1499999999999997
Info: NONBONDED TABLE R-SQUARED SPACING: 0.0625
Info: NONBONDED TABLE SIZE: 705 POINTS
TCL: Running for 1500000 steps
ETITLE: TS BOND ANGLE DIHED IMPRP ELECT VDW BOUNDARY MISC KINETIC TOTAL TEMP POTENTIAL TOTALAVG TEMPAVG PRESSURE GPRESSURE VOLUME PRESSAVG GPRESSAVG
ENERGY: 0 0.7306 0.7300 0.0000 0.0000 -10650.7951 1443.2806 0.0000 0.0000 1719.9506 -7486.1033 294.9458 -9206.0539 -7486.1033 294.9458 -121.1180 -42.4344 30478.6767 -121.1180 -42.4344
ENERGY: 300000 0.2435 1.1003 0.0000 0.0000 -10659.8608 1418.4781 0.0000 0.0000 1756.3736 -7483.6652 301.1918 -9240.0389 -7466.9580 298.9124 -220.4445 -130.2753 30099.2443 -243.2813 -196.6431
ENERGY: 600000 0.3411 1.3642 0.0000 0.0000 -10676.9861 1418.7639 0.0000 0.0000 1804.9016 -7451.6153 309.5137 -9256.5170 -7467.1588 300.2609 -185.6922 -137.5952 30020.5736 -199.9369 -140.8066
ENERGY: 900000 0.1630 1.4486 0.0000 0.0000 -10686.7418 1431.6680 0.0000 0.0000 1715.7651 -7537.6971 294.2281 -9253.4623 -7465.7196 299.9761 114.3263 208.0852 29507.7734 -9.2794 42.5951
ENERGY: 1200000 0.4799 0.8616 0.0000 0.0000 -10595.5544 1395.2653 0.0000 0.0000 1711.1867 -7487.7610 293.4429 -9198.9477 -7467.7885 299.3381 -129.9596 -116.8790 30137.5420 -23.8080 23.7705
ENERGY: 1500000 0.3625 0.8879 0.0000 0.0000 -10708.7816 1440.4468 0.0000 0.0000 1768.3548 -7498.7296 303.2464 -9267.0844 -7478.8417 299.3011 -246.0997 -185.0996 30318.3830 -13.7486 35.5831
TCL: Running FEP window  18: Lambda1 0.1499999999999997 Lambda2 0.09999999999999969 [dLambda -0.05 ]
TCL: Setting parameter firsttimestep to 0
TCL: Setting parameter alchLambda to 0.1499999999999997
Info: NONBONDED TABLE R-SQUARED SPACING: 0.0625
Info: NONBONDED TABLE SIZE: 705 POINTS
TCL: Setting parameter alchLambda2 to 0.09999999999999969
Info: NONBONDED TABLE R-SQUARED SPACING: 0.0625
Info: NONBONDED TABLE SIZE: 705 POINTS
TCL: Running for 1500000 steps
ETITLE: TS BOND ANGLE DIHED IMPRP ELECT VDW BOUNDARY MISC KINETIC TOTAL TEMP POTENTIAL TOTALAVG TEMPAVG PRESSURE GPRESSURE VOLUME PRESSAVG GPRESSAVG
ENERGY: 0 0.3625 0.8879 0.0000 0.0000 -10708.7814 1440.4471 0.0000 0.0000 1767.5031 -7499.5808 303.1004 -9267.0839 -7499.5808 303.1004 -268.6671 -186.2361 30318.3830 -268.6671 -186.2361
ENERGY: 300000 0.1146 2.4473 0.0000 0.0000 -10684.2530 1449.4047 0.0000 0.0000 1741.3327 -7490.9538 298.6125 -9232.2865 -7454.8148 303.7877 -228.1043 -155.7901 30584.8104 -29.9508 24.6341
ENERGY: 600000 1.6510 1.5267 0.0000 0.0000 -10756.3402 1489.1995 0.0000 0.0000 1739.6423 -7524.3207 298.3227 -9263.9630 -7463.4163 304.1559 195.4636 292.0885 30205.6449 56.0190 102.4992
ENERGY: 900000 0.7590 1.5891 0.0000 0.0000 -10789.8089 1471.1553 0.0000 0.0000 1738.6714 -7577.6340 298.1562 -9316.3054 -7490.1912 303.0246 -57.1559 6.8600 29997.5702 117.8464 171.1995
ENERGY: 1200000 0.2307 2.2619 0.0000 0.0000 -10805.1098 1511.5095 0.0000 0.0000 1761.5375 -7529.5701 302.0774 -9291.1076 -7490.5740 302.3993 921.7789 893.8854 29477.5568 208.1865 245.0873
ENERGY: 1500000 0.2913 1.5848 0.0000 0.0000 -10581.6233 1411.6956 0.0000 0.0000 1699.9810 -7468.0705 291.5213 -9168.0515 -7479.5047 301.6172 -460.2742 -346.0662 30799.1040 183.6664 228.6948
TCL: Running FEP window  19: Lambda1 0.09999999999999969 Lambda2 0.049999999999999684 [dLambda -0.05 ]
TCL: Setting parameter firsttimestep to 0
TCL: Setting parameter alchLambda to 0.09999999999999969
Info: NONBONDED TABLE R-SQUARED SPACING: 0.0625
Info: NONBONDED TABLE SIZE: 705 POINTS
TCL: Setting parameter alchLambda2 to 0.049999999999999684
Info: NONBONDED TABLE R-SQUARED SPACING: 0.0625
Info: NONBONDED TABLE SIZE: 705 POINTS
TCL: Running for 1500000 steps
ETITLE: TS BOND ANGLE DIHED IMPRP ELECT VDW BOUNDARY MISC KINETIC TOTAL TEMP POTENTIAL TOTALAVG TEMPAVG PRESSURE GPRESSURE VOLUME PRESSAVG GPRESSAVG
ENERGY: 0 0.2913 1.5848 0.0000 0.0000 -10581.6245 1411.8919 0.0000 0.0000 1699.0861 -7468.7704 291.3679 -9167.8565 -7468.7704 291.3679 -423.5749 -347.1076 30799.1040 -423.5749 -347.1076
ENERGY: 300000 0.3971 1.0841 0.0000 0.0000 -10748.5201 1485.4691 0.0000 0.0000 1716.6347 -7544.9351 294.3772 -9261.5698 -7499.8867 296.3153 132.6013 282.0016 30053.5143 -303.4161 -214.8746
ENERGY: 600000 1.5696 2.6636 0.0000 0.0000 -10822.6566 1531.0973 0.0000 0.0000 1766.4734 -7520.8525 302.9238 -9287.3259 -7490.2855 299.5815 605.0401 663.4000 29863.2346 9.5143 84.6366
ENERGY: 900000 0.0680 1.5129 0.0000 0.0000 -10656.4974 1415.0315 0.0000 0.0000 1746.3650 -7493.5200 299.4755 -9239.8850 -7491.3834 300.2903 -301.9493 -220.6038 30230.9941 27.8450 101.5683
ENERGY: 1200000 1.2413 2.3411 0.0000 0.0000 -10585.1438 1341.7214 0.0000 0.0000 1730.4168 -7509.4232 296.7406 -9239.8400 -7499.4482 299.6508 -602.0829 -538.6918 29890.1552 -35.4552 40.1520
ENERGY: 1500000 0.2554 1.1454 0.0000 0.0000 -10622.7032 1400.9879 0.0000 0.0000 1797.1765 -7423.1381 308.1889 -9220.3146 -7495.5099 300.0230 -212.1433 -140.0735 30099.8879 -75.8009 -4.8784
TCL: Running FEP window  20: Lambda1 0.049999999999999684 Lambda2 0.0    [dLambda -0.049999999999999684]
TCL: Setting parameter firsttimestep to 0
TCL: Setting parameter alchLambda to 0.049999999999999684
Info: NONBONDED TABLE R-SQUARED SPACING: 0.0625
Info: NONBONDED TABLE SIZE: 705 POINTS
TCL: Setting parameter alchLambda2 to 0.0
Info: NONBONDED TABLE R-SQUARED SPACING: 0.0625
Info: NONBONDED TABLE SIZE: 705 POINTS
TCL: Running for 1500000 steps
ETITLE: TS BOND ANGLE DIHED IMPRP ELECT VDW BOUNDARY MISC KINETIC TOTAL TEMP POTENTIAL TOTALAVG TEMPAVG PRESSURE GPRESSURE VOLUME PRESSAVG GPRESSAVG
ENERGY: 0 0.2554 1.1454 0.0000 0.0000 -10622.7026 1401.0914 0.0000 0.0000 1796.3118 -7423.8987 308.0406 -9220.2105 -7423.8987 308.0406 -239.2471 -141.3455 30099.8879 -239.2471 -141.3455
ENERGY: 300000 1.0678 2.5563 0.0000 0.0000 -10776.6530 1545.4381 0.0000 0.0000 1776.2482 -7451.3426 304.6000 -9227.5908 -7451.1476 302.7537 719.8793 815.8246 30152.9543 435.4563 516.3034
ENERGY: 600000 0.2417 3.4276 0.0000 0.0000 -10655.2275 1406.6449 0.0000 0.0000 1713.9720 -7530.9412 293.9206 -9244.9132 -7476.9499 300.1501 -332.4488 -230.9912 29963.9699 238.9521 323.0587
ENERGY: 900000 0.2614 1.2779 0.0000 0.0000 -10652.1560 1480.1273 0.0000 0.0000 1742.2580 -7428.2314 298.7712 -9170.4894 -7477.2655 300.0635 342.7022 385.6160 30375.1666 79.2665 153.3707
ENERGY: 1200000 0.2306 1.3365 0.0000 0.0000 -10683.8838 1512.6560 0.0000 0.0000 1848.5674 -7321.0933 317.0017 -9169.6608 -7465.8604 301.9170 866.1057 914.5967 30201.2606 119.3759 185.6300
ENERGY: 1500000 0.0222 1.6224 0.0000 0.0000 -10655.3437 1305.9659 0.0000 0.0000 1745.7212 -7602.0120 299.3651 -9347.7332 -7473.0867 301.9199 -1173.5867 -1053.0625 29696.4269 -12.4755 60.7447
TCL: Exiting due to exit command.
