Info: SIMULATION PARAMETERS:
Info: TIMESTEP               2
Info: NUMBER OF STEPS        0
Info: STEPS PER CYCLE        10
Info: PERIODIC CELL BASIS 1  34.986 0 0
Info: PERIODIC CELL BASIS 2  0 35.779 0
Info: PERIODIC CELL BASIS 3  0 0 34.954
Info: PERIODIC CELL CENTER   0 0 0
Info: WRAPPING WATERS AROUND PERIODIC BOUNDARIES ON OUTPUT.
Info: WRAPPING ALL CLUSTERS AROUND PERIODIC BOUNDARIES ON OUTPUT.
Info: FIRST LDB TIMESTEP     50
Info: LAST LDB TIMESTEP     -1
Info: HOM BACKGROUND SCALING 1
Info: PME BACKGROUND SCALING 1
Info: MIN ATOMS PER PATCH    40
Info: EMPTY PATCH LOAD       40 ATOMS
Info: INITIAL TEMPERATURE    300
Info: CENTER OF MASS MOVING INITIALLY? NO
Info: DIELECTRIC             1
Info: EXCLUDE                SCALED ONE-FOUR
Info: 1-4 ELECTROSTATICS SCALED BY 0.833333
Info: MODIFIED 1-4 VDW PARAMETERS WILL BE USED
Info: DCD FILENAME           mobley_550662_equil.dcd
Info: DCD FREQUENCY          100000
Info: DCD FIRST STEP         100000
Info: DCD FILE WILL CONTAIN UNIT CELL DATA
Info: XST FILENAME           mobley_550662_equil.xst
Info: XST FREQUENCY          100000
Info: NO VELOCITY DCD OUTPUT
Info: NO FORCE DCD OUTPUT
Info: OUTPUT FILENAME        mobley_550662_equil
Info: BINARY OUTPUT FILES WILL BE USED
Info: RESTART FILENAME       mobley_550662_equil.restart
Info: RESTART FREQUENCY      100000
Info: BINARY RESTART FILES WILL BE USED
Info: CUTOFF                 9
Info: PAIRLIST DISTANCE      11
Info: PAIRLIST SHRINK RATE   0.01
Info: PAIRLIST GROW RATE     0.01
Info: PAIRLIST TRIGGER       0.3
Info: PAIRLISTS PER CYCLE    2
Info: PAIRLISTS ENABLED
Info: MARGIN                 8
Info: HYDROGEN GROUP CUTOFF  2.5
Info: PATCH DIMENSION        21.5
Info: ENERGY OUTPUT STEPS    100000
Info: ENERGY EVALUATION STEPS    100000
Info: OUTPUT ENERGY PRECISION 4
Info: CROSSTERM ENERGY INCLUDED IN DIHEDRAL
Info: TIMING OUTPUT STEPS    1000000
Info: PRESSURE OUTPUT STEPS  100000
Info: LANGEVIN DYNAMICS ACTIVE
Info: LANGEVIN TEMPERATURE   30
Info: LANGEVIN USING BBK INTEGRATOR
Info: LANGEVIN DAMPING COEFFICIENT IS 1 INVERSE PS
Info: LANGEVIN DYNAMICS APPLIED TO HYDROGENS
Info: LANGEVIN PISTON PRESSURE CONTROL ACTIVE
Info:        TARGET PRESSURE IS 1.01325 BAR
Info:     OSCILLATION PERIOD IS 50 FS
Info:             DECAY TIME IS 25 FS
Info:     PISTON TEMPERATURE IS 300 K
Info:       PRESSURE CONTROL IS GROUP-BASED
Info:    INITIAL STRAIN RATE IS 0 0 0
Info:       CELL FLUCTUATION IS ISOTROPIC
Info: PARTICLE MESH EWALD (PME) ACTIVE
Info: PME TOLERANCE               1e-06
Info: PME EWALD COEFFICIENT       0.348832
Info: PME INTERPOLATION ORDER     4
Info: PME GRID DIMENSIONS         36 36 36
Info: PME MAXIMUM GRID SPACING    1
Info: FULL ELECTROSTATIC EVALUATION FREQUENCY      2
Info: USING VERLET I (r-RESPA) MTS SCHEME.
Info: C1 SPLITTING OF LONG RANGE ELECTROSTATICS
Info: PLACING ATOMS IN PATCHES BY HYDROGEN GROUPS
Info: RIGID BONDS TO HYDROGEN : ALL
Info:         ERROR TOLERANCE : 1e-08
Info:          MAX ITERATIONS : 100
Info: RIGID WATER USING SETTLE ALGORITHM
Info: RANDOM NUMBER SEED     1743250777
Info: USE HYDROGEN BONDS?    NO
Info: Using AMBER format force field!
Info: AMBER PARM FILE        mobley_550662.prmtop
Info: COORDINATE PDB         mobley_550662.pdb
Info: Exclusions will be read from PARM file!
Info: SCNB (VDW SCALING)     2
Info: USING ARITHMETIC MEAN TO COMBINE L-J SIGMA PARAMETERS
Info: BINARY COORDINATES     mobley_550662_min.coor
Info: SUMMARY OF PARAMETERS:
Info: 6 BONDS
Info: 7 ANGLES
Info: 8 DIHEDRAL
Info: 0 IMPROPER
Info: 0 CROSSTERM
Info: 0 VDW
Info: 21 VDW_PAIRS
Info: 0 NBTHOLE_PAIRS
Info: STRUCTURE SUMMARY:
Info: 2915 ATOMS
Info: 2914 BONDS
Info: 33 ANGLES
Info: 51 DIHEDRALS
Info: 0 IMPROPERS
Info: 0 CROSSTERMS
Info: 2974 EXCLUSIONS
Info: 2907 RIGID BONDS
Info: 5838 DEGREES OF FREEDOM
Info: 973 HYDROGEN GROUPS
Info: 4 ATOMS IN LARGEST HYDROGEN GROUP
Info: 973 MIGRATION GROUPS
Info: 4 ATOMS IN LARGEST MIGRATION GROUP
Info: TOTAL MASS = 17505.6 amu
Info: TOTAL CHARGE = 0.000500083 e
Info: MASS DENSITY = 0.66438 g/cm^3
Info: ATOM DENSITY = 0.0666222 atoms/A^3
Info: ADDED 0 IMPLICIT EXCLUSIONS
Info: NONBONDED TABLE R-SQUARED SPACING: 0.0625
Info: NONBONDED TABLE SIZE: 705 POINTS
Info: REMOVING COM VELOCITY 0.159476 -0.0369623 -0.068518
TCL: Running for 100000 steps
ETITLE: TS BOND ANGLE DIHED IMPRP ELECT VDW BOUNDARY MISC KINETIC TOTAL TEMP POTENTIAL TOTAL3 TEMPAVG PRESSURE GPRESSURE VOLUME PRESSAVG GPRESSAVG
ENERGY: 0 0.2709 1.6630 15.1452 0.0000 -13505.2425 2380.8046 0.0000 0.0000 1765.8497 -9341.5089 304.4248 -11107.3587 -9341.1917 304.4248 487.9498 512.7267 43754.1621 487.9498 512.7267
ENERGY: 100000 0.2451 2.7617 14.9204 0.0000 -14135.2212 2525.2564 0.0000 0.0000 171.6416 -11420.3960 29.5903 -11592.0377 -11419.8226 30.9825 875.5606 937.9746 28040.8219 4.2594 4.2905
TCL: Running 100000 steps at 60 kelvin.
TCL: Setting parameter langevinTemp to 60
TCL: Running for 100000 steps
ETITLE: TS BOND ANGLE DIHED IMPRP ELECT VDW BOUNDARY MISC KINETIC TOTAL TEMP POTENTIAL TOTAL3 TEMPAVG PRESSURE GPRESSURE VOLUME PRESSAVG GPRESSAVG
ENERGY: 100000 0.2451 2.7617 14.9204 0.0000 -14135.2212 2525.2564 0.0000 0.0000 171.5611 -11420.4766 29.5764 -11592.0377 -11420.1010 29.5764 888.5837 938.1655 28040.8219 888.5837 938.1655
ENERGY: 200000 0.1939 3.4616 15.3369 0.0000 -14005.3165 2466.4456 0.0000 0.0000 353.8877 -11165.9909 61.0087 -11519.8786 -11164.8795 59.9038 784.1642 817.4637 28074.3385 4.2497 4.2745
TCL: Running 100000 steps at 90 kelvin.
TCL: Setting parameter langevinTemp to 90
TCL: Running for 100000 steps
ETITLE: TS BOND ANGLE DIHED IMPRP ELECT VDW BOUNDARY MISC KINETIC TOTAL TEMP POTENTIAL TOTAL3 TEMPAVG PRESSURE GPRESSURE VOLUME PRESSAVG GPRESSAVG
ENERGY: 200000 0.1939 3.4616 15.3369 0.0000 -14005.3165 2466.4456 0.0000 0.0000 353.7123 -11166.1663 60.9785 -11519.8786 -11165.4995 60.9785 761.5514 817.3576 28074.3385 761.5514 817.3576
ENERGY: 300000 1.2647 4.5164 15.6360 0.0000 -13671.7283 2244.3946 0.0000 0.0000 536.0956 -10869.8209 92.4206 -11405.9165 -10868.5691 90.1202 -780.8182 -721.0069 28224.2854 3.8434 3.6711
TCL: Running 100000 steps at 120 kelvin.
TCL: Setting parameter langevinTemp to 120
TCL: Running for 100000 steps
ETITLE: TS BOND ANGLE DIHED IMPRP ELECT VDW BOUNDARY MISC KINETIC TOTAL TEMP POTENTIAL TOTAL3 TEMPAVG PRESSURE GPRESSURE VOLUME PRESSAVG GPRESSAVG
ENERGY: 300000 1.2647 4.5164 15.6360 0.0000 -13671.7283 2244.3946 0.0000 0.0000 535.8365 -10870.0800 92.3759 -11405.9165 -10869.1796 92.3759 -761.9806 -720.6126 28224.2854 -761.9806 -720.6126
ENERGY: 400000 0.9264 4.1581 15.5752 0.0000 -13712.1189 2365.3901 0.0000 0.0000 696.6631 -10629.4062 120.1017 -11326.0693 -10627.1301 120.0217 646.6251 693.1620 28080.4938 4.5387 4.4553
TCL: Running 100000 steps at 150 kelvin.
TCL: Setting parameter langevinTemp to 150
TCL: Running for 100000 steps
ETITLE: TS BOND ANGLE DIHED IMPRP ELECT VDW BOUNDARY MISC KINETIC TOTAL TEMP POTENTIAL TOTAL3 TEMPAVG PRESSURE GPRESSURE VOLUME PRESSAVG GPRESSAVG
ENERGY: 400000 0.9264 4.1581 15.5752 0.0000 -13712.1189 2365.3901 0.0000 0.0000 696.3180 -10629.7513 120.0422 -11326.0693 -10628.5187 120.0422 641.9590 693.7653 28080.4938 641.9590 693.7653
ENERGY: 500000 0.3229 6.7542 16.3432 0.0000 -13414.0517 2218.0127 0.0000 0.0000 860.0569 -10312.5619 148.2701 -11172.6188 -10309.3070 149.6161 -112.5108 -33.8355 28425.1104 3.9760 3.9583
TCL: Running 100000 steps at 180 kelvin.
TCL: Setting parameter langevinTemp to 180
TCL: Running for 100000 steps
ETITLE: TS BOND ANGLE DIHED IMPRP ELECT VDW BOUNDARY MISC KINETIC TOTAL TEMP POTENTIAL TOTAL3 TEMPAVG PRESSURE GPRESSURE VOLUME PRESSAVG GPRESSAVG
ENERGY: 500000 0.3229 6.7542 16.3432 0.0000 -13414.0517 2218.0127 0.0000 0.0000 859.6291 -10312.9897 148.1963 -11172.6188 -10311.2810 148.1963 -105.8646 -33.2066 28425.1104 -105.8646 -33.2066
ENERGY: 600000 0.3865 6.5657 16.4011 0.0000 -13088.4534 2157.0510 0.0000 0.0000 1050.9230 -9857.1262 181.1745 -10908.0492 -9854.3915 180.0982 483.8837 484.4743 28574.5338 3.6994 3.8688
TCL: Running 100000 steps at 210 kelvin.
TCL: Setting parameter langevinTemp to 210
TCL: Running for 100000 steps
ETITLE: TS BOND ANGLE DIHED IMPRP ELECT VDW BOUNDARY MISC KINETIC TOTAL TEMP POTENTIAL TOTAL3 TEMPAVG PRESSURE GPRESSURE VOLUME PRESSAVG GPRESSAVG
ENERGY: 600000 0.3865 6.5657 16.4011 0.0000 -13088.4534 2157.0510 0.0000 0.0000 1050.3975 -9857.6517 181.0840 -10908.0492 -9855.3943 181.0840 433.2622 482.8980 28574.5338 433.2622 482.8980
ENERGY: 700000 0.6567 11.2147 16.7552 0.0000 -12257.6023 1794.9570 0.0000 0.0000 1211.3274 -9222.6913 208.8276 -10434.0188 -9220.3218 209.7458 -602.4908 -506.9993 28255.7046 3.1661 3.2577
TCL: Running 100000 steps at 240 kelvin.
TCL: Setting parameter langevinTemp to 240
TCL: Running for 100000 steps
ETITLE: TS BOND ANGLE DIHED IMPRP ELECT VDW BOUNDARY MISC KINETIC TOTAL TEMP POTENTIAL TOTAL3 TEMPAVG PRESSURE GPRESSURE VOLUME PRESSAVG GPRESSAVG
ENERGY: 700000 0.6567 11.2147 16.7552 0.0000 -12257.6023 1794.9570 0.0000 0.0000 1210.7406 -9223.2782 208.7264 -10434.0188 -9220.8043 208.7264 -597.5878 -506.3578 28255.7046 -597.5878 -506.3578
ENERGY: 800000 4.0768 10.2724 18.0270 0.0000 -11654.1726 1659.4538 0.0000 0.0000 1426.0286 -8536.3140 245.8411 -9962.3426 -8534.0106 240.1563 -316.1700 -262.1717 28687.5794 3.5802 3.5574
TCL: Running 100000 steps at 270 kelvin.
TCL: Setting parameter langevinTemp to 270
TCL: Running for 100000 steps
ETITLE: TS BOND ANGLE DIHED IMPRP ELECT VDW BOUNDARY MISC KINETIC TOTAL TEMP POTENTIAL TOTAL3 TEMPAVG PRESSURE GPRESSURE VOLUME PRESSAVG GPRESSAVG
ENERGY: 800000 4.0768 10.2724 18.0270 0.0000 -11654.1726 1659.4538 0.0000 0.0000 1425.3653 -8536.9773 245.7268 -9962.3426 -8534.8450 245.7268 -348.9751 -263.1169 28687.5794 -348.9751 -263.1169
ENERGY: 900000 1.9548 8.3829 15.7847 0.0000 -11140.5632 1506.7674 0.0000 0.0000 1548.6546 -8059.0188 266.9813 -9607.6734 -8055.7262 269.3970 -647.4948 -515.5791 29344.2339 2.5738 2.6288
TCL: Running 1000000 steps at 300 kelvin.
TCL: Setting parameter langevinTemp to 300
TCL: Running for 1000000 steps
ETITLE: TS BOND ANGLE DIHED IMPRP ELECT VDW BOUNDARY MISC KINETIC TOTAL TEMP POTENTIAL TOTAL3 TEMPAVG PRESSURE GPRESSURE VOLUME PRESSAVG GPRESSAVG
ENERGY: 900000 1.9548 8.3829 15.7847 0.0000 -11140.5632 1506.7674 0.0000 0.0000 1547.8732 -8059.8002 266.8466 -9607.6734 -8056.4924 266.8466 -603.2623 -514.4371 29344.2339 -603.2623 -514.4371
ENERGY: 1100000 1.7529 11.4235 15.9638 0.0000 -10479.2679 1339.9385 0.0000 0.0000 1780.8894 -7329.2998 307.0176 -9110.1892 -7325.5757 300.8645 -592.3586 -589.2356 30400.0365 3.1715 3.1933
ENERGY: 1300000 0.8216 15.5539 16.1880 0.0000 -10647.2724 1432.1282 0.0000 0.0000 1762.8109 -7419.7698 303.9009 -9182.5807 -7418.8251 299.8561 -52.6682 -32.1335 30279.3789 4.3780 4.4465
ENERGY: 1500000 4.8190 5.8813 16.2575 0.0000 -10414.5105 1312.1345 0.0000 0.0000 1773.3291 -7302.0892 305.7142 -9075.4183 -7300.9057 300.7712 -705.9001 -679.4109 30291.0745 2.7367 2.5870
ENERGY: 1700000 1.5302 8.1484 15.8303 0.0000 -10699.6237 1469.4317 0.0000 0.0000 1721.6507 -7483.0324 296.8051 -9204.6831 -7480.1086 299.8944 372.1291 421.8134 29878.6759 2.0341 2.0195
ENERGY: 1900000 4.6721 8.0124 16.0563 0.0000 -10517.9394 1299.3287 0.0000 0.0000 1751.6351 -7438.2349 301.9743 -9189.8700 -7433.0416 300.2456 -1068.0078 -964.8847 29986.6603 3.5585 3.6551
TCL: Exiting due to exit command.
