Info: SIMULATION PARAMETERS:
Info: TIMESTEP               2
Info: NUMBER OF STEPS        0
Info: STEPS PER CYCLE        10
Info: PERIODIC CELL BASIS 1  34.986 0 0
Info: PERIODIC CELL BASIS 2  0 34.1 0
Info: PERIODIC CELL BASIS 3  0 0 37.638
Info: PERIODIC CELL CENTER   0 0 0
Info: WRAPPING WATERS AROUND PERIODIC BOUNDARIES ON OUTPUT.
Info: WRAPPING ALL CLUSTERS AROUND PERIODIC BOUNDARIES ON OUTPUT.
Info: FIRST LDB TIMESTEP     50
Info: LAST LDB TIMESTEP     -1
Info: HOM BACKGROUND SCALING 1
Info: PME BACKGROUND SCALING 1
Info: MIN ATOMS PER PATCH    40
Info: EMPTY PATCH LOAD       40 ATOMS
Info: INITIAL TEMPERATURE    300
Info: CENTER OF MASS MOVING INITIALLY? NO
Info: DIELECTRIC             1
Info: EXCLUDE                SCALED ONE-FOUR
Info: 1-4 ELECTROSTATICS SCALED BY 0.833333
Info: MODIFIED 1-4 VDW PARAMETERS WILL BE USED
Info: DCD FILENAME           mobley_6102880_equil.dcd
Info: DCD FREQUENCY          100000
Info: DCD FIRST STEP         100000
Info: DCD FILE WILL CONTAIN UNIT CELL DATA
Info: XST FILENAME           mobley_6102880_equil.xst
Info: XST FREQUENCY          100000
Info: NO VELOCITY DCD OUTPUT
Info: NO FORCE DCD OUTPUT
Info: OUTPUT FILENAME        mobley_6102880_equil
Info: BINARY OUTPUT FILES WILL BE USED
Info: RESTART FILENAME       mobley_6102880_equil.restart
Info: RESTART FREQUENCY      100000
Info: BINARY RESTART FILES WILL BE USED
Info: CUTOFF                 9
Info: PAIRLIST DISTANCE      11
Info: PAIRLIST SHRINK RATE   0.01
Info: PAIRLIST GROW RATE     0.01
Info: PAIRLIST TRIGGER       0.3
Info: PAIRLISTS PER CYCLE    2
Info: PAIRLISTS ENABLED
Info: MARGIN                 8
Info: HYDROGEN GROUP CUTOFF  2.5
Info: PATCH DIMENSION        21.5
Info: ENERGY OUTPUT STEPS    100000
Info: ENERGY EVALUATION STEPS    100000
Info: OUTPUT ENERGY PRECISION 4
Info: CROSSTERM ENERGY INCLUDED IN DIHEDRAL
Info: TIMING OUTPUT STEPS    1000000
Info: PRESSURE OUTPUT STEPS  100000
Info: LANGEVIN DYNAMICS ACTIVE
Info: LANGEVIN TEMPERATURE   30
Info: LANGEVIN USING BBK INTEGRATOR
Info: LANGEVIN DAMPING COEFFICIENT IS 1 INVERSE PS
Info: LANGEVIN DYNAMICS APPLIED TO HYDROGENS
Info: LANGEVIN PISTON PRESSURE CONTROL ACTIVE
Info:        TARGET PRESSURE IS 1.01325 BAR
Info:     OSCILLATION PERIOD IS 50 FS
Info:             DECAY TIME IS 25 FS
Info:     PISTON TEMPERATURE IS 300 K
Info:       PRESSURE CONTROL IS GROUP-BASED
Info:    INITIAL STRAIN RATE IS 0 0 0
Info:       CELL FLUCTUATION IS ISOTROPIC
Info: PARTICLE MESH EWALD (PME) ACTIVE
Info: PME TOLERANCE               1e-06
Info: PME EWALD COEFFICIENT       0.348832
Info: PME INTERPOLATION ORDER     4
Info: PME GRID DIMENSIONS         36 36 40
Info: PME MAXIMUM GRID SPACING    1
Info: FULL ELECTROSTATIC EVALUATION FREQUENCY      2
Info: USING VERLET I (r-RESPA) MTS SCHEME.
Info: C1 SPLITTING OF LONG RANGE ELECTROSTATICS
Info: PLACING ATOMS IN PATCHES BY HYDROGEN GROUPS
Info: RIGID BONDS TO HYDROGEN : ALL
Info:         ERROR TOLERANCE : 1e-08
Info:          MAX ITERATIONS : 100
Info: RIGID WATER USING SETTLE ALGORITHM
Info: RANDOM NUMBER SEED     1743248555
Info: USE HYDROGEN BONDS?    NO
Info: Using AMBER format force field!
Info: AMBER PARM FILE        mobley_6102880.prmtop
Info: COORDINATE PDB         mobley_6102880.pdb
Info: Exclusions will be read from PARM file!
Info: SCNB (VDW SCALING)     2
Info: USING ARITHMETIC MEAN TO COMBINE L-J SIGMA PARAMETERS
Info: BINARY COORDINATES     mobley_6102880_min.coor
Info: SUMMARY OF PARAMETERS:
Info: 5 BONDS
Info: 4 ANGLES
Info:   4 HARMONIC
Info:   0 COSINE-BASED
Info: 3 DIHEDRAL
Info: 0 IMPROPER
Info: 0 CROSSTERM
Info: 0 VDW
Info: 15 VDW_PAIRS
Info: 0 NBTHOLE_PAIRS
Info: STRUCTURE SUMMARY:
Info: 2999 ATOMS
Info: 3000 BONDS
Info: 37 ANGLES
Info: 64 DIHEDRALS
Info: 0 IMPROPERS
Info: 0 CROSSTERMS
Info: 3083 EXCLUSIONS
Info: 2986 RIGID BONDS
Info: 6011 DEGREES OF FREEDOM
Info: 1005 HYDROGEN GROUPS
Info: 3 ATOMS IN LARGEST HYDROGEN GROUP
Info: 1005 MIGRATION GROUPS
Info: 3 ATOMS IN LARGEST MIGRATION GROUP
Info: TOTAL MASS = 18042.1 amu
Info: TOTAL CHARGE = 9.99272e-05 e
Info: MASS DENSITY = 0.667222 g/cm^3
Info: ATOM DENSITY = 0.0667884 atoms/A^3
Info: ADDED 0 IMPLICIT EXCLUSIONS
Info: NONBONDED TABLE R-SQUARED SPACING: 0.0625
Info: NONBONDED TABLE SIZE: 705 POINTS
Info: REMOVING COM VELOCITY 0.182361 -0.0337941 -0.110903
TCL: Running for 100000 steps
ETITLE: TS BOND ANGLE DIHED IMPRP ELECT VDW BOUNDARY MISC KINETIC TOTAL TEMP POTENTIAL TOTAL3 TEMPAVG PRESSURE GPRESSURE VOLUME PRESSAVG GPRESSAVG
ENERGY: 0 0.2856 0.6197 3.4389 0.0000 -13777.3390 2421.2896 0.0000 0.0000 1798.4281 -9553.2772 301.1180 -11351.7053 -9552.8934 301.1180 434.8106 476.3244 44902.9846 434.8106 476.3244
ENERGY: 100000 0.9649 1.1368 3.1500 0.0000 -14444.8722 2561.7938 0.0000 0.0000 180.8909 -11696.9359 30.2873 -11877.8267 -11696.6598 30.9670 483.5129 542.6239 29485.4270 4.3157 4.2652
TCL: Running 100000 steps at 60 kelvin.
TCL: Setting parameter langevinTemp to 60
TCL: Running for 100000 steps
ETITLE: TS BOND ANGLE DIHED IMPRP ELECT VDW BOUNDARY MISC KINETIC TOTAL TEMP POTENTIAL TOTAL3 TEMPAVG PRESSURE GPRESSURE VOLUME PRESSAVG GPRESSAVG
ENERGY: 100000 0.9649 1.1368 3.1500 0.0000 -14444.8722 2561.7938 0.0000 0.0000 180.8046 -11697.0221 30.2728 -11877.8267 -11696.6270 30.2728 484.2203 542.2783 29485.4270 484.2203 542.2783
ENERGY: 200000 1.3245 2.5994 2.9828 0.0000 -14291.3145 2470.7831 0.0000 0.0000 350.8808 -11462.7439 58.7494 -11813.6247 -11461.7643 59.9342 243.6048 304.6545 29051.8691 5.7810 5.7142
TCL: Running 100000 steps at 90 kelvin.
TCL: Setting parameter langevinTemp to 90
TCL: Running for 100000 steps
ETITLE: TS BOND ANGLE DIHED IMPRP ELECT VDW BOUNDARY MISC KINETIC TOTAL TEMP POTENTIAL TOTAL3 TEMPAVG PRESSURE GPRESSURE VOLUME PRESSAVG GPRESSAVG
ENERGY: 200000 1.3245 2.5994 2.9828 0.0000 -14291.3145 2470.7831 0.0000 0.0000 350.7079 -11462.9168 58.7204 -11813.6247 -11462.3590 58.7204 249.1980 304.7588 29051.8691 249.1980 304.7588
ENERGY: 300000 0.8942 2.8499 3.8440 0.0000 -14043.9455 2337.1589 0.0000 0.0000 532.5556 -11166.6428 89.1679 -11699.1984 -11165.7640 89.9924 -488.5212 -364.8371 29185.9223 4.9338 4.8570
TCL: Running 100000 steps at 120 kelvin.
TCL: Setting parameter langevinTemp to 120
TCL: Running for 100000 steps
ETITLE: TS BOND ANGLE DIHED IMPRP ELECT VDW BOUNDARY MISC KINETIC TOTAL TEMP POTENTIAL TOTAL3 TEMPAVG PRESSURE GPRESSURE VOLUME PRESSAVG GPRESSAVG
ENERGY: 300000 0.8942 2.8499 3.8440 0.0000 -14043.9455 2337.1589 0.0000 0.0000 532.2790 -11166.9194 89.1216 -11699.1984 -11165.6302 89.1216 -409.7515 -365.2037 29185.9223 -409.7515 -365.2037
ENERGY: 400000 1.2889 1.7775 6.5576 0.0000 -14010.4204 2395.3175 0.0000 0.0000 727.7813 -10877.6975 121.8553 -11605.4788 -10875.4771 120.3209 542.2392 611.0781 29102.1991 5.0090 5.0138
TCL: Running 100000 steps at 150 kelvin.
TCL: Setting parameter langevinTemp to 150
TCL: Running for 100000 steps
ETITLE: TS BOND ANGLE DIHED IMPRP ELECT VDW BOUNDARY MISC KINETIC TOTAL TEMP POTENTIAL TOTAL3 TEMPAVG PRESSURE GPRESSURE VOLUME PRESSAVG GPRESSAVG
ENERGY: 400000 1.2889 1.7775 6.5576 0.0000 -14010.4204 2395.3175 0.0000 0.0000 727.4215 -10878.0573 121.7951 -11605.4788 -10876.5886 121.7951 552.6139 611.2464 29102.1991 552.6139 611.2464
ENERGY: 500000 1.9522 3.8298 4.3527 0.0000 -13675.0382 2248.4990 0.0000 0.0000 886.0777 -10530.3267 148.3595 -11416.4044 -10528.4618 149.9633 -238.6619 -215.7752 29441.5740 2.8027 2.9893
TCL: Running 100000 steps at 180 kelvin.
TCL: Setting parameter langevinTemp to 180
TCL: Running for 100000 steps
ETITLE: TS BOND ANGLE DIHED IMPRP ELECT VDW BOUNDARY MISC KINETIC TOTAL TEMP POTENTIAL TOTAL3 TEMPAVG PRESSURE GPRESSURE VOLUME PRESSAVG GPRESSAVG
ENERGY: 500000 1.9522 3.8298 4.3527 0.0000 -13675.0382 2248.4990 0.0000 0.0000 885.6214 -10530.7830 148.2831 -11416.4044 -10529.1394 148.2831 -272.6769 -216.1613 29441.5740 -272.6769 -216.1613
ENERGY: 600000 3.0707 3.5840 5.3865 0.0000 -13230.3675 2094.6596 0.0000 0.0000 1077.0024 -10046.6644 180.3268 -11123.6668 -10044.3811 179.4188 -540.6409 -490.1205 29627.0818 3.2723 3.2789
TCL: Running 100000 steps at 210 kelvin.
TCL: Setting parameter langevinTemp to 210
TCL: Running for 100000 steps
ETITLE: TS BOND ANGLE DIHED IMPRP ELECT VDW BOUNDARY MISC KINETIC TOTAL TEMP POTENTIAL TOTAL3 TEMPAVG PRESSURE GPRESSURE VOLUME PRESSAVG GPRESSAVG
ENERGY: 600000 3.0707 3.5840 5.3865 0.0000 -13230.3675 2094.6596 0.0000 0.0000 1076.4760 -10047.1908 180.2387 -11123.6668 -10044.9690 180.2387 -549.9895 -491.2167 29627.0818 -549.9895 -491.2167
ENERGY: 700000 4.1652 3.8048 6.6587 0.0000 -12581.7601 1947.2697 0.0000 0.0000 1259.2428 -9360.6189 210.8401 -10619.8617 -9357.3410 209.7125 284.4107 328.2134 29106.3628 5.4366 5.4176
TCL: Running 100000 steps at 240 kelvin.
TCL: Setting parameter langevinTemp to 240
TCL: Running for 100000 steps
ETITLE: TS BOND ANGLE DIHED IMPRP ELECT VDW BOUNDARY MISC KINETIC TOTAL TEMP POTENTIAL TOTAL3 TEMPAVG PRESSURE GPRESSURE VOLUME PRESSAVG GPRESSAVG
ENERGY: 700000 4.1652 3.8048 6.6587 0.0000 -12581.7601 1947.2697 0.0000 0.0000 1258.6196 -9361.2421 210.7357 -10619.8617 -9359.1286 210.7357 247.3827 328.4444 29106.3628 247.3827 328.4444
ENERGY: 800000 3.9037 4.3704 8.5478 0.0000 -11976.9745 1751.9776 0.0000 0.0000 1409.7534 -8798.4217 236.0406 -10208.1750 -8795.9241 239.6200 -29.0118 15.5667 29818.3548 3.1199 3.2032
TCL: Running 100000 steps at 270 kelvin.
TCL: Setting parameter langevinTemp to 270
TCL: Running for 100000 steps
ETITLE: TS BOND ANGLE DIHED IMPRP ELECT VDW BOUNDARY MISC KINETIC TOTAL TEMP POTENTIAL TOTAL3 TEMPAVG PRESSURE GPRESSURE VOLUME PRESSAVG GPRESSAVG
ENERGY: 800000 3.9037 4.3704 8.5478 0.0000 -11976.9744 1751.9776 0.0000 0.0000 1409.0249 -8799.1501 235.9187 -10208.1750 -8796.8147 235.9187 -46.2921 15.0189 29818.3548 -46.2921 15.0189
ENERGY: 900000 2.8504 3.5000 7.9531 0.0000 -11435.7439 1632.4791 0.0000 0.0000 1600.3912 -8188.5700 267.9599 -9788.9613 -8186.5987 270.3366 156.8960 287.0203 30474.9529 5.3450 5.3205
TCL: Running 1000000 steps at 300 kelvin.
TCL: Setting parameter langevinTemp to 300
TCL: Running for 1000000 steps
ETITLE: TS BOND ANGLE DIHED IMPRP ELECT VDW BOUNDARY MISC KINETIC TOTAL TEMP POTENTIAL TOTAL3 TEMPAVG PRESSURE GPRESSURE VOLUME PRESSAVG GPRESSAVG
ENERGY: 900000 2.8504 3.5000 7.9531 0.0000 -11435.7439 1632.4791 0.0000 0.0000 1599.5745 -8189.3868 267.8232 -9788.9613 -8186.2698 267.8232 195.8811 284.0223 30474.9529 195.8811 284.0223
ENERGY: 1100000 3.9378 5.1331 7.7412 0.0000 -10819.7776 1515.0272 0.0000 0.0000 1816.8101 -7471.1282 304.1958 -9287.9383 -7468.8533 300.4310 766.9771 857.6388 31024.0941 3.7723 3.8616
ENERGY: 1300000 2.6057 3.4571 7.7957 0.0000 -10778.7076 1419.9006 0.0000 0.0000 1821.4421 -7523.5063 304.9713 -9344.9484 -7521.5996 300.7266 -89.6320 -18.2316 30970.1841 4.3101 4.1987
ENERGY: 1500000 5.0209 5.3480 9.0451 0.0000 -10840.2763 1452.2777 0.0000 0.0000 1788.4638 -7580.1208 299.4497 -9368.5846 -7576.8350 299.5520 -375.3344 -277.8332 31282.2722 3.2538 3.0875
ENERGY: 1700000 4.8026 7.3804 9.2439 0.0000 -10908.1230 1453.9131 0.0000 0.0000 1825.5304 -7607.2525 305.6559 -9432.7830 -7603.2976 300.6610 249.4102 347.4300 30427.8558 2.7638 2.8130
ENERGY: 1900000 3.6697 5.8746 12.3452 0.0000 -10872.6575 1501.7763 0.0000 0.0000 1791.0669 -7557.9248 299.8855 -9348.9917 -7554.3141 299.9677 408.4618 547.4120 30890.6929 2.3212 2.4471
TCL: Exiting due to exit command.
