Info: SIMULATION PARAMETERS:
Info: TIMESTEP               2
Info: NUMBER OF STEPS        0
Info: STEPS PER CYCLE        10
Info: PERIODIC CELL BASIS 1  35.01 0 0
Info: PERIODIC CELL BASIS 2  0 34.1 0
Info: PERIODIC CELL BASIS 3  0 0 36.199
Info: PERIODIC CELL CENTER   0 0 0
Info: WRAPPING WATERS AROUND PERIODIC BOUNDARIES ON OUTPUT.
Info: WRAPPING ALL CLUSTERS AROUND PERIODIC BOUNDARIES ON OUTPUT.
Info: FIRST LDB TIMESTEP     50
Info: LAST LDB TIMESTEP     -1
Info: HOM BACKGROUND SCALING 1
Info: PME BACKGROUND SCALING 1
Info: MIN ATOMS PER PATCH    40
Info: EMPTY PATCH LOAD       40 ATOMS
Info: INITIAL TEMPERATURE    300
Info: CENTER OF MASS MOVING INITIALLY? NO
Info: DIELECTRIC             1
Info: EXCLUDE                SCALED ONE-FOUR
Info: 1-4 ELECTROSTATICS SCALED BY 0.833333
Info: MODIFIED 1-4 VDW PARAMETERS WILL BE USED
Info: DCD FILENAME           mobley_7768165_equil.dcd
Info: DCD FREQUENCY          100000
Info: DCD FIRST STEP         100000
Info: DCD FILE WILL CONTAIN UNIT CELL DATA
Info: XST FILENAME           mobley_7768165_equil.xst
Info: XST FREQUENCY          100000
Info: NO VELOCITY DCD OUTPUT
Info: NO FORCE DCD OUTPUT
Info: OUTPUT FILENAME        mobley_7768165_equil
Info: BINARY OUTPUT FILES WILL BE USED
Info: RESTART FILENAME       mobley_7768165_equil.restart
Info: RESTART FREQUENCY      100000
Info: BINARY RESTART FILES WILL BE USED
Info: CUTOFF                 9
Info: PAIRLIST DISTANCE      11
Info: PAIRLIST SHRINK RATE   0.01
Info: PAIRLIST GROW RATE     0.01
Info: PAIRLIST TRIGGER       0.3
Info: PAIRLISTS PER CYCLE    2
Info: PAIRLISTS ENABLED
Info: MARGIN                 8
Info: HYDROGEN GROUP CUTOFF  2.5
Info: PATCH DIMENSION        21.5
Info: ENERGY OUTPUT STEPS    100000
Info: ENERGY EVALUATION STEPS    100000
Info: OUTPUT ENERGY PRECISION 4
Info: CROSSTERM ENERGY INCLUDED IN DIHEDRAL
Info: TIMING OUTPUT STEPS    1000000
Info: PRESSURE OUTPUT STEPS  100000
Info: LANGEVIN DYNAMICS ACTIVE
Info: LANGEVIN TEMPERATURE   30
Info: LANGEVIN USING BBK INTEGRATOR
Info: LANGEVIN DAMPING COEFFICIENT IS 1 INVERSE PS
Info: LANGEVIN DYNAMICS APPLIED TO HYDROGENS
Info: LANGEVIN PISTON PRESSURE CONTROL ACTIVE
Info:        TARGET PRESSURE IS 1.01325 BAR
Info:     OSCILLATION PERIOD IS 50 FS
Info:             DECAY TIME IS 25 FS
Info:     PISTON TEMPERATURE IS 300 K
Info:       PRESSURE CONTROL IS GROUP-BASED
Info:    INITIAL STRAIN RATE IS 0 0 0
Info:       CELL FLUCTUATION IS ISOTROPIC
Info: PARTICLE MESH EWALD (PME) ACTIVE
Info: PME TOLERANCE               1e-06
Info: PME EWALD COEFFICIENT       0.348832
Info: PME INTERPOLATION ORDER     4
Info: PME GRID DIMENSIONS         36 36 40
Info: PME MAXIMUM GRID SPACING    1
Info: FULL ELECTROSTATIC EVALUATION FREQUENCY      2
Info: USING VERLET I (r-RESPA) MTS SCHEME.
Info: C1 SPLITTING OF LONG RANGE ELECTROSTATICS
Info: PLACING ATOMS IN PATCHES BY HYDROGEN GROUPS
Info: RIGID BONDS TO HYDROGEN : ALL
Info:         ERROR TOLERANCE : 1e-08
Info:          MAX ITERATIONS : 100
Info: RIGID WATER USING SETTLE ALGORITHM
Info: RANDOM NUMBER SEED     1743223734
Info: USE HYDROGEN BONDS?    NO
Info: Using AMBER format force field!
Info: AMBER PARM FILE        mobley_7768165.prmtop
Info: COORDINATE PDB         mobley_7768165.pdb
Info: Exclusions will be read from PARM file!
Info: SCNB (VDW SCALING)     2
Info: USING ARITHMETIC MEAN TO COMBINE L-J SIGMA PARAMETERS
Info: BINARY COORDINATES     mobley_7768165_min.coor
Info: SUMMARY OF PARAMETERS:
Info: 6 BONDS
Info: 6 ANGLES
Info: 4 DIHEDRAL
Info: 0 IMPROPER
Info: 0 CROSSTERM
Info: 0 VDW
Info: 21 VDW_PAIRS
Info: 0 NBTHOLE_PAIRS
Info: STRUCTURE SUMMARY:
Info: 2909 ATOMS
Info: 2908 BONDS
Info: 12 ANGLES
Info: 13 DIHEDRALS
Info: 0 IMPROPERS
Info: 0 CROSSTERMS
Info: 2929 EXCLUSIONS
Info: 2905 RIGID BONDS
Info: 5822 DEGREES OF FREEDOM
Info: 971 HYDROGEN GROUPS
Info: 3 ATOMS IN LARGEST HYDROGEN GROUP
Info: 971 MIGRATION GROUPS
Info: 3 ATOMS IN LARGEST MIGRATION GROUP
Info: TOTAL MASS = 17564.9 amu
Info: TOTAL CHARGE = -0.000100011 e
Info: MASS DENSITY = 0.674934 g/cm^3
Info: ATOM DENSITY = 0.0673133 atoms/A^3
Info: ADDED 0 IMPLICIT EXCLUSIONS
Info: NONBONDED TABLE R-SQUARED SPACING: 0.0625
Info: NONBONDED TABLE SIZE: 705 POINTS
Info: REMOVING COM VELOCITY 0.0711174 -0.120428 -0.25386
TCL: Running for 100000 steps
ETITLE: TS BOND ANGLE DIHED IMPRP ELECT VDW BOUNDARY MISC KINETIC TOTAL TEMP POTENTIAL TOTAL3 TEMPAVG PRESSURE GPRESSURE VOLUME PRESSAVG GPRESSAVG
ENERGY: 0 0.0012 0.2705 2.8193 0.0000 -13455.3331 2383.8209 0.0000 0.0000 1739.0701 -9329.3511 300.6321 -11068.4213 -9329.0366 300.6321 664.8541 697.1416 43215.8504 664.8541 697.1416
ENERGY: 100000 0.2067 0.5803 2.6409 0.0000 -14069.3116 2487.9711 0.0000 0.0000 174.4516 -11403.4610 30.1574 -11577.9126 -11402.8557 30.8970 484.0538 561.4501 28314.7475 4.8052 4.7649
TCL: Running 100000 steps at 60 kelvin.
TCL: Setting parameter langevinTemp to 60
TCL: Running for 100000 steps
ETITLE: TS BOND ANGLE DIHED IMPRP ELECT VDW BOUNDARY MISC KINETIC TOTAL TEMP POTENTIAL TOTAL3 TEMPAVG PRESSURE GPRESSURE VOLUME PRESSAVG GPRESSAVG
ENERGY: 100000 0.2067 0.5803 2.6409 0.0000 -14069.3116 2487.9711 0.0000 0.0000 174.3671 -11403.5455 30.1427 -11577.9126 -11403.2284 30.1427 505.6954 561.7181 28314.7475 505.6954 561.7181
ENERGY: 200000 0.0157 0.6431 2.5778 0.0000 -13889.0877 2354.8908 0.0000 0.0000 344.7896 -11186.1708 59.6036 -11530.9604 -11184.8961 59.8970 -379.5105 -314.6628 28388.4548 4.1232 4.1377
TCL: Running 100000 steps at 90 kelvin.
TCL: Setting parameter langevinTemp to 90
TCL: Running for 100000 steps
ETITLE: TS BOND ANGLE DIHED IMPRP ELECT VDW BOUNDARY MISC KINETIC TOTAL TEMP POTENTIAL TOTAL3 TEMPAVG PRESSURE GPRESSURE VOLUME PRESSAVG GPRESSAVG
ENERGY: 200000 0.0157 0.6431 2.5778 0.0000 -13889.0877 2354.8908 0.0000 0.0000 344.6153 -11186.3451 59.5734 -11530.9604 -11185.5705 59.5734 -381.9020 -314.3529 28388.4548 -381.9020 -314.3529
ENERGY: 300000 0.1874 0.5839 1.1902 0.0000 -13732.6740 2300.5128 0.0000 0.0000 516.4620 -10913.7376 89.2805 -11430.1997 -10911.9587 89.9435 -536.6803 -476.2844 28344.7070 3.6028 3.5798
TCL: Running 100000 steps at 120 kelvin.
TCL: Setting parameter langevinTemp to 120
TCL: Running for 100000 steps
ETITLE: TS BOND ANGLE DIHED IMPRP ELECT VDW BOUNDARY MISC KINETIC TOTAL TEMP POTENTIAL TOTAL3 TEMPAVG PRESSURE GPRESSURE VOLUME PRESSAVG GPRESSAVG
ENERGY: 300000 0.1874 0.5839 1.1902 0.0000 -13732.6740 2300.5128 0.0000 0.0000 516.1984 -10914.0012 89.2349 -11430.1997 -10912.9615 89.2349 -537.1347 -476.0484 28344.7070 -537.1347 -476.0484
ENERGY: 400000 0.3384 2.2855 1.3249 0.0000 -13516.3794 2193.7311 0.0000 0.0000 715.2641 -10603.4354 123.6473 -11318.6995 -10601.0260 119.8933 -1092.7978 -983.8859 28570.0777 3.9597 3.8229
TCL: Running 100000 steps at 150 kelvin.
TCL: Setting parameter langevinTemp to 150
TCL: Running for 100000 steps
ETITLE: TS BOND ANGLE DIHED IMPRP ELECT VDW BOUNDARY MISC KINETIC TOTAL TEMP POTENTIAL TOTAL3 TEMPAVG PRESSURE GPRESSURE VOLUME PRESSAVG GPRESSAVG
ENERGY: 400000 0.3384 2.2855 1.3249 0.0000 -13516.3794 2193.7311 0.0000 0.0000 714.9136 -10603.7859 123.5867 -11318.6995 -10602.1150 123.5867 -1041.1744 -982.8854 28570.0777 -1041.1744 -982.8854
ENERGY: 500000 0.2428 2.2673 1.2637 0.0000 -13418.5486 2246.6910 0.0000 0.0000 884.4215 -10283.6624 152.8894 -11168.0839 -10281.9255 149.9904 366.3994 418.6257 28170.8853 3.4906 3.4070
TCL: Running 100000 steps at 180 kelvin.
TCL: Setting parameter langevinTemp to 180
TCL: Running for 100000 steps
ETITLE: TS BOND ANGLE DIHED IMPRP ELECT VDW BOUNDARY MISC KINETIC TOTAL TEMP POTENTIAL TOTAL3 TEMPAVG PRESSURE GPRESSURE VOLUME PRESSAVG GPRESSAVG
ENERGY: 500000 0.2428 2.2673 1.2637 0.0000 -13418.5486 2246.6910 0.0000 0.0000 883.9841 -10284.0998 152.8138 -11168.0839 -10282.6966 152.8138 361.0810 418.4095 28170.8853 361.0810 418.4095
ENERGY: 600000 0.1846 2.2246 1.3857 0.0000 -12902.0245 2094.0057 0.0000 0.0000 1056.3338 -9747.8901 182.6078 -10804.2238 -9744.5525 179.8625 355.6562 357.6890 28224.9071 4.7194 4.7717
TCL: Running 100000 steps at 210 kelvin.
TCL: Setting parameter langevinTemp to 210
TCL: Running for 100000 steps
ETITLE: TS BOND ANGLE DIHED IMPRP ELECT VDW BOUNDARY MISC KINETIC TOTAL TEMP POTENTIAL TOTAL3 TEMPAVG PRESSURE GPRESSURE VOLUME PRESSAVG GPRESSAVG
ENERGY: 600000 0.1846 2.2246 1.3857 0.0000 -12902.0245 2094.0057 0.0000 0.0000 1055.8456 -9748.3782 182.5234 -10804.2238 -9746.5394 182.5234 301.6195 358.3861 28224.9071 301.6195 358.3861
ENERGY: 700000 0.5577 2.6664 1.3073 0.0000 -12208.9968 1838.0722 0.0000 0.0000 1237.2442 -9129.1491 213.8817 -10366.3934 -9126.8390 209.4388 -250.9938 -177.5189 28520.4927 2.9693 2.9815
TCL: Running 100000 steps at 240 kelvin.
TCL: Setting parameter langevinTemp to 240
TCL: Running for 100000 steps
ETITLE: TS BOND ANGLE DIHED IMPRP ELECT VDW BOUNDARY MISC KINETIC TOTAL TEMP POTENTIAL TOTAL3 TEMPAVG PRESSURE GPRESSURE VOLUME PRESSAVG GPRESSAVG
ENERGY: 700000 0.5577 2.6664 1.3073 0.0000 -12208.9968 1838.0722 0.0000 0.0000 1236.6323 -9129.7610 213.7759 -10366.3934 -9127.5080 213.7759 -266.0715 -178.1389 28520.4927 -266.0715 -178.1389
ENERGY: 800000 0.5522 2.7096 1.1797 0.0000 -11713.5455 1759.4279 0.0000 0.0000 1424.2275 -8525.4485 246.2054 -9949.6761 -8523.8145 239.5270 573.5753 654.3556 28716.5531 2.6410 2.6249
TCL: Running 100000 steps at 270 kelvin.
TCL: Setting parameter langevinTemp to 270
TCL: Running for 100000 steps
ETITLE: TS BOND ANGLE DIHED IMPRP ELECT VDW BOUNDARY MISC KINETIC TOTAL TEMP POTENTIAL TOTAL3 TEMPAVG PRESSURE GPRESSURE VOLUME PRESSAVG GPRESSAVG
ENERGY: 800000 0.5522 2.7096 1.1797 0.0000 -11713.5455 1759.4279 0.0000 0.0000 1423.5221 -8526.1540 246.0834 -9949.6761 -8524.1766 246.0834 567.8782 653.7672 28716.5531 567.8782 653.7672
ENERGY: 900000 0.1740 1.7607 1.1567 0.0000 -10937.0594 1400.8228 0.0000 0.0000 1564.6445 -7968.5007 270.4792 -9533.1452 -7965.2607 270.0085 -1149.6973 -1075.2319 29266.8443 3.1297 3.2451
TCL: Running 1000000 steps at 300 kelvin.
TCL: Setting parameter langevinTemp to 300
TCL: Running for 1000000 steps
ETITLE: TS BOND ANGLE DIHED IMPRP ELECT VDW BOUNDARY MISC KINETIC TOTAL TEMP POTENTIAL TOTAL3 TEMPAVG PRESSURE GPRESSURE VOLUME PRESSAVG GPRESSAVG
ENERGY: 900000 0.1740 1.7607 1.1567 0.0000 -10937.0594 1400.8228 0.0000 0.0000 1563.8701 -7969.2751 270.3453 -9533.1452 -7967.1774 270.3453 -1174.5596 -1074.9858 29266.8443 -1174.5596 -1074.9858
ENERGY: 1100000 0.5516 4.0833 2.9653 0.0000 -10565.9393 1377.1626 0.0000 0.0000 1746.6358 -7434.5407 301.9399 -9181.1765 -7430.8517 299.7042 -541.3270 -467.2324 30396.9834 3.3677 3.5190
ENERGY: 1300000 2.4594 3.6315 1.7481 0.0000 -10542.9234 1391.9389 0.0000 0.0000 1736.0854 -7407.0601 300.1161 -9143.1455 -7403.5440 300.5324 -427.3403 -369.9302 30221.4763 2.8673 2.7355
ENERGY: 1500000 0.4209 3.2769 1.3201 0.0000 -10482.5785 1304.3626 0.0000 0.0000 1712.0347 -7461.1634 295.9585 -9173.1981 -7457.3855 300.5307 -1190.3503 -1086.6597 30350.3416 3.9873 3.9004
ENERGY: 1700000 0.3339 2.0599 1.2608 0.0000 -10485.7682 1372.6476 0.0000 0.0000 1700.1923 -7409.2736 293.9113 -9109.4659 -7404.1917 299.8616 -283.7355 -189.3421 30170.0080 3.0652 2.9134
ENERGY: 1900000 0.4972 2.7935 1.1838 0.0000 -10513.8286 1340.4422 0.0000 0.0000 1742.2158 -7426.6961 301.1758 -9168.9119 -7421.7137 300.5925 -800.2304 -698.3082 30302.5570 1.1384 1.0454
TCL: Exiting due to exit command.
