Info: SIMULATION PARAMETERS:
Info: TIMESTEP               2
Info: NUMBER OF STEPS        0
Info: STEPS PER CYCLE        10
Info: PERIODIC CELL BASIS 1  34.986 0 0
Info: PERIODIC CELL BASIS 2  0 33.404 0
Info: PERIODIC CELL BASIS 3  0 0 37.451
Info: PERIODIC CELL CENTER   0 0 0
Info: WRAPPING WATERS AROUND PERIODIC BOUNDARIES ON OUTPUT.
Info: WRAPPING ALL CLUSTERS AROUND PERIODIC BOUNDARIES ON OUTPUT.
Info: FIRST LDB TIMESTEP     50
Info: LAST LDB TIMESTEP     -1
Info: HOM BACKGROUND SCALING 1
Info: PME BACKGROUND SCALING 1
Info: MIN ATOMS PER PATCH    40
Info: EMPTY PATCH LOAD       40 ATOMS
Info: INITIAL TEMPERATURE    300
Info: CENTER OF MASS MOVING INITIALLY? NO
Info: DIELECTRIC             1
Info: EXCLUDE                SCALED ONE-FOUR
Info: 1-4 ELECTROSTATICS SCALED BY 0.833333
Info: MODIFIED 1-4 VDW PARAMETERS WILL BE USED
Info: DCD FILENAME           mobley_5311804_equil.dcd
Info: DCD FREQUENCY          100000
Info: DCD FIRST STEP         100000
Info: DCD FILE WILL CONTAIN UNIT CELL DATA
Info: XST FILENAME           mobley_5311804_equil.xst
Info: XST FREQUENCY          100000
Info: NO VELOCITY DCD OUTPUT
Info: NO FORCE DCD OUTPUT
Info: OUTPUT FILENAME        mobley_5311804_equil
Info: BINARY OUTPUT FILES WILL BE USED
Info: RESTART FILENAME       mobley_5311804_equil.restart
Info: RESTART FREQUENCY      100000
Info: BINARY RESTART FILES WILL BE USED
Info: CUTOFF                 9
Info: PAIRLIST DISTANCE      11
Info: PAIRLIST SHRINK RATE   0.01
Info: PAIRLIST GROW RATE     0.01
Info: PAIRLIST TRIGGER       0.3
Info: PAIRLISTS PER CYCLE    2
Info: PAIRLISTS ENABLED
Info: MARGIN                 8
Info: HYDROGEN GROUP CUTOFF  2.5
Info: PATCH DIMENSION        21.5
Info: ENERGY OUTPUT STEPS    100000
Info: ENERGY EVALUATION STEPS    100000
Info: OUTPUT ENERGY PRECISION 4
Info: CROSSTERM ENERGY INCLUDED IN DIHEDRAL
Info: TIMING OUTPUT STEPS    1000000
Info: PRESSURE OUTPUT STEPS  100000
Info: LANGEVIN DYNAMICS ACTIVE
Info: LANGEVIN TEMPERATURE   30
Info: LANGEVIN USING BBK INTEGRATOR
Info: LANGEVIN DAMPING COEFFICIENT IS 1 INVERSE PS
Info: LANGEVIN DYNAMICS APPLIED TO HYDROGENS
Info: LANGEVIN PISTON PRESSURE CONTROL ACTIVE
Info:        TARGET PRESSURE IS 1.01325 BAR
Info:     OSCILLATION PERIOD IS 50 FS
Info:             DECAY TIME IS 25 FS
Info:     PISTON TEMPERATURE IS 300 K
Info:       PRESSURE CONTROL IS GROUP-BASED
Info:    INITIAL STRAIN RATE IS 0 0 0
Info:       CELL FLUCTUATION IS ISOTROPIC
Info: PARTICLE MESH EWALD (PME) ACTIVE
Info: PME TOLERANCE               1e-06
Info: PME EWALD COEFFICIENT       0.348832
Info: PME INTERPOLATION ORDER     4
Info: PME GRID DIMENSIONS         36 36 40
Info: PME MAXIMUM GRID SPACING    1
Info: FULL ELECTROSTATIC EVALUATION FREQUENCY      2
Info: USING VERLET I (r-RESPA) MTS SCHEME.
Info: C1 SPLITTING OF LONG RANGE ELECTROSTATICS
Info: PLACING ATOMS IN PATCHES BY HYDROGEN GROUPS
Info: RIGID BONDS TO HYDROGEN : ALL
Info:         ERROR TOLERANCE : 1e-08
Info:          MAX ITERATIONS : 100
Info: RIGID WATER USING SETTLE ALGORITHM
Info: RANDOM NUMBER SEED     1743229931
Info: USE HYDROGEN BONDS?    NO
Info: Using AMBER format force field!
Info: AMBER PARM FILE        mobley_5311804.prmtop
Info: COORDINATE PDB         mobley_5311804.pdb
Info: Exclusions will be read from PARM file!
Info: SCNB (VDW SCALING)     2
Info: USING ARITHMETIC MEAN TO COMBINE L-J SIGMA PARAMETERS
Info: BINARY COORDINATES     mobley_5311804_min.coor
Info: SUMMARY OF PARAMETERS:
Info: 8 BONDS
Info: 8 ANGLES
Info:   8 HARMONIC
Info:   0 COSINE-BASED
Info: 4 DIHEDRAL
Info: 0 IMPROPER
Info: 0 CROSSTERM
Info: 0 VDW
Info: 28 VDW_PAIRS
Info: 0 NBTHOLE_PAIRS
Info: STRUCTURE SUMMARY:
Info: 2965 ATOMS
Info: 2965 BONDS
Info: 25 ANGLES
Info: 39 DIHEDRALS
Info: 0 IMPROPERS
Info: 0 CROSSTERMS
Info: 3020 EXCLUSIONS
Info: 2957 RIGID BONDS
Info: 5938 DEGREES OF FREEDOM
Info: 991 HYDROGEN GROUPS
Info: 3 ATOMS IN LARGEST HYDROGEN GROUP
Info: 991 MIGRATION GROUPS
Info: 3 ATOMS IN LARGEST MIGRATION GROUP
Info: TOTAL MASS = 17817.9 amu
Info: TOTAL CHARGE = -0.000200011 e
Info: MASS DENSITY = 0.676019 g/cm^3
Info: ATOM DENSITY = 0.0677436 atoms/A^3
Info: ADDED 0 IMPLICIT EXCLUSIONS
Info: NONBONDED TABLE R-SQUARED SPACING: 0.0625
Info: NONBONDED TABLE SIZE: 705 POINTS
Info: REMOVING COM VELOCITY -0.0849083 -0.0138764 0.108589
TCL: Running for 100000 steps
ETITLE: TS BOND ANGLE DIHED IMPRP ELECT VDW BOUNDARY MISC KINETIC TOTAL TEMP POTENTIAL TOTAL3 TEMPAVG PRESSURE GPRESSURE VOLUME PRESSAVG GPRESSAVG
ENERGY: 0 0.1832 0.1188 0.1078 0.0000 -13745.7063 2445.5586 0.0000 0.0000 1838.1947 -9461.5432 311.5600 -11299.7380 -9461.1709 311.5600 666.1534 694.1539 43767.9480 666.1534 694.1539
ENERGY: 100000 0.4805 0.5310 0.5255 0.0000 -14325.2109 2504.4908 0.0000 0.0000 173.9723 -11645.2108 29.4870 -11819.1831 -11644.6012 30.9142 -5.9712 58.4542 28829.2223 3.3314 3.2681
TCL: Running 100000 steps at 60 kelvin.
TCL: Setting parameter langevinTemp to 60
TCL: Running for 100000 steps
ETITLE: TS BOND ANGLE DIHED IMPRP ELECT VDW BOUNDARY MISC KINETIC TOTAL TEMP POTENTIAL TOTAL3 TEMPAVG PRESSURE GPRESSURE VOLUME PRESSAVG GPRESSAVG
ENERGY: 100000 0.4805 0.5310 0.5255 0.0000 -14325.2109 2504.4908 0.0000 0.0000 173.8808 -11645.3023 29.4715 -11819.1831 -11644.9109 29.4715 12.8351 58.6743 28829.2223 12.8351 58.6743
ENERGY: 200000 1.3323 1.1707 1.0174 0.0000 -14134.8717 2413.5505 0.0000 0.0000 359.3502 -11358.4505 60.9071 -11717.8008 -11357.6719 60.0108 -454.6064 -386.3688 28847.5751 4.9699 4.9890
TCL: Running 100000 steps at 90 kelvin.
TCL: Setting parameter langevinTemp to 90
TCL: Running for 100000 steps
ETITLE: TS BOND ANGLE DIHED IMPRP ELECT VDW BOUNDARY MISC KINETIC TOTAL TEMP POTENTIAL TOTAL3 TEMPAVG PRESSURE GPRESSURE VOLUME PRESSAVG GPRESSAVG
ENERGY: 200000 1.3323 1.1707 1.0174 0.0000 -14134.8717 2413.5505 0.0000 0.0000 359.1838 -11358.6170 60.8789 -11717.8008 -11357.7609 60.8789 -445.3030 -386.6515 28847.5751 -445.3030 -386.6515
ENERGY: 300000 0.2040 2.3543 0.9464 0.0000 -13951.2044 2312.4061 0.0000 0.0000 521.4287 -11113.8651 88.3782 -11635.2937 -11112.5578 89.7969 -731.7700 -687.7637 28714.5159 4.4629 4.5087
TCL: Running 100000 steps at 120 kelvin.
TCL: Setting parameter langevinTemp to 120
TCL: Running for 100000 steps
ETITLE: TS BOND ANGLE DIHED IMPRP ELECT VDW BOUNDARY MISC KINETIC TOTAL TEMP POTENTIAL TOTAL3 TEMPAVG PRESSURE GPRESSURE VOLUME PRESSAVG GPRESSAVG
ENERGY: 300000 0.2040 2.3543 0.9464 0.0000 -13951.2044 2312.4061 0.0000 0.0000 521.1525 -11114.1413 88.3314 -11635.2937 -11112.8075 88.3314 -747.3627 -688.1745 28714.5159 -747.3627 -688.1745
ENERGY: 400000 0.9812 1.1187 1.2462 0.0000 -13940.0630 2419.4200 0.0000 0.0000 696.1239 -10821.1729 117.9877 -11517.2968 -10819.2810 119.9840 623.9749 688.1074 28777.8263 4.0468 4.0155
TCL: Running 100000 steps at 150 kelvin.
TCL: Setting parameter langevinTemp to 150
TCL: Running for 100000 steps
ETITLE: TS BOND ANGLE DIHED IMPRP ELECT VDW BOUNDARY MISC KINETIC TOTAL TEMP POTENTIAL TOTAL3 TEMPAVG PRESSURE GPRESSURE VOLUME PRESSAVG GPRESSAVG
ENERGY: 400000 0.9812 1.1187 1.2462 0.0000 -13940.0630 2419.4200 0.0000 0.0000 695.7681 -10821.5286 117.9274 -11517.2968 -10820.2935 117.9274 632.2750 689.0121 28777.8263 632.2750 689.0121
ENERGY: 500000 2.3791 1.0157 1.6227 0.0000 -13567.6197 2244.2814 0.0000 0.0000 882.1055 -10436.2153 149.5102 -11318.3208 -10434.5994 149.8720 -249.2587 -213.0143 29024.6673 5.3090 5.3108
TCL: Running 100000 steps at 180 kelvin.
TCL: Setting parameter langevinTemp to 180
TCL: Running for 100000 steps
ETITLE: TS BOND ANGLE DIHED IMPRP ELECT VDW BOUNDARY MISC KINETIC TOTAL TEMP POTENTIAL TOTAL3 TEMPAVG PRESSURE GPRESSURE VOLUME PRESSAVG GPRESSAVG
ENERGY: 500000 2.3791 1.0157 1.6227 0.0000 -13567.6197 2244.2814 0.0000 0.0000 881.6607 -10436.6601 149.4348 -11318.3208 -10434.9506 149.4348 -262.3253 -212.1933 29024.6673 -262.3253 -212.1933
ENERGY: 600000 0.2230 2.7460 1.0563 0.0000 -13132.8308 2098.6499 0.0000 0.0000 1095.7350 -9934.4205 185.7187 -11030.1555 -9931.0092 179.9378 -246.0042 -160.0829 29116.0786 4.1213 4.3538
TCL: Running 100000 steps at 210 kelvin.
TCL: Setting parameter langevinTemp to 210
TCL: Running for 100000 steps
ETITLE: TS BOND ANGLE DIHED IMPRP ELECT VDW BOUNDARY MISC KINETIC TOTAL TEMP POTENTIAL TOTAL3 TEMPAVG PRESSURE GPRESSURE VOLUME PRESSAVG GPRESSAVG
ENERGY: 600000 0.2230 2.7460 1.0563 0.0000 -13132.8308 2098.6499 0.0000 0.0000 1095.1879 -9934.9676 185.6260 -11030.1555 -9932.8421 185.6260 -229.0925 -160.2851 29116.0786 -229.0925 -160.2851
ENERGY: 700000 3.5322 3.5634 3.1316 0.0000 -12552.3234 2019.8749 0.0000 0.0000 1233.2957 -9288.9257 209.0342 -10522.2214 -9286.0375 209.6874 1046.2299 1117.0370 28848.8352 4.5247 4.3998
TCL: Running 100000 steps at 240 kelvin.
TCL: Setting parameter langevinTemp to 240
TCL: Running for 100000 steps
ETITLE: TS BOND ANGLE DIHED IMPRP ELECT VDW BOUNDARY MISC KINETIC TOTAL TEMP POTENTIAL TOTAL3 TEMPAVG PRESSURE GPRESSURE VOLUME PRESSAVG GPRESSAVG
ENERGY: 700000 3.5322 3.5634 3.1316 0.0000 -12552.3234 2019.8749 0.0000 0.0000 1232.7028 -9289.5186 208.9337 -10522.2214 -9288.1224 208.9337 1027.4506 1119.5183 28848.8352 1027.4506 1119.5183
ENERGY: 800000 1.0773 3.7001 3.2844 0.0000 -11924.6799 1762.4939 0.0000 0.0000 1389.8726 -8764.2517 235.5728 -10154.1243 -8762.0065 239.5780 243.4568 323.7745 29055.7229 2.6996 2.6688
TCL: Running 100000 steps at 270 kelvin.
TCL: Setting parameter langevinTemp to 270
TCL: Running for 100000 steps
ETITLE: TS BOND ANGLE DIHED IMPRP ELECT VDW BOUNDARY MISC KINETIC TOTAL TEMP POTENTIAL TOTAL3 TEMPAVG PRESSURE GPRESSURE VOLUME PRESSAVG GPRESSAVG
ENERGY: 800000 1.0773 3.7001 3.2844 0.0000 -11924.6799 1762.4939 0.0000 0.0000 1389.1765 -8764.9478 235.4548 -10154.1243 -8762.5135 235.4548 231.6512 324.2427 29055.7229 231.6512 324.2427
ENERGY: 900000 1.0597 4.3725 3.8203 0.0000 -11177.3202 1529.6303 0.0000 0.0000 1587.0017 -8051.4357 268.9847 -9638.4374 -8049.6822 270.4438 -361.9860 -263.2714 30079.5271 3.6245 3.5232
TCL: Running 1000000 steps at 300 kelvin.
TCL: Setting parameter langevinTemp to 300
TCL: Running for 1000000 steps
ETITLE: TS BOND ANGLE DIHED IMPRP ELECT VDW BOUNDARY MISC KINETIC TOTAL TEMP POTENTIAL TOTAL3 TEMPAVG PRESSURE GPRESSURE VOLUME PRESSAVG GPRESSAVG
ENERGY: 900000 1.0597 4.3725 3.8203 0.0000 -11177.3202 1529.6303 0.0000 0.0000 1586.1892 -8052.2482 268.8470 -9638.4374 -8049.9214 268.8470 -343.6744 -263.8546 30079.5271 -343.6744 -263.8546
ENERGY: 1100000 1.4454 2.2243 4.1822 0.0000 -10674.8970 1370.6635 0.0000 0.0000 1735.2369 -7561.1447 294.1094 -9296.3816 -7556.9060 299.5561 -417.8281 -335.8402 30533.7513 2.0669 2.1914
ENERGY: 1300000 2.8345 2.9336 2.9304 0.0000 -10822.6609 1499.7606 0.0000 0.0000 1805.4669 -7508.7349 306.0129 -9314.2018 -7505.8512 300.6526 414.4926 481.3519 30198.5793 2.7662 2.9734
ENERGY: 1500000 2.1655 6.3174 2.7382 0.0000 -10803.2250 1479.0976 0.0000 0.0000 1766.3262 -7546.5801 299.3788 -9312.9063 -7543.5296 300.2439 76.5916 205.3465 30648.9162 4.1285 4.3415
ENERGY: 1700000 4.1050 7.2221 2.5039 0.0000 -10714.7519 1440.5589 0.0000 0.0000 1724.0514 -7536.3106 292.2136 -9260.3620 -7533.3766 301.1952 -12.9735 62.9792 30443.8134 2.5556 2.5779
ENERGY: 1900000 1.6473 4.8369 2.7546 0.0000 -10730.9311 1477.5379 0.0000 0.0000 1746.7462 -7497.4082 296.0602 -9244.1544 -7492.9637 299.9808 455.1408 530.2351 30498.2457 2.1222 2.1801
TCL: Exiting due to exit command.
