Info: SIMULATION PARAMETERS:
Info: TIMESTEP               2
Info: NUMBER OF STEPS        0
Info: STEPS PER CYCLE        10
Info: PERIODIC CELL BASIS 1  34.207 0 0
Info: PERIODIC CELL BASIS 2  0 36.451 0
Info: PERIODIC CELL BASIS 3  0 0 35.723
Info: PERIODIC CELL CENTER   0 0 0
Info: WRAPPING WATERS AROUND PERIODIC BOUNDARIES ON OUTPUT.
Info: WRAPPING ALL CLUSTERS AROUND PERIODIC BOUNDARIES ON OUTPUT.
Info: FIRST LDB TIMESTEP     50
Info: LAST LDB TIMESTEP     -1
Info: HOM BACKGROUND SCALING 1
Info: PME BACKGROUND SCALING 1
Info: MIN ATOMS PER PATCH    40
Info: EMPTY PATCH LOAD       40 ATOMS
Info: INITIAL TEMPERATURE    300
Info: CENTER OF MASS MOVING INITIALLY? NO
Info: DIELECTRIC             1
Info: EXCLUDE                SCALED ONE-FOUR
Info: 1-4 ELECTROSTATICS SCALED BY 0.833333
Info: MODIFIED 1-4 VDW PARAMETERS WILL BE USED
Info: DCD FILENAME           mobley_766666_equil.dcd
Info: DCD FREQUENCY          100000
Info: DCD FIRST STEP         100000
Info: DCD FILE WILL CONTAIN UNIT CELL DATA
Info: XST FILENAME           mobley_766666_equil.xst
Info: XST FREQUENCY          100000
Info: NO VELOCITY DCD OUTPUT
Info: NO FORCE DCD OUTPUT
Info: OUTPUT FILENAME        mobley_766666_equil
Info: BINARY OUTPUT FILES WILL BE USED
Info: RESTART FILENAME       mobley_766666_equil.restart
Info: RESTART FREQUENCY      100000
Info: BINARY RESTART FILES WILL BE USED
Info: CUTOFF                 9
Info: PAIRLIST DISTANCE      11
Info: PAIRLIST SHRINK RATE   0.01
Info: PAIRLIST GROW RATE     0.01
Info: PAIRLIST TRIGGER       0.3
Info: PAIRLISTS PER CYCLE    2
Info: PAIRLISTS ENABLED
Info: MARGIN                 8
Info: HYDROGEN GROUP CUTOFF  2.5
Info: PATCH DIMENSION        21.5
Info: ENERGY OUTPUT STEPS    100000
Info: ENERGY EVALUATION STEPS    100000
Info: OUTPUT ENERGY PRECISION 4
Info: CROSSTERM ENERGY INCLUDED IN DIHEDRAL
Info: TIMING OUTPUT STEPS    1000000
Info: PRESSURE OUTPUT STEPS  100000
Info: LANGEVIN DYNAMICS ACTIVE
Info: LANGEVIN TEMPERATURE   30
Info: LANGEVIN USING BBK INTEGRATOR
Info: LANGEVIN DAMPING COEFFICIENT IS 1 INVERSE PS
Info: LANGEVIN DYNAMICS APPLIED TO HYDROGENS
Info: LANGEVIN PISTON PRESSURE CONTROL ACTIVE
Info:        TARGET PRESSURE IS 1.01325 BAR
Info:     OSCILLATION PERIOD IS 50 FS
Info:             DECAY TIME IS 25 FS
Info:     PISTON TEMPERATURE IS 300 K
Info:       PRESSURE CONTROL IS GROUP-BASED
Info:    INITIAL STRAIN RATE IS 0 0 0
Info:       CELL FLUCTUATION IS ISOTROPIC
Info: PARTICLE MESH EWALD (PME) ACTIVE
Info: PME TOLERANCE               1e-06
Info: PME EWALD COEFFICIENT       0.348832
Info: PME INTERPOLATION ORDER     4
Info: PME GRID DIMENSIONS         36 40 36
Info: PME MAXIMUM GRID SPACING    1
Info: FULL ELECTROSTATIC EVALUATION FREQUENCY      2
Info: USING VERLET I (r-RESPA) MTS SCHEME.
Info: C1 SPLITTING OF LONG RANGE ELECTROSTATICS
Info: PLACING ATOMS IN PATCHES BY HYDROGEN GROUPS
Info: RIGID BONDS TO HYDROGEN : ALL
Info:         ERROR TOLERANCE : 1e-08
Info:          MAX ITERATIONS : 100
Info: RIGID WATER USING SETTLE ALGORITHM
Info: RANDOM NUMBER SEED     1743156367
Info: USE HYDROGEN BONDS?    NO
Info: Using AMBER format force field!
Info: AMBER PARM FILE        mobley_766666.prmtop
Info: COORDINATE PDB         mobley_766666.pdb
Info: Exclusions will be read from PARM file!
Info: SCNB (VDW SCALING)     2
Info: USING ARITHMETIC MEAN TO COMBINE L-J SIGMA PARAMETERS
Info: BINARY COORDINATES     mobley_766666_min.coor
Info: SUMMARY OF PARAMETERS:
Info: 5 BONDS
Info: 4 ANGLES
Info:   4 HARMONIC
Info:   0 COSINE-BASED
Info: 2 DIHEDRAL
Info: 0 IMPROPER
Info: 0 CROSSTERM
Info: 0 VDW
Info: 15 VDW_PAIRS
Info: 0 NBTHOLE_PAIRS
Info: STRUCTURE SUMMARY:
Info: 2955 ATOMS
Info: 2954 BONDS
Info: 6 ANGLES
Info: 6 DIHEDRALS
Info: 0 IMPROPERS
Info: 0 CROSSTERMS
Info: 2964 EXCLUSIONS
Info: 2950 RIGID BONDS
Info: 5915 DEGREES OF FREEDOM
Info: 988 HYDROGEN GROUPS
Info: 3 ATOMS IN LARGEST HYDROGEN GROUP
Info: 988 MIGRATION GROUPS
Info: 3 ATOMS IN LARGEST MIGRATION GROUP
Info: TOTAL MASS = 17841.1 amu
Info: TOTAL CHARGE = 0.000100002 e
Info: MASS DENSITY = 0.665133 g/cm^3
Info: ATOM DENSITY = 0.0663415 atoms/A^3
Info: ADDED 0 IMPLICIT EXCLUSIONS
Info: NONBONDED TABLE R-SQUARED SPACING: 0.0625
Info: NONBONDED TABLE SIZE: 705 POINTS
Info: REMOVING COM VELOCITY -0.155555 -0.0035444 -0.260436
TCL: Running for 100000 steps
ETITLE: TS BOND ANGLE DIHED IMPRP ELECT VDW BOUNDARY MISC KINETIC TOTAL TEMP POTENTIAL TOTAL3 TEMPAVG PRESSURE GPRESSURE VOLUME PRESSAVG GPRESSAVG
ENERGY: 0 0.0063 0.0897 0.0006 0.0000 -13717.1838 2431.7639 0.0000 0.0000 1778.9049 -9506.4183 302.6832 -11285.3233 -9506.0685 302.6832 584.1452 621.2721 44542.2713 584.1452 621.2721
ENERGY: 100000 0.1545 0.3333 0.0057 0.0000 -14282.7135 2516.2961 0.0000 0.0000 173.7224 -11592.2014 29.5591 -11765.9238 -11591.9853 30.9627 62.9405 148.1760 29454.4844 2.9027 2.8709
TCL: Running 100000 steps at 60 kelvin.
TCL: Setting parameter langevinTemp to 60
TCL: Running for 100000 steps
ETITLE: TS BOND ANGLE DIHED IMPRP ELECT VDW BOUNDARY MISC KINETIC TOTAL TEMP POTENTIAL TOTAL3 TEMPAVG PRESSURE GPRESSURE VOLUME PRESSAVG GPRESSAVG
ENERGY: 100000 0.1545 0.3333 0.0057 0.0000 -14282.7135 2516.2961 0.0000 0.0000 173.6318 -11592.2920 29.5437 -11765.9238 -11591.9025 29.5437 80.8731 147.9485 29454.4844 80.8731 147.9485
ENERGY: 200000 0.3615 0.7974 0.4452 0.0000 -14096.7162 2393.1070 0.0000 0.0000 349.8473 -11352.1577 59.5270 -11702.0051 -11351.6473 60.0710 -374.1631 -302.4826 28928.1433 4.4332 4.4178
TCL: Running 100000 steps at 90 kelvin.
TCL: Setting parameter langevinTemp to 90
TCL: Running for 100000 steps
ETITLE: TS BOND ANGLE DIHED IMPRP ELECT VDW BOUNDARY MISC KINETIC TOTAL TEMP POTENTIAL TOTAL3 TEMPAVG PRESSURE GPRESSURE VOLUME PRESSAVG GPRESSAVG
ENERGY: 200000 0.3615 0.7974 0.4452 0.0000 -14096.7162 2393.1070 0.0000 0.0000 349.6749 -11352.3302 59.4977 -11702.0051 -11351.5142 59.4977 -362.6796 -302.7285 28928.1433 -362.6796 -302.7285
ENERGY: 300000 0.2812 0.4487 0.3065 0.0000 -13976.3720 2369.9271 0.0000 0.0000 542.6178 -11062.7908 92.3272 -11605.4085 -11061.8813 89.9067 -113.4657 -54.2892 28823.6192 4.0410 4.0593
TCL: Running 100000 steps at 120 kelvin.
TCL: Setting parameter langevinTemp to 120
TCL: Running for 100000 steps
ETITLE: TS BOND ANGLE DIHED IMPRP ELECT VDW BOUNDARY MISC KINETIC TOTAL TEMP POTENTIAL TOTAL3 TEMPAVG PRESSURE GPRESSURE VOLUME PRESSAVG GPRESSAVG
ENERGY: 300000 0.2812 0.4487 0.3065 0.0000 -13976.3720 2369.9271 0.0000 0.0000 542.3560 -11063.0526 92.2826 -11605.4085 -11061.9504 92.2826 -120.0287 -54.3197 28823.6192 -120.0287 -54.3197
ENERGY: 400000 0.8320 1.6245 0.2009 0.0000 -13766.1962 2301.4671 0.0000 0.0000 679.1200 -10782.9517 115.5532 -11462.0716 -10780.3689 119.8186 -473.5626 -417.0496 29232.3734 2.5824 2.6266
TCL: Running 100000 steps at 150 kelvin.
TCL: Setting parameter langevinTemp to 150
TCL: Running for 100000 steps
ETITLE: TS BOND ANGLE DIHED IMPRP ELECT VDW BOUNDARY MISC KINETIC TOTAL TEMP POTENTIAL TOTAL3 TEMPAVG PRESSURE GPRESSURE VOLUME PRESSAVG GPRESSAVG
ENERGY: 400000 0.8320 1.6245 0.2009 0.0000 -13766.1962 2301.4671 0.0000 0.0000 678.7744 -10783.2972 115.4944 -11462.0716 -10782.0835 115.4944 -466.1945 -415.4635 29232.3734 -466.1945 -415.4635
ENERGY: 500000 1.6912 0.5124 0.1717 0.0000 -13453.0060 2157.1561 0.0000 0.0000 884.0662 -10409.4085 150.4251 -11293.4747 -10407.1176 149.8607 -648.1441 -650.8126 29223.2703 3.9978 3.9676
TCL: Running 100000 steps at 180 kelvin.
TCL: Setting parameter langevinTemp to 180
TCL: Running for 100000 steps
ETITLE: TS BOND ANGLE DIHED IMPRP ELECT VDW BOUNDARY MISC KINETIC TOTAL TEMP POTENTIAL TOTAL3 TEMPAVG PRESSURE GPRESSURE VOLUME PRESSAVG GPRESSAVG
ENERGY: 500000 1.6912 0.5124 0.1717 0.0000 -13453.0060 2157.1561 0.0000 0.0000 883.6283 -10409.8464 150.3506 -11293.4747 -10408.2943 150.3506 -701.5233 -650.1209 29223.2703 -701.5233 -650.1209
ENERGY: 600000 2.4545 0.6644 0.8470 0.0000 -13187.7050 2156.3244 0.0000 0.0000 1038.2758 -9989.1390 176.6641 -11027.4148 -9985.2829 180.0870 115.9617 134.5145 29158.5376 3.5745 3.5775
TCL: Running 100000 steps at 210 kelvin.
TCL: Setting parameter langevinTemp to 210
TCL: Running for 100000 steps
ETITLE: TS BOND ANGLE DIHED IMPRP ELECT VDW BOUNDARY MISC KINETIC TOTAL TEMP POTENTIAL TOTAL3 TEMPAVG PRESSURE GPRESSURE VOLUME PRESSAVG GPRESSAVG
ENERGY: 600000 2.4545 0.6644 0.8470 0.0000 -13187.7050 2156.3244 0.0000 0.0000 1037.7373 -9989.6775 176.5725 -11027.4148 -9987.3583 176.5725 75.9633 136.4271 29158.5376 75.9633 136.4271
ENERGY: 700000 0.4684 2.1242 0.3372 0.0000 -12582.5485 1941.3347 0.0000 0.0000 1225.7565 -9412.5276 208.5642 -10638.2841 -9408.7578 210.0076 371.6642 435.4241 28378.0316 4.1845 4.1487
TCL: Running 100000 steps at 240 kelvin.
TCL: Setting parameter langevinTemp to 240
TCL: Running for 100000 steps
ETITLE: TS BOND ANGLE DIHED IMPRP ELECT VDW BOUNDARY MISC KINETIC TOTAL TEMP POTENTIAL TOTAL3 TEMPAVG PRESSURE GPRESSURE VOLUME PRESSAVG GPRESSAVG
ENERGY: 700000 0.4684 2.1242 0.3372 0.0000 -12582.5485 1941.3347 0.0000 0.0000 1225.1730 -9413.1111 208.4650 -10638.2841 -9411.1316 208.4650 364.6825 436.6880 28378.0316 364.6825 436.6880
ENERGY: 800000 1.6173 2.9920 0.4453 0.0000 -11817.5369 1753.7786 0.0000 0.0000 1446.4284 -8612.2753 246.1119 -10058.7037 -8609.6678 239.9986 291.8321 408.9043 29334.2458 2.7516 2.8271
TCL: Running 100000 steps at 270 kelvin.
TCL: Setting parameter langevinTemp to 270
TCL: Running for 100000 steps
ETITLE: TS BOND ANGLE DIHED IMPRP ELECT VDW BOUNDARY MISC KINETIC TOTAL TEMP POTENTIAL TOTAL3 TEMPAVG PRESSURE GPRESSURE VOLUME PRESSAVG GPRESSAVG
ENERGY: 800000 1.6173 2.9920 0.4453 0.0000 -11817.5369 1753.7786 0.0000 0.0000 1445.7511 -8612.9526 245.9966 -10058.7037 -8610.7235 245.9966 340.1121 410.1359 29334.2458 340.1121 410.1359
ENERGY: 900000 1.1405 0.5901 1.7854 0.0000 -11276.5693 1542.3475 0.0000 0.0000 1591.7223 -8138.9835 270.8338 -9730.7058 -8134.6625 270.0291 -317.8686 -178.0409 29744.9837 3.1191 3.1277
TCL: Running 1000000 steps at 300 kelvin.
TCL: Setting parameter langevinTemp to 300
TCL: Running for 1000000 steps
ETITLE: TS BOND ANGLE DIHED IMPRP ELECT VDW BOUNDARY MISC KINETIC TOTAL TEMP POTENTIAL TOTAL3 TEMPAVG PRESSURE GPRESSURE VOLUME PRESSAVG GPRESSAVG
ENERGY: 900000 1.1405 0.5901 1.7854 0.0000 -11276.5693 1542.3475 0.0000 0.0000 1590.9426 -8139.7632 270.7012 -9730.7058 -8137.2125 270.7012 -260.2565 -177.6133 29744.9837 -260.2565 -177.6133
ENERGY: 1100000 1.1070 0.7449 1.2536 0.0000 -10879.3746 1478.1662 0.0000 0.0000 1745.0746 -7653.0283 296.9270 -9398.1029 -7651.7738 300.5966 -54.5906 24.8558 30467.5031 3.5360 3.6117
ENERGY: 1300000 0.2712 0.5861 0.1342 0.0000 -10820.2301 1459.0217 0.0000 0.0000 1789.8089 -7570.4080 304.5386 -9360.2169 -7566.0325 299.9661 -85.7517 29.9830 30322.8121 3.4734 3.4701
ENERGY: 1500000 3.6279 0.1534 0.5346 0.0000 -10941.2312 1576.2345 0.0000 0.0000 1745.5503 -7615.1305 297.0079 -9360.6808 -7612.0497 299.1045 714.3401 788.7929 30606.8219 2.0865 2.2499
ENERGY: 1700000 2.4900 0.5937 2.3875 0.0000 -10710.6257 1374.4595 0.0000 0.0000 1790.8754 -7539.8197 304.7200 -9330.6952 -7538.0958 300.7712 -975.7705 -864.0304 30794.8756 3.6413 3.6095
ENERGY: 1900000 1.1212 0.6398 0.7937 0.0000 -10958.0586 1531.8598 0.0000 0.0000 1789.1230 -7634.5210 304.4219 -9423.6440 -7631.4457 300.2161 892.4610 985.1625 29498.2748 2.8675 3.0442
TCL: Exiting due to exit command.
