Info: SIMULATION PARAMETERS:
Info: TIMESTEP               2
Info: NUMBER OF STEPS        0
Info: STEPS PER CYCLE        10
Info: PERIODIC CELL BASIS 1  34.207 0 0
Info: PERIODIC CELL BASIS 2  0 37.835 0
Info: PERIODIC CELL BASIS 3  0 0 34.68
Info: PERIODIC CELL CENTER   0 0 0
Info: WRAPPING WATERS AROUND PERIODIC BOUNDARIES ON OUTPUT.
Info: WRAPPING ALL CLUSTERS AROUND PERIODIC BOUNDARIES ON OUTPUT.
Info: FIRST LDB TIMESTEP     50
Info: LAST LDB TIMESTEP     -1
Info: HOM BACKGROUND SCALING 1
Info: PME BACKGROUND SCALING 1
Info: MIN ATOMS PER PATCH    40
Info: EMPTY PATCH LOAD       40 ATOMS
Info: INITIAL TEMPERATURE    300
Info: CENTER OF MASS MOVING INITIALLY? NO
Info: DIELECTRIC             1
Info: EXCLUDE                SCALED ONE-FOUR
Info: 1-4 ELECTROSTATICS SCALED BY 0.833333
Info: MODIFIED 1-4 VDW PARAMETERS WILL BE USED
Info: DCD FILENAME           mobley_2725215_equil.dcd
Info: DCD FREQUENCY          100000
Info: DCD FIRST STEP         100000
Info: DCD FILE WILL CONTAIN UNIT CELL DATA
Info: XST FILENAME           mobley_2725215_equil.xst
Info: XST FREQUENCY          100000
Info: NO VELOCITY DCD OUTPUT
Info: NO FORCE DCD OUTPUT
Info: OUTPUT FILENAME        mobley_2725215_equil
Info: BINARY OUTPUT FILES WILL BE USED
Info: RESTART FILENAME       mobley_2725215_equil.restart
Info: RESTART FREQUENCY      100000
Info: BINARY RESTART FILES WILL BE USED
Info: CUTOFF                 9
Info: PAIRLIST DISTANCE      11
Info: PAIRLIST SHRINK RATE   0.01
Info: PAIRLIST GROW RATE     0.01
Info: PAIRLIST TRIGGER       0.3
Info: PAIRLISTS PER CYCLE    2
Info: PAIRLISTS ENABLED
Info: MARGIN                 8
Info: HYDROGEN GROUP CUTOFF  2.5
Info: PATCH DIMENSION        21.5
Info: ENERGY OUTPUT STEPS    100000
Info: ENERGY EVALUATION STEPS    100000
Info: OUTPUT ENERGY PRECISION 4
Info: CROSSTERM ENERGY INCLUDED IN DIHEDRAL
Info: TIMING OUTPUT STEPS    1000000
Info: PRESSURE OUTPUT STEPS  100000
Info: LANGEVIN DYNAMICS ACTIVE
Info: LANGEVIN TEMPERATURE   30
Info: LANGEVIN USING BBK INTEGRATOR
Info: LANGEVIN DAMPING COEFFICIENT IS 1 INVERSE PS
Info: LANGEVIN DYNAMICS APPLIED TO HYDROGENS
Info: LANGEVIN PISTON PRESSURE CONTROL ACTIVE
Info:        TARGET PRESSURE IS 1.01325 BAR
Info:     OSCILLATION PERIOD IS 50 FS
Info:             DECAY TIME IS 25 FS
Info:     PISTON TEMPERATURE IS 300 K
Info:       PRESSURE CONTROL IS GROUP-BASED
Info:    INITIAL STRAIN RATE IS 0 0 0
Info:       CELL FLUCTUATION IS ISOTROPIC
Info: PARTICLE MESH EWALD (PME) ACTIVE
Info: PME TOLERANCE               1e-06
Info: PME EWALD COEFFICIENT       0.348832
Info: PME INTERPOLATION ORDER     4
Info: PME GRID DIMENSIONS         36 40 36
Info: PME MAXIMUM GRID SPACING    1
Info: FULL ELECTROSTATIC EVALUATION FREQUENCY      2
Info: USING VERLET I (r-RESPA) MTS SCHEME.
Info: C1 SPLITTING OF LONG RANGE ELECTROSTATICS
Info: PLACING ATOMS IN PATCHES BY HYDROGEN GROUPS
Info: RIGID BONDS TO HYDROGEN : ALL
Info:         ERROR TOLERANCE : 1e-08
Info:          MAX ITERATIONS : 100
Info: RIGID WATER USING SETTLE ALGORITHM
Info: RANDOM NUMBER SEED     1743377043
Info: USE HYDROGEN BONDS?    NO
Info: Using AMBER format force field!
Info: AMBER PARM FILE        mobley_2725215.prmtop
Info: COORDINATE PDB         mobley_2725215.pdb
Info: Exclusions will be read from PARM file!
Info: SCNB (VDW SCALING)     2
Info: USING ARITHMETIC MEAN TO COMBINE L-J SIGMA PARAMETERS
Info: BINARY COORDINATES     mobley_2725215_min.coor
Info: SUMMARY OF PARAMETERS:
Info: 14 BONDS
Info: 21 ANGLES
Info:   21 HARMONIC
Info:   0 COSINE-BASED
Info: 10 DIHEDRAL
Info: 0 IMPROPER
Info: 0 CROSSTERM
Info: 0 VDW
Info: 55 VDW_PAIRS
Info: 0 NBTHOLE_PAIRS
Info: STRUCTURE SUMMARY:
Info: 2937 ATOMS
Info: 2937 BONDS
Info: 75 ANGLES
Info: 106 DIHEDRALS
Info: 0 IMPROPERS
Info: 0 CROSSTERMS
Info: 3108 EXCLUSIONS
Info: 2914 RIGID BONDS
Info: 5897 DEGREES OF FREEDOM
Info: 988 HYDROGEN GROUPS
Info: 4 ATOMS IN LARGEST HYDROGEN GROUP
Info: 988 MIGRATION GROUPS
Info: 4 ATOMS IN LARGEST MIGRATION GROUP
Info: TOTAL MASS = 17730.8 amu
Info: TOTAL CHARGE = 8.19564e-08 e
Info: MASS DENSITY = 0.655994 g/cm^3
Info: ATOM DENSITY = 0.0654359 atoms/A^3
Info: ADDED 0 IMPLICIT EXCLUSIONS
Info: NONBONDED TABLE R-SQUARED SPACING: 0.0625
Info: NONBONDED TABLE SIZE: 705 POINTS
Info: REMOVING COM VELOCITY -0.122799 0.083827 0.151347
TCL: Running for 100000 steps
ETITLE: TS BOND ANGLE DIHED IMPRP ELECT VDW BOUNDARY MISC KINETIC TOTAL TEMP POTENTIAL TOTAL3 TEMPAVG PRESSURE GPRESSURE VOLUME PRESSAVG GPRESSAVG
ENERGY: 0 0.7709 1.9088 23.1599 0.0000 -13536.9195 2378.2545 0.0000 0.0000 1762.8366 -9369.9888 300.8648 -11132.8254 -9369.6212 300.8648 602.0094 632.9528 44883.6136 602.0094 632.9528
ENERGY: 100000 1.5705 4.2917 23.0745 0.0000 -14180.5850 2475.6608 0.0000 0.0000 173.5854 -11502.4020 29.6260 -11675.9874 -11502.0199 30.9610 635.7778 719.1960 28183.7537 4.0277 4.0628
TCL: Running 100000 steps at 60 kelvin.
TCL: Setting parameter langevinTemp to 60
TCL: Running for 100000 steps
ETITLE: TS BOND ANGLE DIHED IMPRP ELECT VDW BOUNDARY MISC KINETIC TOTAL TEMP POTENTIAL TOTAL3 TEMPAVG PRESSURE GPRESSURE VOLUME PRESSAVG GPRESSAVG
ENERGY: 100000 1.5705 4.2917 23.0745 0.0000 -14180.5850 2475.6608 0.0000 0.0000 173.4987 -11502.4887 29.6112 -11675.9874 -11502.0825 29.6112 651.9864 719.3010 28183.7537 651.9864 719.3010
ENERGY: 200000 3.1322 4.5346 23.3597 0.0000 -13866.1856 2247.6302 0.0000 0.0000 358.8221 -11228.7068 61.2405 -11587.5289 -11227.3105 59.9705 -932.7743 -870.0897 28332.0927 5.1856 5.2084
TCL: Running 100000 steps at 90 kelvin.
TCL: Setting parameter langevinTemp to 90
TCL: Running for 100000 steps
ETITLE: TS BOND ANGLE DIHED IMPRP ELECT VDW BOUNDARY MISC KINETIC TOTAL TEMP POTENTIAL TOTAL3 TEMPAVG PRESSURE GPRESSURE VOLUME PRESSAVG GPRESSAVG
ENERGY: 200000 3.1322 4.5346 23.3597 0.0000 -13866.1856 2247.6302 0.0000 0.0000 358.6463 -11228.8827 61.2104 -11587.5289 -11227.9647 61.2104 -940.2066 -869.1974 28332.0927 -940.2066 -869.1974
ENERGY: 300000 4.7619 8.5285 23.5827 0.0000 -13812.5066 2290.6907 0.0000 0.0000 527.7428 -10957.1998 90.0703 -11484.9427 -10955.7278 90.2826 -341.3032 -267.9800 28318.5939 3.1289 3.2307
TCL: Running 100000 steps at 120 kelvin.
TCL: Setting parameter langevinTemp to 120
TCL: Running for 100000 steps
ETITLE: TS BOND ANGLE DIHED IMPRP ELECT VDW BOUNDARY MISC KINETIC TOTAL TEMP POTENTIAL TOTAL3 TEMPAVG PRESSURE GPRESSURE VOLUME PRESSAVG GPRESSAVG
ENERGY: 300000 4.7619 8.5285 23.5827 0.0000 -13812.5066 2290.6907 0.0000 0.0000 527.4868 -10957.4559 90.0266 -11484.9427 -10956.3856 90.0266 -331.8741 -267.8240 28318.5939 -331.8741 -267.8240
ENERGY: 400000 2.3363 7.9005 25.3059 0.0000 -13675.5400 2273.1869 0.0000 0.0000 710.3485 -10656.4618 121.2358 -11366.8104 -10655.1725 120.1315 143.0608 229.5227 28451.9010 5.0824 5.1106
TCL: Running 100000 steps at 150 kelvin.
TCL: Setting parameter langevinTemp to 150
TCL: Running for 100000 steps
ETITLE: TS BOND ANGLE DIHED IMPRP ELECT VDW BOUNDARY MISC KINETIC TOTAL TEMP POTENTIAL TOTAL3 TEMPAVG PRESSURE GPRESSURE VOLUME PRESSAVG GPRESSAVG
ENERGY: 400000 2.3363 7.9005 25.3059 0.0000 -13675.5400 2273.1869 0.0000 0.0000 709.9837 -10656.8266 121.1735 -11366.8104 -10655.1245 121.1735 170.6282 228.2686 28451.9010 170.6282 228.2686
ENERGY: 500000 3.1362 7.6648 26.5406 0.0000 -13497.1144 2231.0001 0.0000 0.0000 898.4334 -10330.3393 153.3363 -11228.7727 -10326.4800 150.0289 -25.7121 33.6316 28883.5653 4.0535 3.9284
TCL: Running 100000 steps at 180 kelvin.
TCL: Setting parameter langevinTemp to 180
TCL: Running for 100000 steps
ETITLE: TS BOND ANGLE DIHED IMPRP ELECT VDW BOUNDARY MISC KINETIC TOTAL TEMP POTENTIAL TOTAL3 TEMPAVG PRESSURE GPRESSURE VOLUME PRESSAVG GPRESSAVG
ENERGY: 500000 3.1362 7.6648 26.5406 0.0000 -13497.1144 2231.0001 0.0000 0.0000 897.9996 -10330.7730 153.2623 -11228.7727 -10328.9240 153.2623 -14.3496 35.4014 28883.5653 -14.3496 35.4014
ENERGY: 600000 3.1764 11.2630 25.7117 0.0000 -12969.5957 2015.1403 0.0000 0.0000 1074.0207 -9840.2836 183.3040 -10914.3043 -9837.3270 179.8659 -579.9978 -491.1846 28891.6851 4.9174 4.8709
TCL: Running 100000 steps at 210 kelvin.
TCL: Setting parameter langevinTemp to 210
TCL: Running for 100000 steps
ETITLE: TS BOND ANGLE DIHED IMPRP ELECT VDW BOUNDARY MISC KINETIC TOTAL TEMP POTENTIAL TOTAL3 TEMPAVG PRESSURE GPRESSURE VOLUME PRESSAVG GPRESSAVG
ENERGY: 600000 3.1764 11.2630 25.7117 0.0000 -12969.5957 2015.1403 0.0000 0.0000 1073.4986 -9840.8057 183.2149 -10914.3043 -9838.6809 183.2149 -549.0722 -490.8859 28891.6851 -549.0722 -490.8859
ENERGY: 700000 8.6272 16.8056 24.8697 0.0000 -12247.5094 1778.2684 0.0000 0.0000 1249.8766 -9169.0619 213.3175 -10418.9385 -9166.6010 209.7006 -705.6685 -639.7789 28922.1384 3.4471 3.4140
TCL: Running 100000 steps at 240 kelvin.
TCL: Setting parameter langevinTemp to 240
TCL: Running for 100000 steps
ETITLE: TS BOND ANGLE DIHED IMPRP ELECT VDW BOUNDARY MISC KINETIC TOTAL TEMP POTENTIAL TOTAL3 TEMPAVG PRESSURE GPRESSURE VOLUME PRESSAVG GPRESSAVG
ENERGY: 700000 8.6272 16.8056 24.8697 0.0000 -12247.5094 1778.2684 0.0000 0.0000 1249.2743 -9169.6642 213.2147 -10418.9385 -9167.4319 213.2147 -701.9605 -639.9575 28922.1384 -701.9605 -639.9575
ENERGY: 800000 12.9296 14.0237 25.1310 0.0000 -11510.2060 1512.4641 0.0000 0.0000 1414.6486 -8531.0090 241.4392 -9945.6577 -8527.3917 239.4874 -1323.7081 -1222.0473 29106.0045 3.3055 3.2668
TCL: Running 100000 steps at 270 kelvin.
TCL: Setting parameter langevinTemp to 270
TCL: Running for 100000 steps
ETITLE: TS BOND ANGLE DIHED IMPRP ELECT VDW BOUNDARY MISC KINETIC TOTAL TEMP POTENTIAL TOTAL3 TEMPAVG PRESSURE GPRESSURE VOLUME PRESSAVG GPRESSAVG
ENERGY: 800000 12.9296 14.0237 25.1310 0.0000 -11510.2060 1512.4641 0.0000 0.0000 1413.9422 -8531.7154 241.3187 -9945.6577 -8529.1862 241.3187 -1294.4499 -1221.3162 29106.0045 -1294.4499 -1221.3162
ENERGY: 900000 9.9967 12.8983 24.3094 0.0000 -11025.5633 1425.4246 0.0000 0.0000 1547.9870 -8004.9472 264.1962 -9552.9342 -8002.1122 269.9311 -878.4556 -796.7482 29604.9901 4.2818 4.3942
TCL: Running 1000000 steps at 300 kelvin.
TCL: Setting parameter langevinTemp to 300
TCL: Running for 1000000 steps
ETITLE: TS BOND ANGLE DIHED IMPRP ELECT VDW BOUNDARY MISC KINETIC TOTAL TEMP POTENTIAL TOTAL3 TEMPAVG PRESSURE GPRESSURE VOLUME PRESSAVG GPRESSAVG
ENERGY: 900000 9.9967 12.8983 24.3094 0.0000 -11025.5633 1425.4246 0.0000 0.0000 1547.2170 -8005.7172 264.0648 -9552.9342 -8003.1025 264.0648 -892.5170 -797.6956 29604.9901 -892.5170 -797.6956
ENERGY: 1100000 6.9942 15.8845 28.2489 0.0000 -10528.6490 1319.3973 0.0000 0.0000 1775.5321 -7382.5920 303.0315 -9158.1241 -7380.1827 300.3053 -1037.5863 -914.5863 30584.1335 1.7130 1.7422
ENERGY: 1300000 8.7628 18.4088 24.8653 0.0000 -10491.8348 1352.1022 0.0000 0.0000 1743.5183 -7344.1773 297.5677 -9087.6956 -7342.2744 301.0222 -113.4124 -77.2488 30058.4137 3.7539 3.8177
ENERGY: 1500000 11.8316 26.0892 26.3086 0.0000 -10721.6863 1455.6769 0.0000 0.0000 1751.5187 -7450.2612 298.9331 -9201.7799 -7447.3543 300.3806 79.3426 179.1060 30455.4739 3.2612 3.4696
ENERGY: 1700000 14.5353 19.0578 27.6328 0.0000 -10557.0748 1299.1370 0.0000 0.0000 1747.4914 -7449.2204 298.2458 -9196.7118 -7447.3067 300.1190 -974.1788 -863.3494 30681.4987 2.5345 2.4089
ENERGY: 1900000 6.6875 13.6037 27.0087 0.0000 -10683.2043 1475.0690 0.0000 0.0000 1747.7189 -7413.1166 298.2846 -9160.8355 -7407.3413 300.0960 731.1378 753.3311 30264.3141 4.3388 4.3836
TCL: Exiting due to exit command.
