Info: SIMULATION PARAMETERS:
Info: TIMESTEP               2
Info: NUMBER OF STEPS        0
Info: STEPS PER CYCLE        10
Info: PERIODIC CELL BASIS 1  34.986 0 0
Info: PERIODIC CELL BASIS 2  0 36.611 0
Info: PERIODIC CELL BASIS 3  0 0 35.723
Info: PERIODIC CELL CENTER   0 0 0
Info: WRAPPING WATERS AROUND PERIODIC BOUNDARIES ON OUTPUT.
Info: WRAPPING ALL CLUSTERS AROUND PERIODIC BOUNDARIES ON OUTPUT.
Info: FIRST LDB TIMESTEP     50
Info: LAST LDB TIMESTEP     -1
Info: HOM BACKGROUND SCALING 1
Info: PME BACKGROUND SCALING 1
Info: MIN ATOMS PER PATCH    40
Info: EMPTY PATCH LOAD       40 ATOMS
Info: INITIAL TEMPERATURE    300
Info: CENTER OF MASS MOVING INITIALLY? NO
Info: DIELECTRIC             1
Info: EXCLUDE                SCALED ONE-FOUR
Info: 1-4 ELECTROSTATICS SCALED BY 0.833333
Info: MODIFIED 1-4 VDW PARAMETERS WILL BE USED
Info: DCD FILENAME           mobley_6334915_equil.dcd
Info: DCD FREQUENCY          100000
Info: DCD FIRST STEP         100000
Info: DCD FILE WILL CONTAIN UNIT CELL DATA
Info: XST FILENAME           mobley_6334915_equil.xst
Info: XST FREQUENCY          100000
Info: NO VELOCITY DCD OUTPUT
Info: NO FORCE DCD OUTPUT
Info: OUTPUT FILENAME        mobley_6334915_equil
Info: BINARY OUTPUT FILES WILL BE USED
Info: RESTART FILENAME       mobley_6334915_equil.restart
Info: RESTART FREQUENCY      100000
Info: BINARY RESTART FILES WILL BE USED
Info: CUTOFF                 9
Info: PAIRLIST DISTANCE      11
Info: PAIRLIST SHRINK RATE   0.01
Info: PAIRLIST GROW RATE     0.01
Info: PAIRLIST TRIGGER       0.3
Info: PAIRLISTS PER CYCLE    2
Info: PAIRLISTS ENABLED
Info: MARGIN                 8
Info: HYDROGEN GROUP CUTOFF  2.5
Info: PATCH DIMENSION        21.5
Info: ENERGY OUTPUT STEPS    100000
Info: ENERGY EVALUATION STEPS    100000
Info: OUTPUT ENERGY PRECISION 4
Info: CROSSTERM ENERGY INCLUDED IN DIHEDRAL
Info: TIMING OUTPUT STEPS    1000000
Info: PRESSURE OUTPUT STEPS  100000
Info: LANGEVIN DYNAMICS ACTIVE
Info: LANGEVIN TEMPERATURE   30
Info: LANGEVIN USING BBK INTEGRATOR
Info: LANGEVIN DAMPING COEFFICIENT IS 1 INVERSE PS
Info: LANGEVIN DYNAMICS APPLIED TO HYDROGENS
Info: LANGEVIN PISTON PRESSURE CONTROL ACTIVE
Info:        TARGET PRESSURE IS 1.01325 BAR
Info:     OSCILLATION PERIOD IS 50 FS
Info:             DECAY TIME IS 25 FS
Info:     PISTON TEMPERATURE IS 300 K
Info:       PRESSURE CONTROL IS GROUP-BASED
Info:    INITIAL STRAIN RATE IS 0 0 0
Info:       CELL FLUCTUATION IS ISOTROPIC
Info: PARTICLE MESH EWALD (PME) ACTIVE
Info: PME TOLERANCE               1e-06
Info: PME EWALD COEFFICIENT       0.348832
Info: PME INTERPOLATION ORDER     4
Info: PME GRID DIMENSIONS         36 40 36
Info: PME MAXIMUM GRID SPACING    1
Info: FULL ELECTROSTATIC EVALUATION FREQUENCY      2
Info: USING VERLET I (r-RESPA) MTS SCHEME.
Info: C1 SPLITTING OF LONG RANGE ELECTROSTATICS
Info: PLACING ATOMS IN PATCHES BY HYDROGEN GROUPS
Info: RIGID BONDS TO HYDROGEN : ALL
Info:         ERROR TOLERANCE : 1e-08
Info:          MAX ITERATIONS : 100
Info: RIGID WATER USING SETTLE ALGORITHM
Info: RANDOM NUMBER SEED     1743250958
Info: USE HYDROGEN BONDS?    NO
Info: Using AMBER format force field!
Info: AMBER PARM FILE        mobley_6334915.prmtop
Info: COORDINATE PDB         mobley_6334915.pdb
Info: Exclusions will be read from PARM file!
Info: SCNB (VDW SCALING)     2
Info: USING ARITHMETIC MEAN TO COMBINE L-J SIGMA PARAMETERS
Info: BINARY COORDINATES     mobley_6334915_min.coor
Info: SUMMARY OF PARAMETERS:
Info: 11 BONDS
Info: 16 ANGLES
Info:   16 HARMONIC
Info:   0 COSINE-BASED
Info: 12 DIHEDRAL
Info: 0 IMPROPER
Info: 0 CROSSTERM
Info: 0 VDW
Info: 45 VDW_PAIRS
Info: 0 NBTHOLE_PAIRS
Info: STRUCTURE SUMMARY:
Info: 2987 ATOMS
Info: 2986 BONDS
Info: 33 ANGLES
Info: 41 DIHEDRALS
Info: 0 IMPROPERS
Info: 0 CROSSTERMS
Info: 3052 EXCLUSIONS
Info: 2975 RIGID BONDS
Info: 5986 DEGREES OF FREEDOM
Info: 1001 HYDROGEN GROUPS
Info: 4 ATOMS IN LARGEST HYDROGEN GROUP
Info: 1001 MIGRATION GROUPS
Info: 4 ATOMS IN LARGEST MIGRATION GROUP
Info: TOTAL MASS = 18075.2 amu
Info: TOTAL CHARGE = -9.99272e-05 e
Info: MASS DENSITY = 0.655979 g/cm^3
Info: ATOM DENSITY = 0.0652802 atoms/A^3
Info: ADDED 0 IMPLICIT EXCLUSIONS
Info: NONBONDED TABLE R-SQUARED SPACING: 0.0625
Info: NONBONDED TABLE SIZE: 705 POINTS
Info: REMOVING COM VELOCITY 0.0561125 -0.11503 -0.0628922
TCL: Running for 100000 steps
ETITLE: TS BOND ANGLE DIHED IMPRP ELECT VDW BOUNDARY MISC KINETIC TOTAL TEMP POTENTIAL TOTAL3 TEMPAVG PRESSURE GPRESSURE VOLUME PRESSAVG GPRESSAVG
ENERGY: 0 0.7501 3.4600 6.7905 0.0000 -13861.5768 2467.7258 0.0000 0.0000 1801.3987 -9581.4516 302.8751 -11382.8503 -9581.0797 302.8751 582.1340 616.6263 45756.6064 582.1340 616.6263
ENERGY: 100000 0.9857 3.8344 7.7121 0.0000 -14437.1985 2554.4695 0.0000 0.0000 182.8876 -11687.3092 30.7495 -11870.1968 -11686.6528 30.8866 535.3683 587.5239 29224.1168 3.7558 3.6935
TCL: Running 100000 steps at 60 kelvin.
TCL: Setting parameter langevinTemp to 60
TCL: Running for 100000 steps
ETITLE: TS BOND ANGLE DIHED IMPRP ELECT VDW BOUNDARY MISC KINETIC TOTAL TEMP POTENTIAL TOTAL3 TEMPAVG PRESSURE GPRESSURE VOLUME PRESSAVG GPRESSAVG
ENERGY: 100000 0.9857 3.8344 7.7121 0.0000 -14437.1985 2554.4695 0.0000 0.0000 182.7973 -11687.3995 30.7343 -11870.1968 -11687.0017 30.7343 535.1302 587.7565 29224.1168 535.1302 587.7565
ENERGY: 200000 1.0400 6.2940 7.3649 0.0000 -14201.1605 2409.6647 0.0000 0.0000 356.5337 -11420.2633 59.9452 -11776.7970 -11418.7819 59.8820 -279.1008 -228.6231 29207.9256 3.2190 3.3197
TCL: Running 100000 steps at 90 kelvin.
TCL: Setting parameter langevinTemp to 90
TCL: Running for 100000 steps
ETITLE: TS BOND ANGLE DIHED IMPRP ELECT VDW BOUNDARY MISC KINETIC TOTAL TEMP POTENTIAL TOTAL3 TEMPAVG PRESSURE GPRESSURE VOLUME PRESSAVG GPRESSAVG
ENERGY: 200000 1.0400 6.2940 7.3649 0.0000 -14201.1605 2409.6647 0.0000 0.0000 356.3517 -11420.4453 59.9146 -11776.7970 -11419.6875 59.9146 -271.2792 -228.2099 29207.9256 -271.2792 -228.2099
ENERGY: 300000 1.4642 6.0551 7.6315 0.0000 -14067.6923 2354.9234 0.0000 0.0000 542.7453 -11154.8728 91.2535 -11697.6181 -11153.5460 90.0821 -463.3315 -430.0100 29472.6519 2.5545 2.5835
TCL: Running 100000 steps at 120 kelvin.
TCL: Setting parameter langevinTemp to 120
TCL: Running for 100000 steps
ETITLE: TS BOND ANGLE DIHED IMPRP ELECT VDW BOUNDARY MISC KINETIC TOTAL TEMP POTENTIAL TOTAL3 TEMPAVG PRESSURE GPRESSURE VOLUME PRESSAVG GPRESSAVG
ENERGY: 300000 1.4642 6.0551 7.6315 0.0000 -14067.6923 2354.9234 0.0000 0.0000 542.4808 -11155.1373 91.2091 -11697.6181 -11153.8403 91.2091 -471.5717 -430.8733 29472.6519 -471.5717 -430.8733
ENERGY: 400000 1.5160 8.8764 7.5588 0.0000 -13937.6224 2354.8629 0.0000 0.0000 698.1476 -10866.6608 117.3818 -11564.8083 -10865.2910 119.9559 72.5890 134.0863 29369.1160 2.7254 2.6620
TCL: Running 100000 steps at 150 kelvin.
TCL: Setting parameter langevinTemp to 150
TCL: Running for 100000 steps
ETITLE: TS BOND ANGLE DIHED IMPRP ELECT VDW BOUNDARY MISC KINETIC TOTAL TEMP POTENTIAL TOTAL3 TEMPAVG PRESSURE GPRESSURE VOLUME PRESSAVG GPRESSAVG
ENERGY: 400000 1.5160 8.8764 7.5588 0.0000 -13937.6224 2354.8629 0.0000 0.0000 697.7846 -10867.0238 117.3208 -11564.8083 -10865.7309 117.3208 79.8870 133.0420 29369.1160 79.8870 133.0420
ENERGY: 500000 2.2015 8.7120 8.5161 0.0000 -13691.7917 2262.2258 0.0000 0.0000 910.7557 -10499.3806 153.1283 -11410.1363 -10497.2219 150.2726 -254.7586 -214.8423 29611.2105 2.5563 2.5615
TCL: Running 100000 steps at 180 kelvin.
TCL: Setting parameter langevinTemp to 180
TCL: Running for 100000 steps
ETITLE: TS BOND ANGLE DIHED IMPRP ELECT VDW BOUNDARY MISC KINETIC TOTAL TEMP POTENTIAL TOTAL3 TEMPAVG PRESSURE GPRESSURE VOLUME PRESSAVG GPRESSAVG
ENERGY: 500000 2.2015 8.7120 8.5161 0.0000 -13691.7917 2262.2258 0.0000 0.0000 910.2989 -10499.8375 153.0515 -11410.1363 -10498.2410 153.0515 -257.7534 -214.4089 29611.2105 -257.7534 -214.4089
ENERGY: 600000 4.6317 10.8679 8.8369 0.0000 -13167.1999 2064.5466 0.0000 0.0000 1073.7185 -10004.5983 180.5278 -11078.3168 -10001.4199 180.0129 -719.3012 -671.0415 29485.2451 4.2182 4.1617
TCL: Running 100000 steps at 210 kelvin.
TCL: Setting parameter langevinTemp to 210
TCL: Running for 100000 steps
ETITLE: TS BOND ANGLE DIHED IMPRP ELECT VDW BOUNDARY MISC KINETIC TOTAL TEMP POTENTIAL TOTAL3 TEMPAVG PRESSURE GPRESSURE VOLUME PRESSAVG GPRESSAVG
ENERGY: 600000 4.6317 10.8679 8.8369 0.0000 -13167.1999 2064.5466 0.0000 0.0000 1073.1942 -10005.1226 180.4397 -11078.3168 -10002.6529 180.4397 -728.8608 -671.1780 29485.2451 -728.8608 -671.1780
ENERGY: 700000 5.6205 5.8487 8.3869 0.0000 -12532.7282 1894.3562 0.0000 0.0000 1255.7015 -9362.8144 211.1252 -10618.5159 -9359.4693 209.7007 -270.7240 -217.8045 29280.9707 2.2926 2.4972
TCL: Running 100000 steps at 240 kelvin.
TCL: Setting parameter langevinTemp to 240
TCL: Running for 100000 steps
ETITLE: TS BOND ANGLE DIHED IMPRP ELECT VDW BOUNDARY MISC KINETIC TOTAL TEMP POTENTIAL TOTAL3 TEMPAVG PRESSURE GPRESSURE VOLUME PRESSAVG GPRESSAVG
ENERGY: 700000 5.6205 5.8487 8.3869 0.0000 -12532.7282 1894.3562 0.0000 0.0000 1255.0911 -9363.4248 211.0226 -10618.5159 -9361.4554 211.0226 -294.0966 -217.9037 29280.9707 -294.0966 -217.9037
ENERGY: 800000 2.3979 7.5372 8.3099 0.0000 -11943.9678 1768.0295 0.0000 0.0000 1406.6164 -8751.0769 236.4990 -10157.6933 -8748.0318 239.4581 535.1132 669.0745 29321.7451 3.9154 3.9463
TCL: Running 100000 steps at 270 kelvin.
TCL: Setting parameter langevinTemp to 270
TCL: Running for 100000 steps
ETITLE: TS BOND ANGLE DIHED IMPRP ELECT VDW BOUNDARY MISC KINETIC TOTAL TEMP POTENTIAL TOTAL3 TEMPAVG PRESSURE GPRESSURE VOLUME PRESSAVG GPRESSAVG
ENERGY: 800000 2.3979 7.5372 8.3099 0.0000 -11943.9678 1768.0295 0.0000 0.0000 1405.9122 -8751.7811 236.3806 -10157.6933 -8749.7942 236.3806 600.8278 668.9529 29321.7451 600.8278 668.9529
ENERGY: 900000 1.3981 12.2147 8.0089 0.0000 -11435.4787 1586.7091 0.0000 0.0000 1603.3133 -8223.8345 269.5703 -9827.1479 -8221.1607 270.0237 186.0516 205.5301 29699.3637 2.8671 2.9856
TCL: Running 1000000 steps at 300 kelvin.
TCL: Setting parameter langevinTemp to 300
TCL: Running for 1000000 steps
ETITLE: TS BOND ANGLE DIHED IMPRP ELECT VDW BOUNDARY MISC KINETIC TOTAL TEMP POTENTIAL TOTAL3 TEMPAVG PRESSURE GPRESSURE VOLUME PRESSAVG GPRESSAVG
ENERGY: 900000 1.3981 12.2147 8.0089 0.0000 -11435.4787 1586.7091 0.0000 0.0000 1602.5118 -8224.6361 269.4356 -9827.1479 -8221.7345 269.4356 111.2944 204.8149 29699.3637 111.2944 204.8149
ENERGY: 1100000 5.8055 11.8214 8.8228 0.0000 -10724.4864 1374.2925 0.0000 0.0000 1785.2764 -7538.4679 300.1644 -9323.7442 -7533.9251 300.7064 -737.9508 -733.4733 31314.6233 3.7267 3.8756
ENERGY: 1300000 2.6421 8.7473 9.4033 0.0000 -10806.9114 1454.8643 0.0000 0.0000 1777.9478 -7553.3066 298.9322 -9331.2544 -7549.1038 300.4835 434.4915 465.8633 30374.6723 2.0798 2.2521
ENERGY: 1500000 6.0519 16.2352 7.3278 0.0000 -10640.5512 1338.8157 0.0000 0.0000 1845.4098 -7426.7108 310.2748 -9272.1206 -7421.5607 300.4520 -803.7291 -684.8509 31324.2043 3.2750 3.3040
ENERGY: 1700000 3.3740 13.0965 10.1482 0.0000 -10828.6141 1454.5153 0.0000 0.0000 1678.5886 -7668.8916 282.2266 -9347.4802 -7667.4460 300.3712 -52.6965 13.4893 30963.2406 3.1706 3.0093
ENERGY: 1900000 2.7776 12.1230 10.2497 0.0000 -10791.9825 1396.2444 0.0000 0.0000 1796.9099 -7573.6780 302.1203 -9370.5879 -7568.9922 300.1761 -157.1743 -93.0864 30508.5441 4.7547 4.6581
TCL: Exiting due to exit command.
