Info: SIMULATION PARAMETERS:
Info: TIMESTEP               2
Info: NUMBER OF STEPS        0
Info: STEPS PER CYCLE        10
Info: PERIODIC CELL BASIS 1  36.592 0 0
Info: PERIODIC CELL BASIS 2  0 34.26 0
Info: PERIODIC CELL BASIS 3  0 0 34.68
Info: PERIODIC CELL CENTER   0 0 0
Info: WRAPPING WATERS AROUND PERIODIC BOUNDARIES ON OUTPUT.
Info: WRAPPING ALL CLUSTERS AROUND PERIODIC BOUNDARIES ON OUTPUT.
Info: FIRST LDB TIMESTEP     50
Info: LAST LDB TIMESTEP     -1
Info: HOM BACKGROUND SCALING 1
Info: PME BACKGROUND SCALING 1
Info: MIN ATOMS PER PATCH    40
Info: EMPTY PATCH LOAD       40 ATOMS
Info: INITIAL TEMPERATURE    300
Info: CENTER OF MASS MOVING INITIALLY? NO
Info: DIELECTRIC             1
Info: EXCLUDE                SCALED ONE-FOUR
Info: 1-4 ELECTROSTATICS SCALED BY 0.833333
Info: MODIFIED 1-4 VDW PARAMETERS WILL BE USED
Info: DCD FILENAME           mobley_9407874_equil.dcd
Info: DCD FREQUENCY          100000
Info: DCD FIRST STEP         100000
Info: DCD FILE WILL CONTAIN UNIT CELL DATA
Info: XST FILENAME           mobley_9407874_equil.xst
Info: XST FREQUENCY          100000
Info: NO VELOCITY DCD OUTPUT
Info: NO FORCE DCD OUTPUT
Info: OUTPUT FILENAME        mobley_9407874_equil
Info: BINARY OUTPUT FILES WILL BE USED
Info: RESTART FILENAME       mobley_9407874_equil.restart
Info: RESTART FREQUENCY      100000
Info: BINARY RESTART FILES WILL BE USED
Info: CUTOFF                 9
Info: PAIRLIST DISTANCE      11
Info: PAIRLIST SHRINK RATE   0.01
Info: PAIRLIST GROW RATE     0.01
Info: PAIRLIST TRIGGER       0.3
Info: PAIRLISTS PER CYCLE    2
Info: PAIRLISTS ENABLED
Info: MARGIN                 8
Info: HYDROGEN GROUP CUTOFF  2.5
Info: PATCH DIMENSION        21.5
Info: ENERGY OUTPUT STEPS    100000
Info: ENERGY EVALUATION STEPS    100000
Info: OUTPUT ENERGY PRECISION 4
Info: CROSSTERM ENERGY INCLUDED IN DIHEDRAL
Info: TIMING OUTPUT STEPS    1000000
Info: PRESSURE OUTPUT STEPS  100000
Info: LANGEVIN DYNAMICS ACTIVE
Info: LANGEVIN TEMPERATURE   30
Info: LANGEVIN USING BBK INTEGRATOR
Info: LANGEVIN DAMPING COEFFICIENT IS 1 INVERSE PS
Info: LANGEVIN DYNAMICS APPLIED TO HYDROGENS
Info: LANGEVIN PISTON PRESSURE CONTROL ACTIVE
Info:        TARGET PRESSURE IS 1.01325 BAR
Info:     OSCILLATION PERIOD IS 50 FS
Info:             DECAY TIME IS 25 FS
Info:     PISTON TEMPERATURE IS 300 K
Info:       PRESSURE CONTROL IS GROUP-BASED
Info:    INITIAL STRAIN RATE IS 0 0 0
Info:       CELL FLUCTUATION IS ISOTROPIC
Info: PARTICLE MESH EWALD (PME) ACTIVE
Info: PME TOLERANCE               1e-06
Info: PME EWALD COEFFICIENT       0.348832
Info: PME INTERPOLATION ORDER     4
Info: PME GRID DIMENSIONS         40 36 36
Info: PME MAXIMUM GRID SPACING    1
Info: FULL ELECTROSTATIC EVALUATION FREQUENCY      2
Info: USING VERLET I (r-RESPA) MTS SCHEME.
Info: C1 SPLITTING OF LONG RANGE ELECTROSTATICS
Info: PLACING ATOMS IN PATCHES BY HYDROGEN GROUPS
Info: RIGID BONDS TO HYDROGEN : ALL
Info:         ERROR TOLERANCE : 1e-08
Info:          MAX ITERATIONS : 100
Info: RIGID WATER USING SETTLE ALGORITHM
Info: RANDOM NUMBER SEED     1743259410
Info: USE HYDROGEN BONDS?    NO
Info: Using AMBER format force field!
Info: AMBER PARM FILE        mobley_9407874.prmtop
Info: COORDINATE PDB         mobley_9407874.pdb
Info: Exclusions will be read from PARM file!
Info: SCNB (VDW SCALING)     2
Info: USING ARITHMETIC MEAN TO COMBINE L-J SIGMA PARAMETERS
Info: BINARY COORDINATES     mobley_9407874_min.coor
Info: SUMMARY OF PARAMETERS:
Info: 6 BONDS
Info: 7 ANGLES
Info:   7 HARMONIC
Info:   0 COSINE-BASED
Info: 11 DIHEDRAL
Info: 0 IMPROPER
Info: 0 CROSSTERM
Info: 0 VDW
Info: 21 VDW_PAIRS
Info: 0 NBTHOLE_PAIRS
Info: STRUCTURE SUMMARY:
Info: 2917 ATOMS
Info: 2916 BONDS
Info: 45 ANGLES
Info: 74 DIHEDRALS
Info: 0 IMPROPERS
Info: 0 CROSSTERMS
Info: 3018 EXCLUSIONS
Info: 2908 RIGID BONDS
Info: 5843 DEGREES OF FREEDOM
Info: 973 HYDROGEN GROUPS
Info: 4 ATOMS IN LARGEST HYDROGEN GROUP
Info: 973 MIGRATION GROUPS
Info: 4 ATOMS IN LARGEST MIGRATION GROUP
Info: TOTAL MASS = 17495.6 amu
Info: TOTAL CHARGE = 1.49012e-08 e
Info: MASS DENSITY = 0.668246 g/cm^3
Info: ATOM DENSITY = 0.067094 atoms/A^3
Info: ADDED 0 IMPLICIT EXCLUSIONS
Info: NONBONDED TABLE R-SQUARED SPACING: 0.0625
Info: NONBONDED TABLE SIZE: 705 POINTS
Info: REMOVING COM VELOCITY -0.0648427 0.0268762 0.0856661
TCL: Running for 100000 steps
ETITLE: TS BOND ANGLE DIHED IMPRP ELECT VDW BOUNDARY MISC KINETIC TOTAL TEMP POTENTIAL TOTAL3 TEMPAVG PRESSURE GPRESSURE VOLUME PRESSAVG GPRESSAVG
ENERGY: 0 0.1271 0.5253 4.4908 0.0000 -13350.7235 2340.4138 0.0000 0.0000 1665.8091 -9339.3574 286.9325 -11005.1665 -9339.0344 286.9325 336.7476 378.8824 43476.3018 336.7476 378.8824
ENERGY: 100000 0.6783 1.6583 5.0704 0.0000 -13941.5166 2437.2956 0.0000 0.0000 176.2439 -11320.5700 30.3577 -11496.8139 -11320.2500 30.9029 -130.1966 -80.4964 29698.6954 3.8991 3.9509
TCL: Running 100000 steps at 60 kelvin.
TCL: Setting parameter langevinTemp to 60
TCL: Running for 100000 steps
ETITLE: TS BOND ANGLE DIHED IMPRP ELECT VDW BOUNDARY MISC KINETIC TOTAL TEMP POTENTIAL TOTAL3 TEMPAVG PRESSURE GPRESSURE VOLUME PRESSAVG GPRESSAVG
ENERGY: 100000 0.6783 1.6583 5.0704 0.0000 -13941.5166 2437.2956 0.0000 0.0000 176.1572 -11320.6567 30.3427 -11496.8139 -11320.3192 30.3427 -140.6706 -80.5878 29698.6954 -140.6706 -80.5878
ENERGY: 200000 0.2158 3.0640 5.5616 0.0000 -13848.6555 2361.3908 0.0000 0.0000 340.4800 -11137.9434 58.6470 -11478.4234 -11137.2861 59.9421 -317.4692 -258.3757 28931.6181 5.8455 5.8265
TCL: Running 100000 steps at 90 kelvin.
TCL: Setting parameter langevinTemp to 90
TCL: Running for 100000 steps
ETITLE: TS BOND ANGLE DIHED IMPRP ELECT VDW BOUNDARY MISC KINETIC TOTAL TEMP POTENTIAL TOTAL3 TEMPAVG PRESSURE GPRESSURE VOLUME PRESSAVG GPRESSAVG
ENERGY: 200000 0.2158 3.0640 5.5616 0.0000 -13848.6555 2361.3908 0.0000 0.0000 340.3026 -11138.1207 58.6165 -11478.4234 -11137.4307 58.6165 -317.8099 -258.4888 28931.6181 -317.8099 -258.4888
ENERGY: 300000 1.4724 2.8574 5.4948 0.0000 -13623.9387 2246.8191 0.0000 0.0000 509.8619 -10857.4330 87.8228 -11367.2950 -10855.7812 89.9568 -951.9840 -890.1936 29278.2940 3.3188 3.3450
TCL: Running 100000 steps at 120 kelvin.
TCL: Setting parameter langevinTemp to 120
TCL: Running for 100000 steps
ETITLE: TS BOND ANGLE DIHED IMPRP ELECT VDW BOUNDARY MISC KINETIC TOTAL TEMP POTENTIAL TOTAL3 TEMPAVG PRESSURE GPRESSURE VOLUME PRESSAVG GPRESSAVG
ENERGY: 300000 1.4724 2.8574 5.4948 0.0000 -13623.9387 2246.8191 0.0000 0.0000 509.6066 -10857.6884 87.7788 -11367.2950 -10856.6123 87.7788 -941.4086 -889.6220 29278.2940 -941.4086 -889.6220
ENERGY: 400000 0.6644 4.3159 5.7911 0.0000 -13465.6524 2189.1746 0.0000 0.0000 697.9980 -10567.7084 120.2289 -11265.7065 -10565.6759 120.2282 -995.3283 -959.3011 29045.5052 4.5321 4.5089
TCL: Running 100000 steps at 150 kelvin.
TCL: Setting parameter langevinTemp to 150
TCL: Running for 100000 steps
ETITLE: TS BOND ANGLE DIHED IMPRP ELECT VDW BOUNDARY MISC KINETIC TOTAL TEMP POTENTIAL TOTAL3 TEMPAVG PRESSURE GPRESSURE VOLUME PRESSAVG GPRESSAVG
ENERGY: 400000 0.6644 4.3159 5.7911 0.0000 -13465.6524 2189.1746 0.0000 0.0000 697.6554 -10568.0511 120.1698 -11265.7065 -10566.6195 120.1698 -1013.9680 -959.6790 29045.5052 -1013.9680 -959.6790
ENERGY: 500000 0.7826 7.0782 6.2334 0.0000 -13436.6951 2319.8267 0.0000 0.0000 828.0368 -10274.7375 142.6278 -11102.7742 -10273.1325 149.9795 844.7366 924.7830 28444.3531 2.7793 2.7377
TCL: Running 100000 steps at 180 kelvin.
TCL: Setting parameter langevinTemp to 180
TCL: Running for 100000 steps
ETITLE: TS BOND ANGLE DIHED IMPRP ELECT VDW BOUNDARY MISC KINETIC TOTAL TEMP POTENTIAL TOTAL3 TEMPAVG PRESSURE GPRESSURE VOLUME PRESSAVG GPRESSAVG
ENERGY: 500000 0.7826 7.0782 6.2334 0.0000 -13436.6951 2319.8267 0.0000 0.0000 827.5989 -10275.1753 142.5524 -11102.7742 -10273.5630 142.5524 852.4080 925.2905 28444.3531 852.4080 925.2905
ENERGY: 600000 1.1930 6.7430 6.4377 0.0000 -12911.0629 2065.1776 0.0000 0.0000 1037.8242 -9793.6874 178.7633 -10831.5116 -9790.8336 179.6401 -317.4928 -307.3595 28704.9579 3.7849 3.8209
TCL: Running 100000 steps at 210 kelvin.
TCL: Setting parameter langevinTemp to 210
TCL: Running for 100000 steps
ETITLE: TS BOND ANGLE DIHED IMPRP ELECT VDW BOUNDARY MISC KINETIC TOTAL TEMP POTENTIAL TOTAL3 TEMPAVG PRESSURE GPRESSURE VOLUME PRESSAVG GPRESSAVG
ENERGY: 600000 1.1930 6.7430 6.4377 0.0000 -12911.0629 2065.1776 0.0000 0.0000 1037.2733 -9794.2384 178.6684 -10831.5116 -9791.9810 178.6684 -377.0087 -306.3413 28704.9579 -377.0087 -306.3413
ENERGY: 700000 1.6354 9.0726 5.4594 0.0000 -12476.4288 2047.0121 0.0000 0.0000 1229.5105 -9183.7388 211.7809 -10413.2493 -9181.9922 209.8233 1420.1600 1447.1079 28359.6082 2.7807 2.7388
TCL: Running 100000 steps at 240 kelvin.
TCL: Setting parameter langevinTemp to 240
TCL: Running for 100000 steps
ETITLE: TS BOND ANGLE DIHED IMPRP ELECT VDW BOUNDARY MISC KINETIC TOTAL TEMP POTENTIAL TOTAL3 TEMPAVG PRESSURE GPRESSURE VOLUME PRESSAVG GPRESSAVG
ENERGY: 700000 1.6354 9.0726 5.4594 0.0000 -12476.4288 2047.0121 0.0000 0.0000 1228.9066 -9184.3428 211.6769 -10413.2493 -9182.1800 211.6769 1378.3388 1446.0734 28359.6082 1378.3388 1446.0734
ENERGY: 800000 1.7906 14.8973 5.8599 0.0000 -11624.7018 1676.1460 0.0000 0.0000 1400.7798 -8525.2283 241.2817 -9926.0081 -8522.4811 239.9571 -296.4295 -179.1052 28690.9936 3.5274 3.6023
TCL: Running 100000 steps at 270 kelvin.
TCL: Setting parameter langevinTemp to 270
TCL: Running for 100000 steps
ETITLE: TS BOND ANGLE DIHED IMPRP ELECT VDW BOUNDARY MISC KINETIC TOTAL TEMP POTENTIAL TOTAL3 TEMPAVG PRESSURE GPRESSURE VOLUME PRESSAVG GPRESSAVG
ENERGY: 800000 1.7906 14.8973 5.8599 0.0000 -11624.7018 1676.1460 0.0000 0.0000 1400.1122 -8525.8959 241.1667 -9926.0081 -8523.1724 241.1667 -249.7804 -179.6373 28690.9936 -249.7804 -179.6373
ENERGY: 900000 3.0848 8.0572 6.8992 0.0000 -10967.9953 1434.7793 0.0000 0.0000 1589.5446 -7925.6303 273.7961 -9515.1749 -7921.3164 269.6417 -1087.5953 -1020.4376 29722.5245 3.5938 3.5324
TCL: Running 1000000 steps at 300 kelvin.
TCL: Setting parameter langevinTemp to 300
TCL: Running for 1000000 steps
ETITLE: TS BOND ANGLE DIHED IMPRP ELECT VDW BOUNDARY MISC KINETIC TOTAL TEMP POTENTIAL TOTAL3 TEMPAVG PRESSURE GPRESSURE VOLUME PRESSAVG GPRESSAVG
ENERGY: 900000 3.0848 8.0572 6.8992 0.0000 -10967.9953 1434.7793 0.0000 0.0000 1588.7719 -7926.4030 273.6630 -9515.1749 -7922.5339 273.6630 -1101.1774 -1021.6893 29722.5245 -1101.1774 -1021.6893
ENERGY: 1100000 3.8728 12.5038 9.0013 0.0000 -10633.0697 1430.9811 0.0000 0.0000 1718.8272 -7457.8835 296.0648 -9176.7107 -7454.1885 300.3457 -320.7394 -255.8879 30389.3208 2.6941 2.7592
ENERGY: 1300000 1.7270 13.5666 7.8040 0.0000 -10599.2151 1496.6838 0.0000 0.0000 1751.9490 -7327.4846 301.7699 -9079.4336 -7323.5947 299.5466 743.5447 832.4166 29959.8505 2.3411 2.4029
ENERGY: 1500000 1.2623 13.6386 7.0356 0.0000 -10560.8409 1461.0096 0.0000 0.0000 1732.9703 -7344.9245 298.5009 -9077.8948 -7340.4693 300.1366 276.8247 334.2510 30459.5713 3.3793 3.6382
ENERGY: 1700000 2.1095 13.8763 6.1833 0.0000 -10479.6092 1377.7062 0.0000 0.0000 1798.6505 -7281.0833 309.8142 -9079.7338 -7278.8024 300.1488 -107.1149 -66.4535 30008.4152 3.4887 3.2772
ENERGY: 1900000 4.9091 18.3428 7.6198 0.0000 -10707.1359 1548.8081 0.0000 0.0000 1749.7140 -7377.7420 301.3850 -9127.4561 -7375.4423 300.1386 1025.0339 1108.6692 29954.6792 3.8021 3.9137
TCL: Exiting due to exit command.
