Info: SIMULATION PARAMETERS:
Info: TIMESTEP               2
Info: NUMBER OF STEPS        0
Info: STEPS PER CYCLE        10
Info: PERIODIC CELL BASIS 1  36.592 0 0
Info: PERIODIC CELL BASIS 2  0 34.26 0
Info: PERIODIC CELL BASIS 3  0 0 35.723
Info: PERIODIC CELL CENTER   0 0 0
Info: WRAPPING WATERS AROUND PERIODIC BOUNDARIES ON OUTPUT.
Info: WRAPPING ALL CLUSTERS AROUND PERIODIC BOUNDARIES ON OUTPUT.
Info: FIRST LDB TIMESTEP     50
Info: LAST LDB TIMESTEP     -1
Info: HOM BACKGROUND SCALING 1
Info: PME BACKGROUND SCALING 1
Info: MIN ATOMS PER PATCH    40
Info: EMPTY PATCH LOAD       40 ATOMS
Info: INITIAL TEMPERATURE    300
Info: CENTER OF MASS MOVING INITIALLY? NO
Info: DIELECTRIC             1
Info: EXCLUDE                SCALED ONE-FOUR
Info: 1-4 ELECTROSTATICS SCALED BY 0.833333
Info: MODIFIED 1-4 VDW PARAMETERS WILL BE USED
Info: DCD FILENAME           mobley_2661134_equil.dcd
Info: DCD FREQUENCY          100000
Info: DCD FIRST STEP         100000
Info: DCD FILE WILL CONTAIN UNIT CELL DATA
Info: XST FILENAME           mobley_2661134_equil.xst
Info: XST FREQUENCY          100000
Info: NO VELOCITY DCD OUTPUT
Info: NO FORCE DCD OUTPUT
Info: OUTPUT FILENAME        mobley_2661134_equil
Info: BINARY OUTPUT FILES WILL BE USED
Info: RESTART FILENAME       mobley_2661134_equil.restart
Info: RESTART FREQUENCY      100000
Info: BINARY RESTART FILES WILL BE USED
Info: CUTOFF                 9
Info: PAIRLIST DISTANCE      11
Info: PAIRLIST SHRINK RATE   0.01
Info: PAIRLIST GROW RATE     0.01
Info: PAIRLIST TRIGGER       0.3
Info: PAIRLISTS PER CYCLE    2
Info: PAIRLISTS ENABLED
Info: MARGIN                 8
Info: HYDROGEN GROUP CUTOFF  2.5
Info: PATCH DIMENSION        21.5
Info: ENERGY OUTPUT STEPS    100000
Info: ENERGY EVALUATION STEPS    100000
Info: OUTPUT ENERGY PRECISION 4
Info: CROSSTERM ENERGY INCLUDED IN DIHEDRAL
Info: TIMING OUTPUT STEPS    1000000
Info: PRESSURE OUTPUT STEPS  100000
Info: LANGEVIN DYNAMICS ACTIVE
Info: LANGEVIN TEMPERATURE   30
Info: LANGEVIN USING BBK INTEGRATOR
Info: LANGEVIN DAMPING COEFFICIENT IS 1 INVERSE PS
Info: LANGEVIN DYNAMICS APPLIED TO HYDROGENS
Info: LANGEVIN PISTON PRESSURE CONTROL ACTIVE
Info:        TARGET PRESSURE IS 1.01325 BAR
Info:     OSCILLATION PERIOD IS 50 FS
Info:             DECAY TIME IS 25 FS
Info:     PISTON TEMPERATURE IS 300 K
Info:       PRESSURE CONTROL IS GROUP-BASED
Info:    INITIAL STRAIN RATE IS 0 0 0
Info:       CELL FLUCTUATION IS ISOTROPIC
Info: PARTICLE MESH EWALD (PME) ACTIVE
Info: PME TOLERANCE               1e-06
Info: PME EWALD COEFFICIENT       0.348832
Info: PME INTERPOLATION ORDER     4
Info: PME GRID DIMENSIONS         40 36 36
Info: PME MAXIMUM GRID SPACING    1
Info: FULL ELECTROSTATIC EVALUATION FREQUENCY      2
Info: USING VERLET I (r-RESPA) MTS SCHEME.
Info: C1 SPLITTING OF LONG RANGE ELECTROSTATICS
Info: PLACING ATOMS IN PATCHES BY HYDROGEN GROUPS
Info: RIGID BONDS TO HYDROGEN : ALL
Info:         ERROR TOLERANCE : 1e-08
Info:          MAX ITERATIONS : 100
Info: RIGID WATER USING SETTLE ALGORITHM
Info: RANDOM NUMBER SEED     1743210341
Info: USE HYDROGEN BONDS?    NO
Info: Using AMBER format force field!
Info: AMBER PARM FILE        mobley_2661134.prmtop
Info: COORDINATE PDB         mobley_2661134.pdb
Info: Exclusions will be read from PARM file!
Info: SCNB (VDW SCALING)     2
Info: USING ARITHMETIC MEAN TO COMBINE L-J SIGMA PARAMETERS
Info: BINARY COORDINATES     mobley_2661134_min.coor
Info: SUMMARY OF PARAMETERS:
Info: 8 BONDS
Info: 6 ANGLES
Info:   6 HARMONIC
Info:   0 COSINE-BASED
Info: 4 DIHEDRAL
Info: 0 IMPROPER
Info: 0 CROSSTERM
Info: 0 VDW
Info: 28 VDW_PAIRS
Info: 0 NBTHOLE_PAIRS
Info: STRUCTURE SUMMARY:
Info: 2960 ATOMS
Info: 2960 BONDS
Info: 20 ANGLES
Info: 34 DIHEDRALS
Info: 0 IMPROPERS
Info: 0 CROSSTERMS
Info: 3005 EXCLUSIONS
Info: 2951 RIGID BONDS
Info: 5929 DEGREES OF FREEDOM
Info: 991 HYDROGEN GROUPS
Info: 3 ATOMS IN LARGEST HYDROGEN GROUP
Info: 991 MIGRATION GROUPS
Info: 3 ATOMS IN LARGEST MIGRATION GROUP
Info: TOTAL MASS = 17810.8 amu
Info: TOTAL CHARGE = -0.000100004 e
Info: MASS DENSITY = 0.660423 g/cm^3
Info: ATOM DENSITY = 0.0660953 atoms/A^3
Info: ADDED 0 IMPLICIT EXCLUSIONS
Info: NONBONDED TABLE R-SQUARED SPACING: 0.0625
Info: NONBONDED TABLE SIZE: 705 POINTS
Info: REMOVING COM VELOCITY 0.141279 0.13591 -0.0123465
TCL: Running for 100000 steps
ETITLE: TS BOND ANGLE DIHED IMPRP ELECT VDW BOUNDARY MISC KINETIC TOTAL TEMP POTENTIAL TOTAL3 TEMPAVG PRESSURE GPRESSURE VOLUME PRESSAVG GPRESSAVG
ENERGY: 0 0.1444 0.0365 0.3957 0.0000 -13669.7537 2409.8682 0.0000 0.0000 1798.4594 -9460.8494 305.2879 -11259.3089 -9460.4976 305.2879 439.6101 469.0041 44783.8503 439.6101 469.0041
ENERGY: 100000 0.4118 0.5630 1.0477 0.0000 -14186.6118 2442.1955 0.0000 0.0000 178.0225 -11564.3713 30.2193 -11742.3937 -11563.7582 30.9947 -325.4705 -249.0516 29584.8968 3.1705 3.1580
TCL: Running 100000 steps at 60 kelvin.
TCL: Setting parameter langevinTemp to 60
TCL: Running for 100000 steps
ETITLE: TS BOND ANGLE DIHED IMPRP ELECT VDW BOUNDARY MISC KINETIC TOTAL TEMP POTENTIAL TOTAL3 TEMPAVG PRESSURE GPRESSURE VOLUME PRESSAVG GPRESSAVG
ENERGY: 100000 0.4118 0.5630 1.0477 0.0000 -14186.6118 2442.1955 0.0000 0.0000 177.9317 -11564.4620 30.2038 -11742.3937 -11563.9472 30.2038 -314.5265 -248.9454 29584.8968 -314.5265 -248.9454
ENERGY: 200000 0.5554 0.7151 1.4144 0.0000 -14259.6214 2558.8582 0.0000 0.0000 344.7301 -11353.3484 58.5178 -11698.0784 -11352.4533 60.0108 772.7952 853.7467 29242.8822 5.5195 5.5064
TCL: Running 100000 steps at 90 kelvin.
TCL: Setting parameter langevinTemp to 90
TCL: Running for 100000 steps
ETITLE: TS BOND ANGLE DIHED IMPRP ELECT VDW BOUNDARY MISC KINETIC TOTAL TEMP POTENTIAL TOTAL3 TEMPAVG PRESSURE GPRESSURE VOLUME PRESSAVG GPRESSAVG
ENERGY: 200000 0.5554 0.7151 1.4144 0.0000 -14259.6214 2558.8582 0.0000 0.0000 344.5576 -11353.5208 58.4885 -11698.0784 -11352.7584 58.4885 784.3939 853.6808 29242.8822 784.3939 853.6808
ENERGY: 300000 1.7456 1.3531 2.1482 0.0000 -14099.7198 2483.1677 0.0000 0.0000 522.9491 -11088.3561 88.7704 -11611.3052 -11087.0255 90.2257 609.8570 647.3916 29100.2247 3.1653 3.0343
TCL: Running 100000 steps at 120 kelvin.
TCL: Setting parameter langevinTemp to 120
TCL: Running for 100000 steps
ETITLE: TS BOND ANGLE DIHED IMPRP ELECT VDW BOUNDARY MISC KINETIC TOTAL TEMP POTENTIAL TOTAL3 TEMPAVG PRESSURE GPRESSURE VOLUME PRESSAVG GPRESSAVG
ENERGY: 300000 1.7456 1.3531 2.1482 0.0000 -14099.7198 2483.1677 0.0000 0.0000 522.6894 -11088.6158 88.7263 -11611.3052 -11087.7552 88.7263 598.6478 647.6868 29100.2247 598.6478 647.6868
ENERGY: 400000 3.1643 1.0259 1.4201 0.0000 -13828.2857 2302.2271 0.0000 0.0000 682.3045 -10838.1438 115.8210 -11520.4483 -10836.6856 120.1191 -660.8406 -587.2198 29303.3859 4.7401 4.5753
TCL: Running 100000 steps at 150 kelvin.
TCL: Setting parameter langevinTemp to 150
TCL: Running for 100000 steps
ETITLE: TS BOND ANGLE DIHED IMPRP ELECT VDW BOUNDARY MISC KINETIC TOTAL TEMP POTENTIAL TOTAL3 TEMPAVG PRESSURE GPRESSURE VOLUME PRESSAVG GPRESSAVG
ENERGY: 400000 3.1643 1.0259 1.4201 0.0000 -13828.2857 2302.2271 0.0000 0.0000 681.9645 -10838.4838 115.7632 -11520.4483 -10837.2119 115.7632 -633.6412 -588.1875 29303.3859 -633.6412 -588.1875
ENERGY: 500000 1.6455 1.5702 1.8746 0.0000 -13612.8849 2299.5697 0.0000 0.0000 901.9814 -10406.2434 153.1110 -11308.2248 -10403.3676 149.8802 205.6097 276.5958 29164.0576 5.1927 5.2575
TCL: Running 100000 steps at 180 kelvin.
TCL: Setting parameter langevinTemp to 180
TCL: Running for 100000 steps
ETITLE: TS BOND ANGLE DIHED IMPRP ELECT VDW BOUNDARY MISC KINETIC TOTAL TEMP POTENTIAL TOTAL3 TEMPAVG PRESSURE GPRESSURE VOLUME PRESSAVG GPRESSAVG
ENERGY: 500000 1.6455 1.5702 1.8746 0.0000 -13612.8849 2299.5697 0.0000 0.0000 901.5683 -10406.6565 153.0409 -11308.2248 -10405.2872 153.0409 220.6545 276.2168 29164.0576 220.6545 276.2168
ENERGY: 600000 3.4851 5.1689 2.1979 0.0000 -13120.4611 2067.7152 0.0000 0.0000 1068.4782 -9973.4159 181.3738 -11041.8941 -9970.9647 179.8098 -831.0682 -749.5431 29240.7954 3.0493 3.0815
TCL: Running 100000 steps at 210 kelvin.
TCL: Setting parameter langevinTemp to 210
TCL: Running for 100000 steps
ETITLE: TS BOND ANGLE DIHED IMPRP ELECT VDW BOUNDARY MISC KINETIC TOTAL TEMP POTENTIAL TOTAL3 TEMPAVG PRESSURE GPRESSURE VOLUME PRESSAVG GPRESSAVG
ENERGY: 600000 3.4851 5.1689 2.1979 0.0000 -13120.4611 2067.7152 0.0000 0.0000 1067.9711 -9973.9230 181.2877 -11041.8941 -9971.6476 181.2877 -817.2260 -748.8496 29240.7954 -817.2260 -748.8496
ENERGY: 700000 2.7703 2.6563 1.6971 0.0000 -12367.0461 1863.7495 0.0000 0.0000 1233.8130 -9262.3600 209.4394 -10496.1730 -9259.3074 210.1586 15.3054 109.8384 28733.5009 1.9074 1.9726
TCL: Running 100000 steps at 240 kelvin.
TCL: Setting parameter langevinTemp to 240
TCL: Running for 100000 steps
ETITLE: TS BOND ANGLE DIHED IMPRP ELECT VDW BOUNDARY MISC KINETIC TOTAL TEMP POTENTIAL TOTAL3 TEMPAVG PRESSURE GPRESSURE VOLUME PRESSAVG GPRESSAVG
ENERGY: 700000 2.7703 2.6563 1.6971 0.0000 -12367.0461 1863.7495 0.0000 0.0000 1233.2312 -9262.9418 209.3406 -10496.1730 -9261.1889 209.3406 18.6959 111.4853 28733.5009 18.6959 111.4853
ENERGY: 800000 4.1343 5.0747 1.6766 0.0000 -11863.0061 1749.1206 0.0000 0.0000 1474.3673 -8628.6325 250.2734 -10102.9998 -8624.7957 239.7593 22.8506 148.5065 29178.1692 3.9179 3.9835
TCL: Running 100000 steps at 270 kelvin.
TCL: Setting parameter langevinTemp to 270
TCL: Running for 100000 steps
ETITLE: TS BOND ANGLE DIHED IMPRP ELECT VDW BOUNDARY MISC KINETIC TOTAL TEMP POTENTIAL TOTAL3 TEMPAVG PRESSURE GPRESSURE VOLUME PRESSAVG GPRESSAVG
ENERGY: 800000 4.1343 5.0747 1.6766 0.0000 -11863.0061 1749.1206 0.0000 0.0000 1473.6513 -8629.3485 250.1518 -10102.9998 -8626.6835 250.1518 77.5270 149.5590 29178.1692 77.5270 149.5590
ENERGY: 900000 2.2914 2.6306 2.6468 0.0000 -11282.0829 1583.1997 0.0000 0.0000 1536.1599 -8155.1545 260.7626 -9691.3144 -8152.2252 269.8735 21.4769 137.0833 29578.1763 4.5116 4.4751
TCL: Running 1000000 steps at 300 kelvin.
TCL: Setting parameter langevinTemp to 300
TCL: Running for 1000000 steps
ETITLE: TS BOND ANGLE DIHED IMPRP ELECT VDW BOUNDARY MISC KINETIC TOTAL TEMP POTENTIAL TOTAL3 TEMPAVG PRESSURE GPRESSURE VOLUME PRESSAVG GPRESSAVG
ENERGY: 900000 2.2914 2.6306 2.6468 0.0000 -11282.0829 1583.1997 0.0000 0.0000 1535.3719 -8155.9425 260.6289 -9691.3144 -8153.8114 260.6289 56.2956 138.2875 29578.1763 56.2956 138.2875
ENERGY: 1100000 1.4305 4.1258 3.1757 0.0000 -10806.0879 1498.9431 0.0000 0.0000 1726.8389 -7571.5739 293.1303 -9298.4128 -7570.2343 300.5552 368.9072 539.0417 30271.0611 4.5181 4.3279
ENERGY: 1300000 3.6850 2.7956 3.4520 0.0000 -10678.6498 1338.6536 0.0000 0.0000 1716.7268 -7613.3370 291.4138 -9330.0637 -7607.6853 300.1529 -1094.1868 -931.1941 30569.7743 3.5557 3.5554
ENERGY: 1500000 2.8486 1.6839 1.7509 0.0000 -10794.5379 1470.8540 0.0000 0.0000 1796.3141 -7521.0865 304.9237 -9317.4006 -7516.8941 300.3939 50.9571 128.1019 30579.0622 1.9025 1.8098
ENERGY: 1700000 2.1502 1.5885 3.1370 0.0000 -10747.9171 1508.8768 0.0000 0.0000 1777.0127 -7455.1519 301.6473 -9232.1645 -7452.4631 299.6283 773.9513 895.9319 30250.9679 3.0696 3.1549
ENERGY: 1900000 4.2375 3.7051 2.5768 0.0000 -10820.5390 1431.0410 0.0000 0.0000 1775.7162 -7603.2624 301.4272 -9378.9786 -7598.6309 300.4382 -422.3899 -345.9759 30339.8062 3.2196 3.0974
TCL: Exiting due to exit command.
