Info: SIMULATION PARAMETERS:
Info: TIMESTEP               2
Info: NUMBER OF STEPS        0
Info: STEPS PER CYCLE        10
Info: PERIODIC CELL BASIS 1  35.01 0 0
Info: PERIODIC CELL BASIS 2  0 34.696 0
Info: PERIODIC CELL BASIS 3  0 0 35.897
Info: PERIODIC CELL CENTER   0 0 0
Info: WRAPPING WATERS AROUND PERIODIC BOUNDARIES ON OUTPUT.
Info: WRAPPING ALL CLUSTERS AROUND PERIODIC BOUNDARIES ON OUTPUT.
Info: FIRST LDB TIMESTEP     50
Info: LAST LDB TIMESTEP     -1
Info: HOM BACKGROUND SCALING 1
Info: PME BACKGROUND SCALING 1
Info: MIN ATOMS PER PATCH    40
Info: EMPTY PATCH LOAD       40 ATOMS
Info: INITIAL TEMPERATURE    300
Info: CENTER OF MASS MOVING INITIALLY? NO
Info: DIELECTRIC             1
Info: EXCLUDE                SCALED ONE-FOUR
Info: 1-4 ELECTROSTATICS SCALED BY 0.833333
Info: MODIFIED 1-4 VDW PARAMETERS WILL BE USED
Info: DCD FILENAME           mobley_5816127_equil.dcd
Info: DCD FREQUENCY          100000
Info: DCD FIRST STEP         100000
Info: DCD FILE WILL CONTAIN UNIT CELL DATA
Info: XST FILENAME           mobley_5816127_equil.xst
Info: XST FREQUENCY          100000
Info: NO VELOCITY DCD OUTPUT
Info: NO FORCE DCD OUTPUT
Info: OUTPUT FILENAME        mobley_5816127_equil
Info: BINARY OUTPUT FILES WILL BE USED
Info: RESTART FILENAME       mobley_5816127_equil.restart
Info: RESTART FREQUENCY      100000
Info: BINARY RESTART FILES WILL BE USED
Info: CUTOFF                 9
Info: PAIRLIST DISTANCE      11
Info: PAIRLIST SHRINK RATE   0.01
Info: PAIRLIST GROW RATE     0.01
Info: PAIRLIST TRIGGER       0.3
Info: PAIRLISTS PER CYCLE    2
Info: PAIRLISTS ENABLED
Info: MARGIN                 8
Info: HYDROGEN GROUP CUTOFF  2.5
Info: PATCH DIMENSION        21.5
Info: ENERGY OUTPUT STEPS    100000
Info: ENERGY EVALUATION STEPS    100000
Info: OUTPUT ENERGY PRECISION 4
Info: CROSSTERM ENERGY INCLUDED IN DIHEDRAL
Info: TIMING OUTPUT STEPS    1000000
Info: PRESSURE OUTPUT STEPS  100000
Info: LANGEVIN DYNAMICS ACTIVE
Info: LANGEVIN TEMPERATURE   30
Info: LANGEVIN USING BBK INTEGRATOR
Info: LANGEVIN DAMPING COEFFICIENT IS 1 INVERSE PS
Info: LANGEVIN DYNAMICS APPLIED TO HYDROGENS
Info: LANGEVIN PISTON PRESSURE CONTROL ACTIVE
Info:        TARGET PRESSURE IS 1.01325 BAR
Info:     OSCILLATION PERIOD IS 50 FS
Info:             DECAY TIME IS 25 FS
Info:     PISTON TEMPERATURE IS 300 K
Info:       PRESSURE CONTROL IS GROUP-BASED
Info:    INITIAL STRAIN RATE IS 0 0 0
Info:       CELL FLUCTUATION IS ISOTROPIC
Info: PARTICLE MESH EWALD (PME) ACTIVE
Info: PME TOLERANCE               1e-06
Info: PME EWALD COEFFICIENT       0.348832
Info: PME INTERPOLATION ORDER     4
Info: PME GRID DIMENSIONS         36 36 36
Info: PME MAXIMUM GRID SPACING    1
Info: FULL ELECTROSTATIC EVALUATION FREQUENCY      2
Info: USING VERLET I (r-RESPA) MTS SCHEME.
Info: C1 SPLITTING OF LONG RANGE ELECTROSTATICS
Info: PLACING ATOMS IN PATCHES BY HYDROGEN GROUPS
Info: RIGID BONDS TO HYDROGEN : ALL
Info:         ERROR TOLERANCE : 1e-08
Info:          MAX ITERATIONS : 100
Info: RIGID WATER USING SETTLE ALGORITHM
Info: RANDOM NUMBER SEED     1744087044
Info: USE HYDROGEN BONDS?    NO
Info: Using AMBER format force field!
Info: AMBER PARM FILE        mobley_5816127.prmtop
Info: COORDINATE PDB         mobley_5816127.pdb
Info: Exclusions will be read from PARM file!
Info: SCNB (VDW SCALING)     2
Info: USING ARITHMETIC MEAN TO COMBINE L-J SIGMA PARAMETERS
Info: BINARY COORDINATES     mobley_5816127_min.coor
Info: SUMMARY OF PARAMETERS:
Info: 7 BONDS
Info: 8 ANGLES
Info:   8 HARMONIC
Info:   0 COSINE-BASED
Info: 10 DIHEDRAL
Info: 0 IMPROPER
Info: 0 CROSSTERM
Info: 0 VDW
Info: 21 VDW_PAIRS
Info: 0 NBTHOLE_PAIRS
Info: STRUCTURE SUMMARY:
Info: 2983 ATOMS
Info: 2982 BONDS
Info: 20 ANGLES
Info: 25 DIHEDRALS
Info: 0 IMPROPERS
Info: 0 CROSSTERMS
Info: 3020 EXCLUSIONS
Info: 2978 RIGID BONDS
Info: 5971 DEGREES OF FREEDOM
Info: 995 HYDROGEN GROUPS
Info: 4 ATOMS IN LARGEST HYDROGEN GROUP
Info: 995 MIGRATION GROUPS
Info: 4 ATOMS IN LARGEST MIGRATION GROUP
Info: TOTAL MASS = 17911.9 amu
Info: TOTAL CHARGE = -1.86265e-08 e
Info: MASS DENSITY = 0.682138 g/cm^3
Info: ATOM DENSITY = 0.0684106 atoms/A^3
Info: ADDED 0 IMPLICIT EXCLUSIONS
Info: NONBONDED TABLE R-SQUARED SPACING: 0.0625
Info: NONBONDED TABLE SIZE: 705 POINTS
Info: REMOVING COM VELOCITY -0.131517 -0.100592 -0.00506417
TCL: Running for 100000 steps
ETITLE: TS BOND ANGLE DIHED IMPRP ELECT VDW BOUNDARY MISC KINETIC TOTAL TEMP POTENTIAL TOTAL3 TEMPAVG PRESSURE GPRESSURE VOLUME PRESSAVG GPRESSAVG
ENERGY: 0 0.0888 0.1272 1.3804 0.0000 -13792.2525 2446.5227 0.0000 0.0000 1730.4652 -9613.6682 291.6797 -11344.1334 -9613.3505 291.6797 528.1037 559.2830 43604.3357 528.1037 559.2830
ENERGY: 100000 0.5513 0.8130 1.2379 0.0000 -14271.7183 2371.9336 0.0000 0.0000 175.4016 -11721.7810 29.5649 -11897.1826 -11721.3267 30.8731 -1305.4316 -1271.1920 29134.4091 4.3463 4.3975
TCL: Running 100000 steps at 60 kelvin.
TCL: Setting parameter langevinTemp to 60
TCL: Running for 100000 steps
ETITLE: TS BOND ANGLE DIHED IMPRP ELECT VDW BOUNDARY MISC KINETIC TOTAL TEMP POTENTIAL TOTAL3 TEMPAVG PRESSURE GPRESSURE VOLUME PRESSAVG GPRESSAVG
ENERGY: 100000 0.5513 0.8130 1.2379 0.0000 -14271.7183 2371.9336 0.0000 0.0000 175.3152 -11721.8674 29.5504 -11897.1826 -11721.4780 29.5504 -1320.1054 -1271.0924 29134.4091 -1320.1054 -1271.0924
ENERGY: 200000 0.5055 1.7129 1.7781 0.0000 -14169.4914 2343.8475 0.0000 0.0000 355.1879 -11466.4596 59.8689 -11821.6474 -11465.0746 60.0122 -1221.8412 -1174.8168 29155.7558 5.1303 5.0939
TCL: Running 100000 steps at 90 kelvin.
TCL: Setting parameter langevinTemp to 90
TCL: Running for 100000 steps
ETITLE: TS BOND ANGLE DIHED IMPRP ELECT VDW BOUNDARY MISC KINETIC TOTAL TEMP POTENTIAL TOTAL3 TEMPAVG PRESSURE GPRESSURE VOLUME PRESSAVG GPRESSAVG
ENERGY: 200000 0.5055 1.7129 1.7781 0.0000 -14169.4914 2343.8475 0.0000 0.0000 355.0108 -11466.6367 59.8391 -11821.6474 -11465.7200 59.8391 -1221.4554 -1174.4169 29155.7558 -1221.4554 -1174.4169
ENERGY: 300000 1.3720 2.2195 1.4256 0.0000 -14049.8504 2355.3201 0.0000 0.0000 534.0158 -11155.4974 90.0114 -11689.5132 -11154.5919 89.8307 -515.1767 -446.9402 28939.5302 4.3480 4.3626
TCL: Running 100000 steps at 120 kelvin.
TCL: Setting parameter langevinTemp to 120
TCL: Running for 100000 steps
ETITLE: TS BOND ANGLE DIHED IMPRP ELECT VDW BOUNDARY MISC KINETIC TOTAL TEMP POTENTIAL TOTAL3 TEMPAVG PRESSURE GPRESSURE VOLUME PRESSAVG GPRESSAVG
ENERGY: 300000 1.3720 2.2195 1.4256 0.0000 -14049.8504 2355.3201 0.0000 0.0000 533.7616 -11155.7516 89.9685 -11689.5133 -11154.8545 89.9685 -488.1282 -446.9938 28939.5302 -488.1282 -446.9938
ENERGY: 400000 0.0413 2.2342 1.5460 0.0000 -13972.8537 2373.9001 0.0000 0.0000 714.2704 -10880.8617 120.3943 -11595.1320 -10878.6223 120.0614 70.1658 130.8267 28944.6812 3.5119 3.5112
TCL: Running 100000 steps at 150 kelvin.
TCL: Setting parameter langevinTemp to 150
TCL: Running for 100000 steps
ETITLE: TS BOND ANGLE DIHED IMPRP ELECT VDW BOUNDARY MISC KINETIC TOTAL TEMP POTENTIAL TOTAL3 TEMPAVG PRESSURE GPRESSURE VOLUME PRESSAVG GPRESSAVG
ENERGY: 400000 0.0413 2.2342 1.5460 0.0000 -13972.8537 2373.9001 0.0000 0.0000 713.9188 -10881.2132 120.3351 -11595.1320 -10879.4094 120.3351 73.3912 131.1163 28944.6812 73.3912 131.1163
ENERGY: 500000 0.6083 2.8989 1.6606 0.0000 -13602.5545 2213.1923 0.0000 0.0000 862.4913 -10521.7031 145.3778 -11384.1944 -10519.1871 149.8437 -588.1166 -584.3760 29246.6098 4.7510 4.5991
TCL: Running 100000 steps at 180 kelvin.
TCL: Setting parameter langevinTemp to 180
TCL: Running for 100000 steps
ETITLE: TS BOND ANGLE DIHED IMPRP ELECT VDW BOUNDARY MISC KINETIC TOTAL TEMP POTENTIAL TOTAL3 TEMPAVG PRESSURE GPRESSURE VOLUME PRESSAVG GPRESSAVG
ENERGY: 500000 0.6083 2.8989 1.6606 0.0000 -13602.5545 2213.1923 0.0000 0.0000 862.0433 -10522.1511 145.3023 -11384.1944 -10520.2880 145.3023 -640.3194 -585.3010 29246.6098 -640.3194 -585.3010
ENERGY: 600000 0.6894 3.3495 1.2383 0.0000 -13187.5863 2117.9166 0.0000 0.0000 1073.3048 -9991.0878 180.9116 -11064.3926 -9988.4725 180.3991 -53.6246 57.9888 28967.8729 3.4412 3.2705
TCL: Running 100000 steps at 210 kelvin.
TCL: Setting parameter langevinTemp to 210
TCL: Running for 100000 steps
ETITLE: TS BOND ANGLE DIHED IMPRP ELECT VDW BOUNDARY MISC KINETIC TOTAL TEMP POTENTIAL TOTAL3 TEMPAVG PRESSURE GPRESSURE VOLUME PRESSAVG GPRESSAVG
ENERGY: 600000 0.6894 3.3495 1.2383 0.0000 -13187.5863 2117.9166 0.0000 0.0000 1072.7735 -9991.6190 180.8220 -11064.3926 -9989.2947 180.8220 -18.3970 58.3964 28967.8729 -18.3970 58.3964
ENERGY: 700000 2.1957 3.4579 2.1391 0.0000 -12346.5024 1768.7557 0.0000 0.0000 1238.8734 -9331.0805 208.8191 -10569.9539 -9329.6503 209.5857 -975.6868 -874.5342 29125.3063 2.5653 2.5121
TCL: Running 100000 steps at 240 kelvin.
TCL: Setting parameter langevinTemp to 240
TCL: Running for 100000 steps
ETITLE: TS BOND ANGLE DIHED IMPRP ELECT VDW BOUNDARY MISC KINETIC TOTAL TEMP POTENTIAL TOTAL3 TEMPAVG PRESSURE GPRESSURE VOLUME PRESSAVG GPRESSAVG
ENERGY: 700000 2.1957 3.4579 2.1391 0.0000 -12346.5024 1768.7557 0.0000 0.0000 1238.2432 -9331.7107 208.7129 -10569.9539 -9329.2187 208.7129 -949.5688 -875.9118 29125.3063 -949.5688 -875.9118
ENERGY: 800000 0.7809 3.7423 3.1384 0.0000 -11832.3396 1702.9473 0.0000 0.0000 1409.6327 -8712.0978 237.6016 -10121.7305 -8708.5439 239.9612 -325.4792 -312.7180 29902.5323 2.9066 2.8992
TCL: Running 100000 steps at 270 kelvin.
TCL: Setting parameter langevinTemp to 270
TCL: Running for 100000 steps
ETITLE: TS BOND ANGLE DIHED IMPRP ELECT VDW BOUNDARY MISC KINETIC TOTAL TEMP POTENTIAL TOTAL3 TEMPAVG PRESSURE GPRESSURE VOLUME PRESSAVG GPRESSAVG
ENERGY: 800000 0.7809 3.7423 3.1384 0.0000 -11832.3396 1702.9473 0.0000 0.0000 1408.9005 -8712.8300 237.4781 -10121.7305 -8710.3721 237.4781 -389.6455 -312.9483 29902.5323 -389.6455 -312.9483
ENERGY: 900000 0.7636 2.8801 2.4662 0.0000 -11570.1606 1740.1529 0.0000 0.0000 1633.8547 -8190.0430 275.3954 -9823.8977 -8185.9642 270.1850 1086.9574 1182.1240 29594.6769 3.5401 3.5794
TCL: Running 1000000 steps at 300 kelvin.
TCL: Setting parameter langevinTemp to 300
TCL: Running for 1000000 steps
ETITLE: TS BOND ANGLE DIHED IMPRP ELECT VDW BOUNDARY MISC KINETIC TOTAL TEMP POTENTIAL TOTAL3 TEMPAVG PRESSURE GPRESSURE VOLUME PRESSAVG GPRESSAVG
ENERGY: 900000 0.7636 2.8801 2.4662 0.0000 -11570.1606 1740.1529 0.0000 0.0000 1633.0555 -8190.8422 275.2607 -9823.8977 -8189.2714 275.2607 1092.8220 1183.9293 29594.6769 1092.8220 1183.9293
ENERGY: 1100000 1.1169 1.9919 1.7059 0.0000 -10679.6455 1373.0963 0.0000 0.0000 1756.0602 -7545.6743 295.9939 -9301.7344 -7541.2499 300.8008 -632.6600 -517.3805 30912.5074 2.4309 2.3967
ENERGY: 1300000 0.5693 10.7638 2.2537 0.0000 -10703.0528 1394.5697 0.0000 0.0000 1770.7856 -7524.1108 298.4759 -9294.8964 -7519.9067 299.8186 -289.3310 -237.6299 30599.1964 3.2423 3.2283
ENERGY: 1500000 0.5706 5.2169 2.7533 0.0000 -10757.9155 1381.9316 0.0000 0.0000 1774.3380 -7593.1051 299.0747 -9367.4431 -7587.0746 299.8993 -712.1837 -645.4094 31038.7089 1.5340 1.3107
ENERGY: 1700000 0.8113 5.6504 2.6418 0.0000 -10762.4761 1466.9705 0.0000 0.0000 1815.1565 -7471.2457 305.9549 -9286.4021 -7467.7355 300.7582 92.4133 145.3732 30969.9893 2.9967 2.9135
ENERGY: 1900000 1.0506 5.4114 1.8478 0.0000 -10772.1689 1442.5753 0.0000 0.0000 1772.1221 -7549.1616 298.7012 -9321.2837 -7546.9294 300.1498 -52.3000 46.3915 30684.5290 2.5671 2.5003
TCL: Exiting due to exit command.
