Info: SIMULATION PARAMETERS:
Info: TIMESTEP               2
Info: NUMBER OF STEPS        0
Info: STEPS PER CYCLE        10
Info: PERIODIC CELL BASIS 1  35.89 0 0
Info: PERIODIC CELL BASIS 2  0 34.26 0
Info: PERIODIC CELL BASIS 3  0 0 35.723
Info: PERIODIC CELL CENTER   0 0 0
Info: WRAPPING WATERS AROUND PERIODIC BOUNDARIES ON OUTPUT.
Info: WRAPPING ALL CLUSTERS AROUND PERIODIC BOUNDARIES ON OUTPUT.
Info: FIRST LDB TIMESTEP     50
Info: LAST LDB TIMESTEP     -1
Info: HOM BACKGROUND SCALING 1
Info: PME BACKGROUND SCALING 1
Info: MIN ATOMS PER PATCH    40
Info: EMPTY PATCH LOAD       40 ATOMS
Info: INITIAL TEMPERATURE    300
Info: CENTER OF MASS MOVING INITIALLY? NO
Info: DIELECTRIC             1
Info: EXCLUDE                SCALED ONE-FOUR
Info: 1-4 ELECTROSTATICS SCALED BY 0.833333
Info: MODIFIED 1-4 VDW PARAMETERS WILL BE USED
Info: DCD FILENAME           mobley_4884177_equil.dcd
Info: DCD FREQUENCY          100000
Info: DCD FIRST STEP         100000
Info: DCD FILE WILL CONTAIN UNIT CELL DATA
Info: XST FILENAME           mobley_4884177_equil.xst
Info: XST FREQUENCY          100000
Info: NO VELOCITY DCD OUTPUT
Info: NO FORCE DCD OUTPUT
Info: OUTPUT FILENAME        mobley_4884177_equil
Info: BINARY OUTPUT FILES WILL BE USED
Info: RESTART FILENAME       mobley_4884177_equil.restart
Info: RESTART FREQUENCY      100000
Info: BINARY RESTART FILES WILL BE USED
Info: CUTOFF                 9
Info: PAIRLIST DISTANCE      11
Info: PAIRLIST SHRINK RATE   0.01
Info: PAIRLIST GROW RATE     0.01
Info: PAIRLIST TRIGGER       0.3
Info: PAIRLISTS PER CYCLE    2
Info: PAIRLISTS ENABLED
Info: MARGIN                 8
Info: HYDROGEN GROUP CUTOFF  2.5
Info: PATCH DIMENSION        21.5
Info: ENERGY OUTPUT STEPS    100000
Info: ENERGY EVALUATION STEPS    100000
Info: OUTPUT ENERGY PRECISION 4
Info: CROSSTERM ENERGY INCLUDED IN DIHEDRAL
Info: TIMING OUTPUT STEPS    1000000
Info: PRESSURE OUTPUT STEPS  100000
Info: LANGEVIN DYNAMICS ACTIVE
Info: LANGEVIN TEMPERATURE   30
Info: LANGEVIN USING BBK INTEGRATOR
Info: LANGEVIN DAMPING COEFFICIENT IS 1 INVERSE PS
Info: LANGEVIN DYNAMICS APPLIED TO HYDROGENS
Info: LANGEVIN PISTON PRESSURE CONTROL ACTIVE
Info:        TARGET PRESSURE IS 1.01325 BAR
Info:     OSCILLATION PERIOD IS 50 FS
Info:             DECAY TIME IS 25 FS
Info:     PISTON TEMPERATURE IS 300 K
Info:       PRESSURE CONTROL IS GROUP-BASED
Info:    INITIAL STRAIN RATE IS 0 0 0
Info:       CELL FLUCTUATION IS ISOTROPIC
Info: PARTICLE MESH EWALD (PME) ACTIVE
Info: PME TOLERANCE               1e-06
Info: PME EWALD COEFFICIENT       0.348832
Info: PME INTERPOLATION ORDER     4
Info: PME GRID DIMENSIONS         36 36 36
Info: PME MAXIMUM GRID SPACING    1
Info: FULL ELECTROSTATIC EVALUATION FREQUENCY      2
Info: USING VERLET I (r-RESPA) MTS SCHEME.
Info: C1 SPLITTING OF LONG RANGE ELECTROSTATICS
Info: PLACING ATOMS IN PATCHES BY HYDROGEN GROUPS
Info: RIGID BONDS TO HYDROGEN : ALL
Info:         ERROR TOLERANCE : 1e-08
Info:          MAX ITERATIONS : 100
Info: RIGID WATER USING SETTLE ALGORITHM
Info: RANDOM NUMBER SEED     1743231581
Info: USE HYDROGEN BONDS?    NO
Info: Using AMBER format force field!
Info: AMBER PARM FILE        mobley_4884177.prmtop
Info: COORDINATE PDB         mobley_4884177.pdb
Info: Exclusions will be read from PARM file!
Info: SCNB (VDW SCALING)     2
Info: USING ARITHMETIC MEAN TO COMBINE L-J SIGMA PARAMETERS
Info: BINARY COORDINATES     mobley_4884177_min.coor
Info: SUMMARY OF PARAMETERS:
Info: 9 BONDS
Info: 11 ANGLES
Info:   11 HARMONIC
Info:   0 COSINE-BASED
Info: 6 DIHEDRAL
Info: 0 IMPROPER
Info: 0 CROSSTERM
Info: 0 VDW
Info: 36 VDW_PAIRS
Info: 0 NBTHOLE_PAIRS
Info: STRUCTURE SUMMARY:
Info: 2912 ATOMS
Info: 2912 BONDS
Info: 28 ANGLES
Info: 40 DIHEDRALS
Info: 0 IMPROPERS
Info: 0 CROSSTERMS
Info: 2972 EXCLUSIONS
Info: 2904 RIGID BONDS
Info: 5832 DEGREES OF FREEDOM
Info: 973 HYDROGEN GROUPS
Info: 4 ATOMS IN LARGEST HYDROGEN GROUP
Info: 973 MIGRATION GROUPS
Info: 4 ATOMS IN LARGEST MIGRATION GROUP
Info: TOTAL MASS = 17492.6 amu
Info: TOTAL CHARGE = -0.000100033 e
Info: MASS DENSITY = 0.661309 g/cm^3
Info: ATOM DENSITY = 0.0662953 atoms/A^3
Info: ADDED 0 IMPLICIT EXCLUSIONS
Info: NONBONDED TABLE R-SQUARED SPACING: 0.0625
Info: NONBONDED TABLE SIZE: 705 POINTS
Info: REMOVING COM VELOCITY -0.00091163 -0.0398701 0.0640542
TCL: Running for 100000 steps
ETITLE: TS BOND ANGLE DIHED IMPRP ELECT VDW BOUNDARY MISC KINETIC TOTAL TEMP POTENTIAL TOTAL3 TEMPAVG PRESSURE GPRESSURE VOLUME PRESSAVG GPRESSAVG
ENERGY: 0 0.2463 0.2944 0.0795 0.0000 -13466.8428 2377.0487 0.0000 0.0000 1767.9435 -9321.2303 305.0993 -11089.1738 -9320.8897 305.0993 511.3670 540.1930 43924.6936 511.3670 540.1930
ENERGY: 100000 0.3005 0.6636 0.2516 0.0000 -13967.4322 2400.6560 0.0000 0.0000 181.4489 -11384.1117 31.3132 -11565.5606 -11383.9145 30.9013 -347.4033 -255.3690 28951.0247 3.2974 3.2915
TCL: Running 100000 steps at 60 kelvin.
TCL: Setting parameter langevinTemp to 60
TCL: Running for 100000 steps
ETITLE: TS BOND ANGLE DIHED IMPRP ELECT VDW BOUNDARY MISC KINETIC TOTAL TEMP POTENTIAL TOTAL3 TEMPAVG PRESSURE GPRESSURE VOLUME PRESSAVG GPRESSAVG
ENERGY: 100000 0.3005 0.6636 0.2516 0.0000 -13967.4322 2400.6560 0.0000 0.0000 181.3613 -11384.1993 31.2981 -11565.5606 -11383.8030 31.2981 -308.0848 -255.5972 28951.0247 -308.0848 -255.5972
ENERGY: 200000 0.2864 1.1559 0.9138 0.0000 -13844.8757 2296.4182 0.0000 0.0000 357.9098 -11188.1916 61.7656 -11546.1014 -11187.6034 59.9639 -906.8807 -870.8712 28568.3094 3.0288 2.8948
TCL: Running 100000 steps at 90 kelvin.
TCL: Setting parameter langevinTemp to 90
TCL: Running for 100000 steps
ETITLE: TS BOND ANGLE DIHED IMPRP ELECT VDW BOUNDARY MISC KINETIC TOTAL TEMP POTENTIAL TOTAL3 TEMPAVG PRESSURE GPRESSURE VOLUME PRESSAVG GPRESSAVG
ENERGY: 200000 0.2864 1.1559 0.9138 0.0000 -13844.8757 2296.4182 0.0000 0.0000 357.7381 -11188.3633 61.7359 -11546.1014 -11187.4102 61.7359 -906.2059 -871.0834 28568.3094 -906.2059 -871.0834
ENERGY: 300000 0.8958 2.0521 1.6290 0.0000 -13835.3943 2380.8494 0.0000 0.0000 503.7256 -10946.2424 86.9294 -11449.9680 -10944.6860 90.0121 -8.4738 50.6872 28671.6030 3.1478 3.1597
TCL: Running 100000 steps at 120 kelvin.
TCL: Setting parameter langevinTemp to 120
TCL: Running for 100000 steps
ETITLE: TS BOND ANGLE DIHED IMPRP ELECT VDW BOUNDARY MISC KINETIC TOTAL TEMP POTENTIAL TOTAL3 TEMPAVG PRESSURE GPRESSURE VOLUME PRESSAVG GPRESSAVG
ENERGY: 300000 0.8958 2.0521 1.6290 0.0000 -13835.3943 2380.8494 0.0000 0.0000 503.4666 -10946.5014 86.8847 -11449.9680 -10945.5030 86.8847 6.7312 50.6230 28671.6030 6.7312 50.6230
ENERGY: 400000 1.0883 1.7547 1.2532 0.0000 -13508.5755 2238.0325 0.0000 0.0000 680.0879 -10586.3588 117.3648 -11266.4467 -10584.7078 119.9586 -453.8764 -403.4601 28831.2933 4.2486 4.2115
TCL: Running 100000 steps at 150 kelvin.
TCL: Setting parameter langevinTemp to 150
TCL: Running for 100000 steps
ETITLE: TS BOND ANGLE DIHED IMPRP ELECT VDW BOUNDARY MISC KINETIC TOTAL TEMP POTENTIAL TOTAL3 TEMPAVG PRESSURE GPRESSURE VOLUME PRESSAVG GPRESSAVG
ENERGY: 400000 1.0883 1.7547 1.2532 0.0000 -13508.5755 2238.0325 0.0000 0.0000 679.7415 -10586.7052 117.3050 -11266.4467 -10585.1332 117.3050 -446.8817 -403.6811 28831.2933 -446.8817 -403.6811
ENERGY: 500000 1.5549 2.2225 0.6329 0.0000 -13351.9899 2220.3776 0.0000 0.0000 867.6456 -10259.5565 149.7322 -11127.2020 -10257.9665 150.0010 -193.4314 -82.3169 28790.8162 4.6462 4.5465
TCL: Running 100000 steps at 180 kelvin.
TCL: Setting parameter langevinTemp to 180
TCL: Running for 100000 steps
ETITLE: TS BOND ANGLE DIHED IMPRP ELECT VDW BOUNDARY MISC KINETIC TOTAL TEMP POTENTIAL TOTAL3 TEMPAVG PRESSURE GPRESSURE VOLUME PRESSAVG GPRESSAVG
ENERGY: 500000 1.5549 2.2225 0.6329 0.0000 -13351.9899 2220.3776 0.0000 0.0000 867.1938 -10260.0082 149.6543 -11127.2020 -10258.0780 149.6543 -137.6460 -82.8872 28790.8162 -137.6460 -82.8872
ENERGY: 600000 1.7088 3.9280 2.5510 0.0000 -12901.3244 2099.5735 0.0000 0.0000 1059.4653 -9734.0977 182.8351 -10793.5631 -9731.6182 180.2917 288.2806 287.1112 28382.9376 4.6126 4.5128
TCL: Running 100000 steps at 210 kelvin.
TCL: Setting parameter langevinTemp to 210
TCL: Running for 100000 steps
ETITLE: TS BOND ANGLE DIHED IMPRP ELECT VDW BOUNDARY MISC KINETIC TOTAL TEMP POTENTIAL TOTAL3 TEMPAVG PRESSURE GPRESSURE VOLUME PRESSAVG GPRESSAVG
ENERGY: 600000 1.7088 3.9280 2.5510 0.0000 -12901.3244 2099.5735 0.0000 0.0000 1058.9424 -9734.6206 182.7449 -10793.5631 -9732.6721 182.7449 222.8471 287.4488 28382.9376 222.8471 287.4488
ENERGY: 700000 3.5135 5.0647 2.6697 0.0000 -12150.5196 1793.1912 0.0000 0.0000 1247.1600 -9098.9206 215.2261 -10346.0806 -9094.8584 209.6363 -663.0157 -561.5213 28396.6152 3.7353 3.6393
TCL: Running 100000 steps at 240 kelvin.
TCL: Setting parameter langevinTemp to 240
TCL: Running for 100000 steps
ETITLE: TS BOND ANGLE DIHED IMPRP ELECT VDW BOUNDARY MISC KINETIC TOTAL TEMP POTENTIAL TOTAL3 TEMPAVG PRESSURE GPRESSURE VOLUME PRESSAVG GPRESSAVG
ENERGY: 700000 3.5135 5.0647 2.6697 0.0000 -12150.5196 1793.1912 0.0000 0.0000 1246.5307 -9099.5498 215.1176 -10346.0806 -9097.0562 215.1176 -636.8244 -560.6508 28396.6152 -636.8244 -560.6508
ENERGY: 800000 2.7939 5.6046 1.9942 0.0000 -11604.9625 1661.4042 0.0000 0.0000 1387.4490 -8545.7167 239.4362 -9933.1656 -8546.1237 240.0790 -140.6561 -29.6315 28678.3570 2.7748 2.8225
TCL: Running 100000 steps at 270 kelvin.
TCL: Setting parameter langevinTemp to 270
TCL: Running for 100000 steps
ETITLE: TS BOND ANGLE DIHED IMPRP ELECT VDW BOUNDARY MISC KINETIC TOTAL TEMP POTENTIAL TOTAL3 TEMPAVG PRESSURE GPRESSURE VOLUME PRESSAVG GPRESSAVG
ENERGY: 800000 2.7939 5.6046 1.9942 0.0000 -11604.9625 1661.4042 0.0000 0.0000 1386.7998 -8546.3659 239.3242 -9933.1656 -8543.9285 239.3242 -116.3920 -33.0617 28678.3570 -116.3920 -33.0617
ENERGY: 900000 1.9686 5.9274 2.7157 0.0000 -11001.7951 1512.8805 0.0000 0.0000 1540.9158 -7937.3870 265.9205 -9478.3028 -7934.6390 269.7208 -225.6621 -172.0472 29450.8748 3.6708 3.9278
TCL: Running 1000000 steps at 300 kelvin.
TCL: Setting parameter langevinTemp to 300
TCL: Running for 1000000 steps
ETITLE: TS BOND ANGLE DIHED IMPRP ELECT VDW BOUNDARY MISC KINETIC TOTAL TEMP POTENTIAL TOTAL3 TEMPAVG PRESSURE GPRESSURE VOLUME PRESSAVG GPRESSAVG
ENERGY: 900000 1.9686 5.9274 2.7157 0.0000 -11001.7951 1512.8805 0.0000 0.0000 1540.1322 -7938.1706 265.7853 -9478.3028 -7936.0014 265.7853 -262.8546 -171.9074 29450.8748 -262.8546 -171.9074
ENERGY: 1100000 1.9144 4.6572 1.4276 0.0000 -10495.1650 1391.0910 0.0000 0.0000 1678.7997 -7417.2751 289.7155 -9096.0748 -7413.1358 299.8560 -265.3708 -169.6028 30198.5008 2.3908 2.4517
ENERGY: 1300000 2.5244 6.4880 1.5441 0.0000 -10533.0180 1366.5389 0.0000 0.0000 1693.3246 -7462.5981 292.2221 -9155.9227 -7459.0231 300.3719 -467.9760 -372.9801 29969.6766 3.1170 2.7860
ENERGY: 1500000 2.4878 9.8928 2.6564 0.0000 -10489.8801 1410.6643 0.0000 0.0000 1739.6691 -7324.5098 300.2199 -9064.1789 -7322.2918 300.3223 192.5601 201.8976 29838.8184 4.0779 4.0201
ENERGY: 1700000 2.3033 5.8106 4.2057 0.0000 -10696.5605 1466.9616 0.0000 0.0000 1752.5801 -7464.6993 302.4480 -9217.2794 -7462.4549 300.5049 232.0716 342.1546 29801.6713 3.1059 3.2189
ENERGY: 1900000 2.2821 4.3332 3.0538 0.0000 -10578.8876 1403.4289 0.0000 0.0000 1789.3453 -7376.4443 308.7927 -9165.7896 -7371.8767 300.2917 -367.4783 -252.8873 30188.4670 2.9563 2.9373
TCL: Exiting due to exit command.
