Info: SIMULATION PARAMETERS:
Info: TIMESTEP               2
Info: NUMBER OF STEPS        0
Info: STEPS PER CYCLE        10
Info: PERIODIC CELL BASIS 1  35.01 0 0
Info: PERIODIC CELL BASIS 2  0 36.451 0
Info: PERIODIC CELL BASIS 3  0 0 34.954
Info: PERIODIC CELL CENTER   0 0 0
Info: WRAPPING WATERS AROUND PERIODIC BOUNDARIES ON OUTPUT.
Info: WRAPPING ALL CLUSTERS AROUND PERIODIC BOUNDARIES ON OUTPUT.
Info: FIRST LDB TIMESTEP     50
Info: LAST LDB TIMESTEP     -1
Info: HOM BACKGROUND SCALING 1
Info: PME BACKGROUND SCALING 1
Info: MIN ATOMS PER PATCH    40
Info: EMPTY PATCH LOAD       40 ATOMS
Info: INITIAL TEMPERATURE    300
Info: CENTER OF MASS MOVING INITIALLY? NO
Info: DIELECTRIC             1
Info: EXCLUDE                SCALED ONE-FOUR
Info: 1-4 ELECTROSTATICS SCALED BY 0.833333
Info: MODIFIED 1-4 VDW PARAMETERS WILL BE USED
Info: DCD FILENAME           mobley_6981465_equil.dcd
Info: DCD FREQUENCY          100000
Info: DCD FIRST STEP         100000
Info: DCD FILE WILL CONTAIN UNIT CELL DATA
Info: XST FILENAME           mobley_6981465_equil.xst
Info: XST FREQUENCY          100000
Info: NO VELOCITY DCD OUTPUT
Info: NO FORCE DCD OUTPUT
Info: OUTPUT FILENAME        mobley_6981465_equil
Info: BINARY OUTPUT FILES WILL BE USED
Info: RESTART FILENAME       mobley_6981465_equil.restart
Info: RESTART FREQUENCY      100000
Info: BINARY RESTART FILES WILL BE USED
Info: CUTOFF                 9
Info: PAIRLIST DISTANCE      11
Info: PAIRLIST SHRINK RATE   0.01
Info: PAIRLIST GROW RATE     0.01
Info: PAIRLIST TRIGGER       0.3
Info: PAIRLISTS PER CYCLE    2
Info: PAIRLISTS ENABLED
Info: MARGIN                 8
Info: HYDROGEN GROUP CUTOFF  2.5
Info: PATCH DIMENSION        21.5
Info: ENERGY OUTPUT STEPS    100000
Info: ENERGY EVALUATION STEPS    100000
Info: OUTPUT ENERGY PRECISION 4
Info: CROSSTERM ENERGY INCLUDED IN DIHEDRAL
Info: TIMING OUTPUT STEPS    1000000
Info: PRESSURE OUTPUT STEPS  100000
Info: LANGEVIN DYNAMICS ACTIVE
Info: LANGEVIN TEMPERATURE   30
Info: LANGEVIN USING BBK INTEGRATOR
Info: LANGEVIN DAMPING COEFFICIENT IS 1 INVERSE PS
Info: LANGEVIN DYNAMICS APPLIED TO HYDROGENS
Info: LANGEVIN PISTON PRESSURE CONTROL ACTIVE
Info:        TARGET PRESSURE IS 1.01325 BAR
Info:     OSCILLATION PERIOD IS 50 FS
Info:             DECAY TIME IS 25 FS
Info:     PISTON TEMPERATURE IS 300 K
Info:       PRESSURE CONTROL IS GROUP-BASED
Info:    INITIAL STRAIN RATE IS 0 0 0
Info:       CELL FLUCTUATION IS ISOTROPIC
Info: PARTICLE MESH EWALD (PME) ACTIVE
Info: PME TOLERANCE               1e-06
Info: PME EWALD COEFFICIENT       0.348832
Info: PME INTERPOLATION ORDER     4
Info: PME GRID DIMENSIONS         36 40 36
Info: PME MAXIMUM GRID SPACING    1
Info: FULL ELECTROSTATIC EVALUATION FREQUENCY      2
Info: USING VERLET I (r-RESPA) MTS SCHEME.
Info: C1 SPLITTING OF LONG RANGE ELECTROSTATICS
Info: PLACING ATOMS IN PATCHES BY HYDROGEN GROUPS
Info: RIGID BONDS TO HYDROGEN : ALL
Info:         ERROR TOLERANCE : 1e-08
Info:          MAX ITERATIONS : 100
Info: RIGID WATER USING SETTLE ALGORITHM
Info: RANDOM NUMBER SEED     1743231674
Info: USE HYDROGEN BONDS?    NO
Info: Using AMBER format force field!
Info: AMBER PARM FILE        mobley_6981465.prmtop
Info: COORDINATE PDB         mobley_6981465.pdb
Info: Exclusions will be read from PARM file!
Info: SCNB (VDW SCALING)     2
Info: USING ARITHMETIC MEAN TO COMBINE L-J SIGMA PARAMETERS
Info: BINARY COORDINATES     mobley_6981465_min.coor
Info: SUMMARY OF PARAMETERS:
Info: 9 BONDS
Info: 11 ANGLES
Info:   11 HARMONIC
Info:   0 COSINE-BASED
Info: 16 DIHEDRAL
Info: 0 IMPROPER
Info: 0 CROSSTERM
Info: 0 VDW
Info: 36 VDW_PAIRS
Info: 0 NBTHOLE_PAIRS
Info: STRUCTURE SUMMARY:
Info: 2948 ATOMS
Info: 2947 BONDS
Info: 28 ANGLES
Info: 47 DIHEDRALS
Info: 0 IMPROPERS
Info: 0 CROSSTERMS
Info: 3004 EXCLUSIONS
Info: 2941 RIGID BONDS
Info: 5903 DEGREES OF FREEDOM
Info: 984 HYDROGEN GROUPS
Info: 4 ATOMS IN LARGEST HYDROGEN GROUP
Info: 984 MIGRATION GROUPS
Info: 4 ATOMS IN LARGEST MIGRATION GROUP
Info: TOTAL MASS = 17703.8 amu
Info: TOTAL CHARGE = -4.47035e-08 e
Info: MASS DENSITY = 0.659062 g/cm^3
Info: ATOM DENSITY = 0.066089 atoms/A^3
Info: ADDED 0 IMPLICIT EXCLUSIONS
Info: NONBONDED TABLE R-SQUARED SPACING: 0.0625
Info: NONBONDED TABLE SIZE: 705 POINTS
Info: REMOVING COM VELOCITY 0.129361 -0.0163453 -0.0629622
TCL: Running for 100000 steps
ETITLE: TS BOND ANGLE DIHED IMPRP ELECT VDW BOUNDARY MISC KINETIC TOTAL TEMP POTENTIAL TOTAL3 TEMPAVG PRESSURE GPRESSURE VOLUME PRESSAVG GPRESSAVG
ENERGY: 0 0.0704 0.6427 6.8326 0.0000 -13715.8524 2447.7147 0.0000 0.0000 1747.3651 -9513.2271 297.9211 -11260.5922 -9512.8511 297.9211 532.5059 568.1013 44606.5300 532.5059 568.1013
ENERGY: 100000 0.7260 1.1671 6.7273 0.0000 -14065.8952 2330.1083 0.0000 0.0000 173.4428 -11553.7238 29.5715 -11727.1666 -11553.2153 30.9067 -1176.7160 -1115.7137 29231.7044 2.9246 2.9424
TCL: Running 100000 steps at 60 kelvin.
TCL: Setting parameter langevinTemp to 60
TCL: Running for 100000 steps
ETITLE: TS BOND ANGLE DIHED IMPRP ELECT VDW BOUNDARY MISC KINETIC TOTAL TEMP POTENTIAL TOTAL3 TEMPAVG PRESSURE GPRESSURE VOLUME PRESSAVG GPRESSAVG
ENERGY: 100000 0.7260 1.1671 6.7273 0.0000 -14065.8952 2330.1083 0.0000 0.0000 173.3535 -11553.8131 29.5563 -11727.1666 -11553.4438 29.5563 -1177.7997 -1115.6164 29231.7044 -1177.7997 -1115.6164
ENERGY: 200000 0.7963 2.0017 7.1063 0.0000 -14069.9570 2385.5995 0.0000 0.0000 358.3991 -11316.0541 61.1061 -11674.4532 -11315.0232 60.0790 -324.4294 -260.0470 28719.7715 4.0068 3.9508
TCL: Running 100000 steps at 90 kelvin.
TCL: Setting parameter langevinTemp to 90
TCL: Running for 100000 steps
ETITLE: TS BOND ANGLE DIHED IMPRP ELECT VDW BOUNDARY MISC KINETIC TOTAL TEMP POTENTIAL TOTAL3 TEMPAVG PRESSURE GPRESSURE VOLUME PRESSAVG GPRESSAVG
ENERGY: 200000 0.7963 2.0017 7.1063 0.0000 -14069.9570 2385.5995 0.0000 0.0000 358.2293 -11316.2239 61.0771 -11674.4532 -11315.3835 61.0771 -317.9095 -259.8430 28719.7715 -317.9095 -259.8430
ENERGY: 300000 0.9907 2.6866 6.9995 0.0000 -13970.0703 2381.3261 0.0000 0.0000 539.3083 -11038.7590 91.9506 -11578.0673 -11037.6827 89.8614 146.4033 168.6920 28676.6705 4.7557 4.7453
TCL: Running 100000 steps at 120 kelvin.
TCL: Setting parameter langevinTemp to 120
TCL: Running for 100000 steps
ETITLE: TS BOND ANGLE DIHED IMPRP ELECT VDW BOUNDARY MISC KINETIC TOTAL TEMP POTENTIAL TOTAL3 TEMPAVG PRESSURE GPRESSURE VOLUME PRESSAVG GPRESSAVG
ENERGY: 300000 0.9907 2.6866 6.9995 0.0000 -13970.0703 2381.3261 0.0000 0.0000 539.0550 -11039.0123 91.9074 -11578.0673 -11037.8767 91.9074 119.7382 168.6767 28676.6705 119.7382 168.6767
ENERGY: 400000 0.4420 2.3338 7.3982 0.0000 -13693.0371 2257.4904 0.0000 0.0000 711.5918 -10713.7809 121.3245 -11425.3727 -10711.5914 119.9134 -332.6946 -299.4319 28643.9266 3.7782 3.8360
TCL: Running 100000 steps at 150 kelvin.
TCL: Setting parameter langevinTemp to 150
TCL: Running for 100000 steps
ETITLE: TS BOND ANGLE DIHED IMPRP ELECT VDW BOUNDARY MISC KINETIC TOTAL TEMP POTENTIAL TOTAL3 TEMPAVG PRESSURE GPRESSURE VOLUME PRESSAVG GPRESSAVG
ENERGY: 400000 0.4420 2.3338 7.3982 0.0000 -13693.0371 2257.4904 0.0000 0.0000 711.2496 -10714.1231 121.2662 -11425.3727 -10712.5525 121.2662 -357.1690 -299.0665 28643.9266 -357.1690 -299.0665
ENERGY: 500000 0.6178 2.4408 6.9935 0.0000 -13573.6825 2291.0701 0.0000 0.0000 881.8631 -10390.6972 150.3553 -11272.5603 -10388.4498 150.0694 485.2188 553.0217 28405.0871 4.3425 4.3603
TCL: Running 100000 steps at 180 kelvin.
TCL: Setting parameter langevinTemp to 180
TCL: Running for 100000 steps
ETITLE: TS BOND ANGLE DIHED IMPRP ELECT VDW BOUNDARY MISC KINETIC TOTAL TEMP POTENTIAL TOTAL3 TEMPAVG PRESSURE GPRESSURE VOLUME PRESSAVG GPRESSAVG
ENERGY: 500000 0.6178 2.4408 6.9935 0.0000 -13573.6825 2291.0701 0.0000 0.0000 881.4263 -10391.1340 150.2808 -11272.5603 -10389.7263 150.2808 485.5348 552.9046 28405.0871 485.5348 552.9046
ENERGY: 600000 1.0753 6.0202 6.8030 0.0000 -13080.1365 2106.6932 0.0000 0.0000 1036.2286 -9923.3162 176.6742 -10959.5449 -9919.9942 179.4339 -48.9333 68.5546 28744.8805 4.2721 4.2565
TCL: Running 100000 steps at 210 kelvin.
TCL: Setting parameter langevinTemp to 210
TCL: Running for 100000 steps
ETITLE: TS BOND ANGLE DIHED IMPRP ELECT VDW BOUNDARY MISC KINETIC TOTAL TEMP POTENTIAL TOTAL3 TEMPAVG PRESSURE GPRESSURE VOLUME PRESSAVG GPRESSAVG
ENERGY: 600000 1.0753 6.0202 6.8030 0.0000 -13080.1365 2106.6932 0.0000 0.0000 1035.6973 -9923.8475 176.5836 -10959.5449 -9921.3883 176.5836 8.4396 68.2813 28744.8805 8.4396 68.2813
ENERGY: 700000 2.0230 5.0296 6.7580 0.0000 -12547.7573 1989.5524 0.0000 0.0000 1216.5488 -9327.8455 207.4183 -10544.3943 -9325.6375 209.8865 718.4081 814.3277 28644.4139 3.7079 3.8106
TCL: Running 100000 steps at 240 kelvin.
TCL: Setting parameter langevinTemp to 240
TCL: Running for 100000 steps
ETITLE: TS BOND ANGLE DIHED IMPRP ELECT VDW BOUNDARY MISC KINETIC TOTAL TEMP POTENTIAL TOTAL3 TEMPAVG PRESSURE GPRESSURE VOLUME PRESSAVG GPRESSAVG
ENERGY: 700000 2.0230 5.0296 6.7580 0.0000 -12547.7573 1989.5524 0.0000 0.0000 1215.9398 -9328.4545 207.3145 -10544.3943 -9326.2288 207.3145 748.7727 813.6578 28644.4139 748.7727 813.6578
ENERGY: 800000 3.0183 8.9507 8.1757 0.0000 -11768.8456 1690.0132 0.0000 0.0000 1437.3259 -8621.3617 245.0602 -10058.6877 -8618.5094 240.2687 -211.2844 -155.5505 29363.7550 2.6201 2.8244
TCL: Running 100000 steps at 270 kelvin.
TCL: Setting parameter langevinTemp to 270
TCL: Running for 100000 steps
ETITLE: TS BOND ANGLE DIHED IMPRP ELECT VDW BOUNDARY MISC KINETIC TOTAL TEMP POTENTIAL TOTAL3 TEMPAVG PRESSURE GPRESSURE VOLUME PRESSAVG GPRESSAVG
ENERGY: 800000 3.0183 8.9507 8.1757 0.0000 -11768.8456 1690.0132 0.0000 0.0000 1436.6529 -8622.0348 244.9455 -10058.6877 -8619.3669 244.9455 -238.6973 -155.4439 29363.7550 -238.6973 -155.4439
ENERGY: 900000 2.4449 8.6335 7.2035 0.0000 -11330.7347 1631.7519 0.0000 0.0000 1564.4004 -8116.3005 266.7261 -9680.7009 -8115.1612 270.2135 420.1783 468.3135 29512.8263 2.3619 2.5866
TCL: Running 1000000 steps at 300 kelvin.
TCL: Setting parameter langevinTemp to 300
TCL: Running for 1000000 steps
ETITLE: TS BOND ANGLE DIHED IMPRP ELECT VDW BOUNDARY MISC KINETIC TOTAL TEMP POTENTIAL TOTAL3 TEMPAVG PRESSURE GPRESSURE VOLUME PRESSAVG GPRESSAVG
ENERGY: 900000 2.4449 8.6335 7.2035 0.0000 -11330.7347 1631.7519 0.0000 0.0000 1563.5885 -8117.1124 266.5877 -9680.7009 -8114.2930 266.5877 392.6939 466.1553 29512.8263 392.6939 466.1553
ENERGY: 1100000 0.3918 5.1730 9.5755 0.0000 -10707.5570 1499.6155 0.0000 0.0000 1762.6446 -7430.1565 300.5262 -9192.8011 -7426.5454 300.5960 811.3677 927.6162 30186.9674 2.9090 3.0264
ENERGY: 1300000 2.4163 14.2622 7.4875 0.0000 -10834.3248 1414.6144 0.0000 0.0000 1848.2360 -7547.3084 315.1193 -9395.5444 -7544.8621 300.6077 -533.0418 -474.2586 30427.7197 3.1359 3.1422
ENERGY: 1500000 1.5893 6.4047 8.1331 0.0000 -10736.4680 1404.8196 0.0000 0.0000 1732.5513 -7582.9700 295.3954 -9315.5213 -7580.3900 300.3070 -532.3735 -460.7386 30530.0867 4.6238 4.4353
ENERGY: 1700000 0.3088 9.4972 7.9798 0.0000 -10630.2095 1389.6175 0.0000 0.0000 1678.7535 -7544.0527 286.2230 -9222.8062 -7540.9716 300.2834 -257.9347 -176.2366 30399.0790 3.0865 3.1322
ENERGY: 1900000 1.7471 4.6117 7.6879 0.0000 -10697.6868 1435.1401 0.0000 0.0000 1824.8852 -7423.6148 311.1381 -9248.5000 -7417.5720 300.2609 -52.4193 3.0977 30462.6678 3.0483 3.1164
TCL: Exiting due to exit command.
