Info: SIMULATION PARAMETERS:
Info: TIMESTEP               2
Info: NUMBER OF STEPS        0
Info: STEPS PER CYCLE        10
Info: PERIODIC CELL BASIS 1  38.861 0 0
Info: PERIODIC CELL BASIS 2  0 34.1 0
Info: PERIODIC CELL BASIS 3  0 0 34.01
Info: PERIODIC CELL CENTER   0 0 0
Info: WRAPPING WATERS AROUND PERIODIC BOUNDARIES ON OUTPUT.
Info: WRAPPING ALL CLUSTERS AROUND PERIODIC BOUNDARIES ON OUTPUT.
Info: FIRST LDB TIMESTEP     50
Info: LAST LDB TIMESTEP     -1
Info: HOM BACKGROUND SCALING 1
Info: PME BACKGROUND SCALING 1
Info: MIN ATOMS PER PATCH    40
Info: EMPTY PATCH LOAD       40 ATOMS
Info: INITIAL TEMPERATURE    300
Info: CENTER OF MASS MOVING INITIALLY? NO
Info: DIELECTRIC             1
Info: EXCLUDE                SCALED ONE-FOUR
Info: 1-4 ELECTROSTATICS SCALED BY 0.833333
Info: MODIFIED 1-4 VDW PARAMETERS WILL BE USED
Info: DCD FILENAME           mobley_7142697_equil.dcd
Info: DCD FREQUENCY          100000
Info: DCD FIRST STEP         100000
Info: DCD FILE WILL CONTAIN UNIT CELL DATA
Info: XST FILENAME           mobley_7142697_equil.xst
Info: XST FREQUENCY          100000
Info: NO VELOCITY DCD OUTPUT
Info: NO FORCE DCD OUTPUT
Info: OUTPUT FILENAME        mobley_7142697_equil
Info: BINARY OUTPUT FILES WILL BE USED
Info: RESTART FILENAME       mobley_7142697_equil.restart
Info: RESTART FREQUENCY      100000
Info: BINARY RESTART FILES WILL BE USED
Info: CUTOFF                 9
Info: PAIRLIST DISTANCE      11
Info: PAIRLIST SHRINK RATE   0.01
Info: PAIRLIST GROW RATE     0.01
Info: PAIRLIST TRIGGER       0.3
Info: PAIRLISTS PER CYCLE    2
Info: PAIRLISTS ENABLED
Info: MARGIN                 8
Info: HYDROGEN GROUP CUTOFF  2.5
Info: PATCH DIMENSION        21.5
Info: ENERGY OUTPUT STEPS    100000
Info: ENERGY EVALUATION STEPS    100000
Info: OUTPUT ENERGY PRECISION 4
Info: CROSSTERM ENERGY INCLUDED IN DIHEDRAL
Info: TIMING OUTPUT STEPS    1000000
Info: PRESSURE OUTPUT STEPS  100000
Info: LANGEVIN DYNAMICS ACTIVE
Info: LANGEVIN TEMPERATURE   30
Info: LANGEVIN USING BBK INTEGRATOR
Info: LANGEVIN DAMPING COEFFICIENT IS 1 INVERSE PS
Info: LANGEVIN DYNAMICS APPLIED TO HYDROGENS
Info: LANGEVIN PISTON PRESSURE CONTROL ACTIVE
Info:        TARGET PRESSURE IS 1.01325 BAR
Info:     OSCILLATION PERIOD IS 50 FS
Info:             DECAY TIME IS 25 FS
Info:     PISTON TEMPERATURE IS 300 K
Info:       PRESSURE CONTROL IS GROUP-BASED
Info:    INITIAL STRAIN RATE IS 0 0 0
Info:       CELL FLUCTUATION IS ISOTROPIC
Info: PARTICLE MESH EWALD (PME) ACTIVE
Info: PME TOLERANCE               1e-06
Info: PME EWALD COEFFICIENT       0.348832
Info: PME INTERPOLATION ORDER     4
Info: PME GRID DIMENSIONS         40 36 36
Info: PME MAXIMUM GRID SPACING    1
Info: FULL ELECTROSTATIC EVALUATION FREQUENCY      2
Info: USING VERLET I (r-RESPA) MTS SCHEME.
Info: C1 SPLITTING OF LONG RANGE ELECTROSTATICS
Info: PLACING ATOMS IN PATCHES BY HYDROGEN GROUPS
Info: RIGID BONDS TO HYDROGEN : ALL
Info:         ERROR TOLERANCE : 1e-08
Info:          MAX ITERATIONS : 100
Info: RIGID WATER USING SETTLE ALGORITHM
Info: RANDOM NUMBER SEED     1743250037
Info: USE HYDROGEN BONDS?    NO
Info: Using AMBER format force field!
Info: AMBER PARM FILE        mobley_7142697.prmtop
Info: COORDINATE PDB         mobley_7142697.pdb
Info: Exclusions will be read from PARM file!
Info: SCNB (VDW SCALING)     2
Info: USING ARITHMETIC MEAN TO COMBINE L-J SIGMA PARAMETERS
Info: BINARY COORDINATES     mobley_7142697_min.coor
Info: SUMMARY OF PARAMETERS:
Info: 7 BONDS
Info: 9 ANGLES
Info: 7 DIHEDRAL
Info: 0 IMPROPER
Info: 0 CROSSTERM
Info: 0 VDW
Info: 28 VDW_PAIRS
Info: 0 NBTHOLE_PAIRS
Info: STRUCTURE SUMMARY:
Info: 2998 ATOMS
Info: 2997 BONDS
Info: 33 ANGLES
Info: 46 DIHEDRALS
Info: 0 IMPROPERS
Info: 0 CROSSTERMS
Info: 3072 EXCLUSIONS
Info: 2992 RIGID BONDS
Info: 6002 DEGREES OF FREEDOM
Info: 999 HYDROGEN GROUPS
Info: 4 ATOMS IN LARGEST HYDROGEN GROUP
Info: 999 MIGRATION GROUPS
Info: 4 ATOMS IN LARGEST MIGRATION GROUP
Info: TOTAL MASS = 17977.1 amu
Info: TOTAL CHARGE = -0.000300042 e
Info: MASS DENSITY = 0.662373 g/cm^3
Info: ATOM DENSITY = 0.0665207 atoms/A^3
Info: ADDED 0 IMPLICIT EXCLUSIONS
Info: NONBONDED TABLE R-SQUARED SPACING: 0.0625
Info: NONBONDED TABLE SIZE: 705 POINTS
Info: REMOVING COM VELOCITY 0.0524172 0.0395275 0.120517
TCL: Running for 100000 steps
ETITLE: TS BOND ANGLE DIHED IMPRP ELECT VDW BOUNDARY MISC KINETIC TOTAL TEMP POTENTIAL TOTAL3 TEMPAVG PRESSURE GPRESSURE VOLUME PRESSAVG GPRESSAVG
ENERGY: 0 0.0478 0.2528 0.8864 0.0000 -13870.1128 2471.8113 0.0000 0.0000 1761.3588 -9635.7557 295.3536 -11397.1145 -9635.4116 295.3536 508.7828 543.1734 45068.6950 508.7828 543.1734
ENERGY: 100000 0.1553 1.3488 1.0341 0.0000 -14330.8092 2451.5831 0.0000 0.0000 177.6759 -11699.0120 29.7936 -11876.6879 -11698.3074 30.8828 -484.3264 -430.9512 29524.6848 0.9146 0.9002
TCL: Running 100000 steps at 60 kelvin.
TCL: Setting parameter langevinTemp to 60
TCL: Running for 100000 steps
ETITLE: TS BOND ANGLE DIHED IMPRP ELECT VDW BOUNDARY MISC KINETIC TOTAL TEMP POTENTIAL TOTAL3 TEMPAVG PRESSURE GPRESSURE VOLUME PRESSAVG GPRESSAVG
ENERGY: 100000 0.1553 1.3488 1.0341 0.0000 -14330.8092 2451.5831 0.0000 0.0000 177.5856 -11699.1023 29.7785 -11876.6879 -11698.7555 29.7785 -491.5655 -430.7575 29524.6848 -491.5655 -430.7575
ENERGY: 200000 0.3748 1.3360 1.3817 0.0000 -14255.3032 2403.1660 0.0000 0.0000 356.4717 -11492.5731 59.7750 -11849.0447 -11491.5108 59.9612 -688.9237 -651.3481 29206.3813 3.4186 3.3847
TCL: Running 100000 steps at 90 kelvin.
TCL: Setting parameter langevinTemp to 90
TCL: Running for 100000 steps
ETITLE: TS BOND ANGLE DIHED IMPRP ELECT VDW BOUNDARY MISC KINETIC TOTAL TEMP POTENTIAL TOTAL3 TEMPAVG PRESSURE GPRESSURE VOLUME PRESSAVG GPRESSAVG
ENERGY: 200000 0.3748 1.3360 1.3817 0.0000 -14255.3032 2403.1660 0.0000 0.0000 356.3020 -11492.7427 59.7465 -11849.0447 -11491.9719 59.7465 -704.0838 -651.2737 29206.3813 -704.0838 -651.2737
ENERGY: 300000 0.4301 2.9760 1.1077 0.0000 -14186.8380 2406.1672 0.0000 0.0000 524.8379 -11251.3192 88.0075 -11776.1571 -11249.8597 90.0260 -514.4479 -445.8665 29332.6014 4.8821 4.8866
TCL: Running 100000 steps at 120 kelvin.
TCL: Setting parameter langevinTemp to 120
TCL: Running for 100000 steps
ETITLE: TS BOND ANGLE DIHED IMPRP ELECT VDW BOUNDARY MISC KINETIC TOTAL TEMP POTENTIAL TOTAL3 TEMPAVG PRESSURE GPRESSURE VOLUME PRESSAVG GPRESSAVG
ENERGY: 300000 0.4301 2.9760 1.1077 0.0000 -14186.8380 2406.1672 0.0000 0.0000 524.5499 -11251.6073 87.9592 -11776.1571 -11250.5580 87.9592 -510.5049 -445.5868 29332.6014 -510.5049 -445.5868
ENERGY: 400000 0.3551 2.4765 1.2225 0.0000 -14040.1950 2411.9519 0.0000 0.0000 711.9556 -10912.2334 119.3843 -11624.1890 -10910.9989 119.7827 294.2733 298.2863 29154.8557 4.8264 4.8083
TCL: Running 100000 steps at 150 kelvin.
TCL: Setting parameter langevinTemp to 150
TCL: Running for 100000 steps
ETITLE: TS BOND ANGLE DIHED IMPRP ELECT VDW BOUNDARY MISC KINETIC TOTAL TEMP POTENTIAL TOTAL3 TEMPAVG PRESSURE GPRESSURE VOLUME PRESSAVG GPRESSAVG
ENERGY: 400000 0.3551 2.4765 1.2225 0.0000 -14040.1950 2411.9519 0.0000 0.0000 711.6195 -10912.5695 119.3280 -11624.1890 -10911.1557 119.3280 259.3011 297.8409 29154.8557 259.3011 297.8409
ENERGY: 500000 0.1419 5.3477 1.6593 0.0000 -13728.3399 2323.0071 0.0000 0.0000 892.7509 -10505.4332 149.7010 -11398.1840 -10502.8488 149.7578 341.9303 380.0587 29414.6803 1.7556 1.8169
TCL: Running 100000 steps at 180 kelvin.
TCL: Setting parameter langevinTemp to 180
TCL: Running for 100000 steps
ETITLE: TS BOND ANGLE DIHED IMPRP ELECT VDW BOUNDARY MISC KINETIC TOTAL TEMP POTENTIAL TOTAL3 TEMPAVG PRESSURE GPRESSURE VOLUME PRESSAVG GPRESSAVG
ENERGY: 500000 0.1419 5.3477 1.6593 0.0000 -13728.3399 2323.0071 0.0000 0.0000 892.3183 -10505.8658 149.6285 -11398.1840 -10504.3132 149.6285 315.4854 380.0774 29414.6803 315.4854 380.0774
ENERGY: 600000 0.6195 4.2319 1.8095 0.0000 -13372.7193 2232.1801 0.0000 0.0000 1079.9238 -10053.9545 181.0871 -11133.8783 -10052.7864 179.6114 520.9565 578.1260 29487.3902 4.4282 4.5427
TCL: Running 100000 steps at 210 kelvin.
TCL: Setting parameter langevinTemp to 210
TCL: Running for 100000 steps
ETITLE: TS BOND ANGLE DIHED IMPRP ELECT VDW BOUNDARY MISC KINETIC TOTAL TEMP POTENTIAL TOTAL3 TEMPAVG PRESSURE GPRESSURE VOLUME PRESSAVG GPRESSAVG
ENERGY: 600000 0.6195 4.2319 1.8095 0.0000 -13372.7193 2232.1801 0.0000 0.0000 1079.3818 -10054.4964 180.9962 -11133.8783 -10052.6903 180.9962 523.9651 577.7097 29487.3902 523.9651 577.7097
ENERGY: 700000 0.4962 5.2430 2.9935 0.0000 -12666.4008 1967.9846 0.0000 0.0000 1271.9371 -9417.7464 213.2849 -10689.6835 -9414.6100 209.4101 372.7748 463.1499 28860.3458 3.7028 3.6510
TCL: Running 100000 steps at 240 kelvin.
TCL: Setting parameter langevinTemp to 240
TCL: Running for 100000 steps
ETITLE: TS BOND ANGLE DIHED IMPRP ELECT VDW BOUNDARY MISC KINETIC TOTAL TEMP POTENTIAL TOTAL3 TEMPAVG PRESSURE GPRESSURE VOLUME PRESSAVG GPRESSAVG
ENERGY: 700000 0.4962 5.2430 2.9935 0.0000 -12666.4008 1967.9846 0.0000 0.0000 1271.3340 -9418.3496 213.1837 -10689.6835 -9415.8353 213.1837 382.5536 463.9129 28860.3458 382.5536 463.9129
ENERGY: 800000 1.5998 8.3836 1.7466 0.0000 -11943.6475 1680.9300 0.0000 0.0000 1419.6653 -8831.3223 238.0567 -10250.9876 -8828.7894 240.0813 -474.8106 -371.1631 29488.3492 3.8119 3.7629
TCL: Running 100000 steps at 270 kelvin.
TCL: Setting parameter langevinTemp to 270
TCL: Running for 100000 steps
ETITLE: TS BOND ANGLE DIHED IMPRP ELECT VDW BOUNDARY MISC KINETIC TOTAL TEMP POTENTIAL TOTAL3 TEMPAVG PRESSURE GPRESSURE VOLUME PRESSAVG GPRESSAVG
ENERGY: 800000 1.5998 8.3836 1.7466 0.0000 -11943.6475 1680.9300 0.0000 0.0000 1418.9368 -8832.0507 237.9345 -10250.9876 -8829.7746 237.9345 -453.9951 -372.1759 29488.3492 -453.9951 -372.1759
ENERGY: 900000 1.7871 9.7886 3.3109 0.0000 -11471.1645 1646.6966 0.0000 0.0000 1623.3377 -8186.2436 272.2095 -9809.5813 -8185.1306 270.0400 452.3023 567.7054 29758.0798 2.6339 2.7776
TCL: Running 1000000 steps at 300 kelvin.
TCL: Setting parameter langevinTemp to 300
TCL: Running for 1000000 steps
ETITLE: TS BOND ANGLE DIHED IMPRP ELECT VDW BOUNDARY MISC KINETIC TOTAL TEMP POTENTIAL TOTAL3 TEMPAVG PRESSURE GPRESSURE VOLUME PRESSAVG GPRESSAVG
ENERGY: 900000 1.7871 9.7886 3.3109 0.0000 -11471.1645 1646.6966 0.0000 0.0000 1622.5473 -8187.0340 272.0770 -9809.5813 -8184.5340 272.0770 488.3931 566.6253 29758.0798 488.3931 566.6253
ENERGY: 1100000 1.0359 9.4758 2.0114 0.0000 -10672.5179 1364.3034 0.0000 0.0000 1789.5816 -7506.1099 300.0861 -9295.6915 -7499.7277 300.7739 -755.1036 -708.5621 31383.7678 3.5070 3.6710
ENERGY: 1300000 0.8944 5.6504 3.4243 0.0000 -10802.4765 1392.5043 0.0000 0.0000 1772.1381 -7627.8649 297.1611 -9400.0031 -7622.8776 300.8185 -793.5921 -692.8608 31079.7358 1.0260 0.9317
ENERGY: 1500000 2.5982 14.4687 4.2201 0.0000 -10839.1990 1403.4294 0.0000 0.0000 1819.2636 -7595.2190 305.0633 -9414.4826 -7592.9377 300.4467 -541.8020 -462.1936 30972.5721 3.0263 2.9567
ENERGY: 1700000 1.0918 8.0735 1.7111 0.0000 -10765.8067 1397.8692 0.0000 0.0000 1821.9783 -7535.0828 305.5186 -9357.0611 -7530.3536 300.5172 -640.1702 -545.9173 31376.5691 4.4537 4.3505
ENERGY: 1900000 2.1693 11.0189 3.3097 0.0000 -10898.3143 1459.3560 0.0000 0.0000 1775.9654 -7646.4950 297.8029 -9422.4604 -7643.8670 299.6596 39.4547 135.4850 30679.3113 3.0830 2.8402
TCL: Exiting due to exit command.
