Info: SIMULATION PARAMETERS:
Info: TIMESTEP               2
Info: NUMBER OF STEPS        0
Info: STEPS PER CYCLE        10
Info: PERIODIC CELL BASIS 1  39.546 0 0
Info: PERIODIC CELL BASIS 2  0 32.862 0
Info: PERIODIC CELL BASIS 3  0 0 34.229
Info: PERIODIC CELL CENTER   0 0 0
Info: WRAPPING WATERS AROUND PERIODIC BOUNDARIES ON OUTPUT.
Info: WRAPPING ALL CLUSTERS AROUND PERIODIC BOUNDARIES ON OUTPUT.
Info: FIRST LDB TIMESTEP     50
Info: LAST LDB TIMESTEP     -1
Info: HOM BACKGROUND SCALING 1
Info: PME BACKGROUND SCALING 1
Info: MIN ATOMS PER PATCH    40
Info: EMPTY PATCH LOAD       40 ATOMS
Info: INITIAL TEMPERATURE    300
Info: CENTER OF MASS MOVING INITIALLY? NO
Info: DIELECTRIC             1
Info: EXCLUDE                SCALED ONE-FOUR
Info: 1-4 ELECTROSTATICS SCALED BY 0.833333
Info: MODIFIED 1-4 VDW PARAMETERS WILL BE USED
Info: DCD FILENAME           mobley_2517158_equil.dcd
Info: DCD FREQUENCY          100000
Info: DCD FIRST STEP         100000
Info: DCD FILE WILL CONTAIN UNIT CELL DATA
Info: XST FILENAME           mobley_2517158_equil.xst
Info: XST FREQUENCY          100000
Info: NO VELOCITY DCD OUTPUT
Info: NO FORCE DCD OUTPUT
Info: OUTPUT FILENAME        mobley_2517158_equil
Info: BINARY OUTPUT FILES WILL BE USED
Info: RESTART FILENAME       mobley_2517158_equil.restart
Info: RESTART FREQUENCY      100000
Info: BINARY RESTART FILES WILL BE USED
Info: CUTOFF                 9
Info: PAIRLIST DISTANCE      11
Info: PAIRLIST SHRINK RATE   0.01
Info: PAIRLIST GROW RATE     0.01
Info: PAIRLIST TRIGGER       0.3
Info: PAIRLISTS PER CYCLE    2
Info: PAIRLISTS ENABLED
Info: MARGIN                 8
Info: HYDROGEN GROUP CUTOFF  2.5
Info: PATCH DIMENSION        21.5
Info: ENERGY OUTPUT STEPS    100000
Info: ENERGY EVALUATION STEPS    100000
Info: OUTPUT ENERGY PRECISION 4
Info: CROSSTERM ENERGY INCLUDED IN DIHEDRAL
Info: TIMING OUTPUT STEPS    1000000
Info: PRESSURE OUTPUT STEPS  100000
Info: LANGEVIN DYNAMICS ACTIVE
Info: LANGEVIN TEMPERATURE   30
Info: LANGEVIN USING BBK INTEGRATOR
Info: LANGEVIN DAMPING COEFFICIENT IS 1 INVERSE PS
Info: LANGEVIN DYNAMICS APPLIED TO HYDROGENS
Info: LANGEVIN PISTON PRESSURE CONTROL ACTIVE
Info:        TARGET PRESSURE IS 1.01325 BAR
Info:     OSCILLATION PERIOD IS 50 FS
Info:             DECAY TIME IS 25 FS
Info:     PISTON TEMPERATURE IS 300 K
Info:       PRESSURE CONTROL IS GROUP-BASED
Info:    INITIAL STRAIN RATE IS 0 0 0
Info:       CELL FLUCTUATION IS ISOTROPIC
Info: PARTICLE MESH EWALD (PME) ACTIVE
Info: PME TOLERANCE               1e-06
Info: PME EWALD COEFFICIENT       0.348832
Info: PME INTERPOLATION ORDER     4
Info: PME GRID DIMENSIONS         40 36 36
Info: PME MAXIMUM GRID SPACING    1
Info: FULL ELECTROSTATIC EVALUATION FREQUENCY      2
Info: USING VERLET I (r-RESPA) MTS SCHEME.
Info: C1 SPLITTING OF LONG RANGE ELECTROSTATICS
Info: PLACING ATOMS IN PATCHES BY HYDROGEN GROUPS
Info: RIGID BONDS TO HYDROGEN : ALL
Info:         ERROR TOLERANCE : 1e-08
Info:          MAX ITERATIONS : 100
Info: RIGID WATER USING SETTLE ALGORITHM
Info: RANDOM NUMBER SEED     1743258331
Info: USE HYDROGEN BONDS?    NO
Info: Using AMBER format force field!
Info: AMBER PARM FILE        mobley_2517158.prmtop
Info: COORDINATE PDB         mobley_2517158.pdb
Info: Exclusions will be read from PARM file!
Info: SCNB (VDW SCALING)     2
Info: USING ARITHMETIC MEAN TO COMBINE L-J SIGMA PARAMETERS
Info: BINARY COORDINATES     mobley_2517158_min.coor
Info: SUMMARY OF PARAMETERS:
Info: 6 BONDS
Info: 7 ANGLES
Info: 8 DIHEDRAL
Info: 0 IMPROPER
Info: 0 CROSSTERM
Info: 0 VDW
Info: 21 VDW_PAIRS
Info: 0 NBTHOLE_PAIRS
Info: STRUCTURE SUMMARY:
Info: 2963 ATOMS
Info: 2962 BONDS
Info: 42 ANGLES
Info: 64 DIHEDRALS
Info: 0 IMPROPERS
Info: 0 CROSSTERMS
Info: 3058 EXCLUSIONS
Info: 2955 RIGID BONDS
Info: 5934 DEGREES OF FREEDOM
Info: 988 HYDROGEN GROUPS
Info: 4 ATOMS IN LARGEST HYDROGEN GROUP
Info: 988 MIGRATION GROUPS
Info: 4 ATOMS IN LARGEST MIGRATION GROUP
Info: TOTAL MASS = 17834.8 amu
Info: TOTAL CHARGE = 0.000199994 e
Info: MASS DENSITY = 0.665788 g/cm^3
Info: ATOM DENSITY = 0.0666102 atoms/A^3
Info: ADDED 0 IMPLICIT EXCLUSIONS
Info: NONBONDED TABLE R-SQUARED SPACING: 0.0625
Info: NONBONDED TABLE SIZE: 705 POINTS
Info: REMOVING COM VELOCITY 0.0418255 0.041176 0.0392215
TCL: Running for 100000 steps
ETITLE: TS BOND ANGLE DIHED IMPRP ELECT VDW BOUNDARY MISC KINETIC TOTAL TEMP POTENTIAL TOTAL3 TEMPAVG PRESSURE GPRESSURE VOLUME PRESSAVG GPRESSAVG
ENERGY: 0 0.0733 0.4014 3.4805 0.0000 -13631.7562 2371.2832 0.0000 0.0000 1740.0791 -9516.4386 295.1290 -11256.5177 -9516.0861 295.1290 178.0831 216.4249 44482.6616 178.0831 216.4249
ENERGY: 100000 0.1883 1.5480 3.3416 0.0000 -14283.8239 2551.9153 0.0000 0.0000 179.9004 -11546.9302 30.5123 -11726.8307 -11546.5931 30.8193 747.8725 794.9440 28885.3356 3.9978 4.0250
TCL: Running 100000 steps at 60 kelvin.
TCL: Setting parameter langevinTemp to 60
TCL: Running for 100000 steps
ETITLE: TS BOND ANGLE DIHED IMPRP ELECT VDW BOUNDARY MISC KINETIC TOTAL TEMP POTENTIAL TOTAL3 TEMPAVG PRESSURE GPRESSURE VOLUME PRESSAVG GPRESSAVG
ENERGY: 100000 0.1883 1.5480 3.3416 0.0000 -14283.8239 2551.9153 0.0000 0.0000 179.8160 -11547.0147 30.4980 -11726.8307 -11546.6692 30.4980 727.5806 794.7817 28885.3356 727.5806 794.7817
ENERGY: 200000 0.6592 2.7643 3.7813 0.0000 -14111.7921 2421.5637 0.0000 0.0000 363.4171 -11319.6066 61.6379 -11683.0236 -11318.5117 59.8686 7.3342 69.2079 28687.2627 4.3459 4.3547
TCL: Running 100000 steps at 90 kelvin.
TCL: Setting parameter langevinTemp to 90
TCL: Running for 100000 steps
ETITLE: TS BOND ANGLE DIHED IMPRP ELECT VDW BOUNDARY MISC KINETIC TOTAL TEMP POTENTIAL TOTAL3 TEMPAVG PRESSURE GPRESSURE VOLUME PRESSAVG GPRESSAVG
ENERGY: 200000 0.6592 2.7643 3.7813 0.0000 -14111.7921 2421.5637 0.0000 0.0000 363.2499 -11319.7737 61.6096 -11683.0236 -11319.0978 61.6096 12.8826 69.5864 28687.2627 12.8826 69.5864
ENERGY: 300000 1.1960 3.7554 3.6020 0.0000 -14040.5948 2427.7344 0.0000 0.0000 537.1530 -11067.1541 91.1047 -11604.3070 -11066.1542 89.8647 206.9683 292.3399 28752.5007 5.7562 5.7918
TCL: Running 100000 steps at 120 kelvin.
TCL: Setting parameter langevinTemp to 120
TCL: Running for 100000 steps
ETITLE: TS BOND ANGLE DIHED IMPRP ELECT VDW BOUNDARY MISC KINETIC TOTAL TEMP POTENTIAL TOTAL3 TEMPAVG PRESSURE GPRESSURE VOLUME PRESSAVG GPRESSAVG
ENERGY: 300000 1.1960 3.7554 3.6020 0.0000 -14040.5948 2427.7344 0.0000 0.0000 536.8865 -11067.4206 91.0595 -11604.3070 -11066.3151 91.0595 234.6179 291.9153 28752.5007 234.6179 291.9153
ENERGY: 400000 2.0167 4.3742 3.8583 0.0000 -13790.3233 2343.6261 0.0000 0.0000 691.5964 -10744.8517 117.2993 -11436.4481 -10743.6727 120.0185 38.3734 140.7351 29015.4196 4.0995 4.1659
TCL: Running 100000 steps at 150 kelvin.
TCL: Setting parameter langevinTemp to 150
TCL: Running for 100000 steps
ETITLE: TS BOND ANGLE DIHED IMPRP ELECT VDW BOUNDARY MISC KINETIC TOTAL TEMP POTENTIAL TOTAL3 TEMPAVG PRESSURE GPRESSURE VOLUME PRESSAVG GPRESSAVG
ENERGY: 400000 2.0167 4.3742 3.8583 0.0000 -13790.3233 2343.6261 0.0000 0.0000 691.2343 -10745.2138 117.2379 -11436.4481 -10744.0898 117.2379 72.2866 140.5797 29015.4196 72.2866 140.5797
ENERGY: 500000 1.3831 6.6760 4.0240 0.0000 -13583.1343 2266.9913 0.0000 0.0000 886.1348 -10417.9250 150.2943 -11304.0599 -10415.7662 150.0338 -126.9340 -40.1595 29088.0695 3.2933 3.2219
TCL: Running 100000 steps at 180 kelvin.
TCL: Setting parameter langevinTemp to 180
TCL: Running for 100000 steps
ETITLE: TS BOND ANGLE DIHED IMPRP ELECT VDW BOUNDARY MISC KINETIC TOTAL TEMP POTENTIAL TOTAL3 TEMPAVG PRESSURE GPRESSURE VOLUME PRESSAVG GPRESSAVG
ENERGY: 500000 1.3831 6.6760 4.0240 0.0000 -13583.1343 2266.9913 0.0000 0.0000 885.7059 -10418.3540 150.2216 -11304.0599 -10416.3950 150.2216 -85.2984 -40.6420 29088.0695 -85.2984 -40.6420
ENERGY: 600000 1.2726 4.8316 4.8976 0.0000 -13169.9257 2167.9162 0.0000 0.0000 1068.2235 -9922.7841 181.1778 -10991.0076 -9919.0210 179.8242 624.2652 668.2164 28716.2457 3.1154 3.3375
TCL: Running 100000 steps at 210 kelvin.
TCL: Setting parameter langevinTemp to 210
TCL: Running for 100000 steps
ETITLE: TS BOND ANGLE DIHED IMPRP ELECT VDW BOUNDARY MISC KINETIC TOTAL TEMP POTENTIAL TOTAL3 TEMPAVG PRESSURE GPRESSURE VOLUME PRESSAVG GPRESSAVG
ENERGY: 600000 1.2726 4.8316 4.8976 0.0000 -13169.9257 2167.9162 0.0000 0.0000 1067.7252 -9923.2824 181.0933 -10991.0076 -9921.6294 181.0933 621.5510 669.1787 28716.2457 621.5510 669.1787
ENERGY: 700000 1.1600 6.1791 6.0646 0.0000 -12387.2295 1838.9425 0.0000 0.0000 1238.7596 -9296.1238 210.1018 -10534.8834 -9292.2969 210.3312 -494.7435 -408.3579 28681.0698 2.6987 2.5805
TCL: Running 100000 steps at 240 kelvin.
TCL: Setting parameter langevinTemp to 240
TCL: Running for 100000 steps
ETITLE: TS BOND ANGLE DIHED IMPRP ELECT VDW BOUNDARY MISC KINETIC TOTAL TEMP POTENTIAL TOTAL3 TEMPAVG PRESSURE GPRESSURE VOLUME PRESSAVG GPRESSAVG
ENERGY: 700000 1.1600 6.1791 6.0646 0.0000 -12387.2295 1838.9425 0.0000 0.0000 1238.1438 -9296.7396 209.9974 -10534.8834 -9293.4963 209.9974 -480.5368 -408.6150 28681.0698 -480.5368 -408.6150
ENERGY: 800000 1.5660 8.2384 4.8323 0.0000 -11637.1394 1570.2261 0.0000 0.0000 1480.8603 -8571.4164 251.1637 -10052.2767 -8565.9228 239.7308 -1294.2775 -1178.1805 29787.2476 4.2488 4.0808
TCL: Running 100000 steps at 270 kelvin.
TCL: Setting parameter langevinTemp to 270
TCL: Running for 100000 steps
ETITLE: TS BOND ANGLE DIHED IMPRP ELECT VDW BOUNDARY MISC KINETIC TOTAL TEMP POTENTIAL TOTAL3 TEMPAVG PRESSURE GPRESSURE VOLUME PRESSAVG GPRESSAVG
ENERGY: 800000 1.5660 8.2384 4.8323 0.0000 -11637.1394 1570.2261 0.0000 0.0000 1480.1676 -8572.1091 251.0463 -10052.2767 -8569.5072 251.0463 -1263.9037 -1176.2830 29787.2476 -1263.9037 -1176.2830
ENERGY: 900000 1.9812 11.5698 5.8192 0.0000 -11107.8668 1535.4938 0.0000 0.0000 1559.8757 -7993.1272 264.5653 -9553.0028 -7988.9733 269.4597 91.8514 225.1775 29472.8373 3.5304 3.4806
TCL: Running 1000000 steps at 300 kelvin.
TCL: Setting parameter langevinTemp to 300
TCL: Running for 1000000 steps
ETITLE: TS BOND ANGLE DIHED IMPRP ELECT VDW BOUNDARY MISC KINETIC TOTAL TEMP POTENTIAL TOTAL3 TEMPAVG PRESSURE GPRESSURE VOLUME PRESSAVG GPRESSAVG
ENERGY: 900000 1.9812 11.5698 5.8192 0.0000 -11107.8668 1535.4938 0.0000 0.0000 1559.0863 -7993.9166 264.4314 -9553.0028 -7991.4278 264.4314 139.1021 225.6656 29472.8373 139.1021 225.6656
ENERGY: 1100000 3.0585 9.7154 3.0832 0.0000 -10736.3776 1460.9321 0.0000 0.0000 1727.8449 -7531.7435 293.0540 -9259.5884 -7528.0004 300.5980 43.9116 178.6314 30446.8171 2.5763 2.6865
ENERGY: 1300000 3.4882 8.4752 3.2147 0.0000 -10675.8694 1401.7057 0.0000 0.0000 1716.1863 -7542.7992 291.0766 -9258.9855 -7541.7248 299.5111 -267.2535 -227.3701 30459.7809 3.5140 3.4642
ENERGY: 1500000 1.2733 8.3078 3.8462 0.0000 -10632.5114 1382.9736 0.0000 0.0000 1739.0271 -7497.0833 294.9505 -9236.1104 -7493.6348 299.8819 -510.2635 -477.1749 31042.5663 3.7637 3.5761
ENERGY: 1700000 2.2340 5.6654 6.4663 0.0000 -10713.6324 1491.8311 0.0000 0.0000 1743.6867 -7463.7489 295.7408 -9207.4356 -7458.9390 299.8867 255.2038 321.4134 30824.0763 2.6923 2.8796
ENERGY: 1900000 2.5836 10.1530 4.9530 0.0000 -10729.8393 1440.9644 0.0000 0.0000 1756.0472 -7515.1381 297.8373 -9271.1853 -7512.0376 299.7228 -160.1416 -106.5270 30540.1253 3.3483 3.1697
TCL: Exiting due to exit command.
