Info: SIMULATION PARAMETERS:
Info: TIMESTEP               2
Info: NUMBER OF STEPS        0
Info: STEPS PER CYCLE        10
Info: PERIODIC CELL BASIS 1  36.005 0 0
Info: PERIODIC CELL BASIS 2  0 35.411 0
Info: PERIODIC CELL BASIS 3  0 0 34.954
Info: PERIODIC CELL CENTER   0 0 0
Info: WRAPPING WATERS AROUND PERIODIC BOUNDARIES ON OUTPUT.
Info: WRAPPING ALL CLUSTERS AROUND PERIODIC BOUNDARIES ON OUTPUT.
Info: FIRST LDB TIMESTEP     50
Info: LAST LDB TIMESTEP     -1
Info: HOM BACKGROUND SCALING 1
Info: PME BACKGROUND SCALING 1
Info: MIN ATOMS PER PATCH    40
Info: EMPTY PATCH LOAD       40 ATOMS
Info: INITIAL TEMPERATURE    300
Info: CENTER OF MASS MOVING INITIALLY? NO
Info: DIELECTRIC             1
Info: EXCLUDE                SCALED ONE-FOUR
Info: 1-4 ELECTROSTATICS SCALED BY 0.833333
Info: MODIFIED 1-4 VDW PARAMETERS WILL BE USED
Info: DCD FILENAME           mobley_4850657_equil.dcd
Info: DCD FREQUENCY          100000
Info: DCD FIRST STEP         100000
Info: DCD FILE WILL CONTAIN UNIT CELL DATA
Info: XST FILENAME           mobley_4850657_equil.xst
Info: XST FREQUENCY          100000
Info: NO VELOCITY DCD OUTPUT
Info: NO FORCE DCD OUTPUT
Info: OUTPUT FILENAME        mobley_4850657_equil
Info: BINARY OUTPUT FILES WILL BE USED
Info: RESTART FILENAME       mobley_4850657_equil.restart
Info: RESTART FREQUENCY      100000
Info: BINARY RESTART FILES WILL BE USED
Info: CUTOFF                 9
Info: PAIRLIST DISTANCE      11
Info: PAIRLIST SHRINK RATE   0.01
Info: PAIRLIST GROW RATE     0.01
Info: PAIRLIST TRIGGER       0.3
Info: PAIRLISTS PER CYCLE    2
Info: PAIRLISTS ENABLED
Info: MARGIN                 8
Info: HYDROGEN GROUP CUTOFF  2.5
Info: PATCH DIMENSION        21.5
Info: ENERGY OUTPUT STEPS    100000
Info: ENERGY EVALUATION STEPS    100000
Info: OUTPUT ENERGY PRECISION 4
Info: CROSSTERM ENERGY INCLUDED IN DIHEDRAL
Info: TIMING OUTPUT STEPS    1000000
Info: PRESSURE OUTPUT STEPS  100000
Info: LANGEVIN DYNAMICS ACTIVE
Info: LANGEVIN TEMPERATURE   30
Info: LANGEVIN USING BBK INTEGRATOR
Info: LANGEVIN DAMPING COEFFICIENT IS 1 INVERSE PS
Info: LANGEVIN DYNAMICS APPLIED TO HYDROGENS
Info: LANGEVIN PISTON PRESSURE CONTROL ACTIVE
Info:        TARGET PRESSURE IS 1.01325 BAR
Info:     OSCILLATION PERIOD IS 50 FS
Info:             DECAY TIME IS 25 FS
Info:     PISTON TEMPERATURE IS 300 K
Info:       PRESSURE CONTROL IS GROUP-BASED
Info:    INITIAL STRAIN RATE IS 0 0 0
Info:       CELL FLUCTUATION IS ISOTROPIC
Info: PARTICLE MESH EWALD (PME) ACTIVE
Info: PME TOLERANCE               1e-06
Info: PME EWALD COEFFICIENT       0.348832
Info: PME INTERPOLATION ORDER     4
Info: PME GRID DIMENSIONS         40 36 36
Info: PME MAXIMUM GRID SPACING    1
Info: FULL ELECTROSTATIC EVALUATION FREQUENCY      2
Info: USING VERLET I (r-RESPA) MTS SCHEME.
Info: C1 SPLITTING OF LONG RANGE ELECTROSTATICS
Info: PLACING ATOMS IN PATCHES BY HYDROGEN GROUPS
Info: RIGID BONDS TO HYDROGEN : ALL
Info:         ERROR TOLERANCE : 1e-08
Info:          MAX ITERATIONS : 100
Info: RIGID WATER USING SETTLE ALGORITHM
Info: RANDOM NUMBER SEED     1743158038
Info: USE HYDROGEN BONDS?    NO
Info: Using AMBER format force field!
Info: AMBER PARM FILE        mobley_4850657.prmtop
Info: COORDINATE PDB         mobley_4850657.pdb
Info: Exclusions will be read from PARM file!
Info: SCNB (VDW SCALING)     2
Info: USING ARITHMETIC MEAN TO COMBINE L-J SIGMA PARAMETERS
Info: BINARY COORDINATES     mobley_4850657_min.coor
Info: SUMMARY OF PARAMETERS:
Info: 6 BONDS
Info: 6 ANGLES
Info:   6 HARMONIC
Info:   0 COSINE-BASED
Info: 1 DIHEDRAL
Info: 0 IMPROPER
Info: 0 CROSSTERM
Info: 0 VDW
Info: 28 VDW_PAIRS
Info: 0 NBTHOLE_PAIRS
Info: STRUCTURE SUMMARY:
Info: 2957 ATOMS
Info: 2956 BONDS
Info: 12 ANGLES
Info: 9 DIHEDRALS
Info: 0 IMPROPERS
Info: 0 CROSSTERMS
Info: 2977 EXCLUSIONS
Info: 2952 RIGID BONDS
Info: 5919 DEGREES OF FREEDOM
Info: 988 HYDROGEN GROUPS
Info: 4 ATOMS IN LARGEST HYDROGEN GROUP
Info: 988 MIGRATION GROUPS
Info: 4 ATOMS IN LARGEST MIGRATION GROUP
Info: TOTAL MASS = 17824.3 amu
Info: TOTAL CHARGE = 9.9957e-05 e
Info: MASS DENSITY = 0.664161 g/cm^3
Info: ATOM DENSITY = 0.0663519 atoms/A^3
Info: ADDED 0 IMPLICIT EXCLUSIONS
Info: NONBONDED TABLE R-SQUARED SPACING: 0.0625
Info: NONBONDED TABLE SIZE: 705 POINTS
Info: REMOVING COM VELOCITY -0.0405331 -0.0786308 0.0075247
TCL: Running for 100000 steps
ETITLE: TS BOND ANGLE DIHED IMPRP ELECT VDW BOUNDARY MISC KINETIC TOTAL TEMP POTENTIAL TOTAL3 TEMPAVG PRESSURE GPRESSURE VOLUME PRESSAVG GPRESSAVG
ENERGY: 0 0.2491 0.6686 0.0689 0.0000 -13765.8995 2436.1840 0.0000 0.0000 1711.3028 -9617.4260 290.9839 -11328.7288 -9617.1189 290.9839 500.2186 531.3659 44565.4082 500.2186 531.3659
ENERGY: 100000 0.2278 0.4991 0.1452 0.0000 -14501.5880 2620.4395 0.0000 0.0000 177.9881 -11702.2884 30.2645 -11880.2765 -11701.7055 30.8848 981.8559 1038.5640 28796.3608 4.5220 4.5077
TCL: Running 100000 steps at 60 kelvin.
TCL: Setting parameter langevinTemp to 60
TCL: Running for 100000 steps
ETITLE: TS BOND ANGLE DIHED IMPRP ELECT VDW BOUNDARY MISC KINETIC TOTAL TEMP POTENTIAL TOTAL3 TEMPAVG PRESSURE GPRESSURE VOLUME PRESSAVG GPRESSAVG
ENERGY: 100000 0.2278 0.4991 0.1452 0.0000 -14501.5880 2620.4395 0.0000 0.0000 177.8993 -11702.3772 30.2494 -11880.2765 -11702.0161 30.2494 982.3186 1038.6342 28796.3608 982.3186 1038.6342
ENERGY: 200000 0.3396 1.1124 0.3608 0.0000 -14253.5863 2459.5096 0.0000 0.0000 355.0057 -11437.2583 60.3639 -11792.2640 -11436.4415 59.8548 217.8967 278.1262 28672.6185 4.6186 4.5601
TCL: Running 100000 steps at 90 kelvin.
TCL: Setting parameter langevinTemp to 90
TCL: Running for 100000 steps
ETITLE: TS BOND ANGLE DIHED IMPRP ELECT VDW BOUNDARY MISC KINETIC TOTAL TEMP POTENTIAL TOTAL3 TEMPAVG PRESSURE GPRESSURE VOLUME PRESSAVG GPRESSAVG
ENERGY: 200000 0.3396 1.1124 0.3608 0.0000 -14253.5863 2459.5096 0.0000 0.0000 354.8280 -11437.4359 60.3337 -11792.2640 -11436.5280 60.3337 218.4517 278.0296 28672.6185 218.4517 278.0296
ENERGY: 300000 0.8663 1.4306 0.0533 0.0000 -14057.7629 2356.7745 0.0000 0.0000 515.0006 -11183.6376 87.5689 -11698.6382 -11182.0773 89.7153 -378.8593 -290.8757 28879.3282 3.4585 3.4181
TCL: Running 100000 steps at 120 kelvin.
TCL: Setting parameter langevinTemp to 120
TCL: Running for 100000 steps
ETITLE: TS BOND ANGLE DIHED IMPRP ELECT VDW BOUNDARY MISC KINETIC TOTAL TEMP POTENTIAL TOTAL3 TEMPAVG PRESSURE GPRESSURE VOLUME PRESSAVG GPRESSAVG
ENERGY: 300000 0.8663 1.4306 0.0533 0.0000 -14057.7629 2356.7745 0.0000 0.0000 514.7344 -11183.9039 87.5236 -11698.6382 -11182.8542 87.5236 -357.6811 -290.1989 28879.3282 -357.6811 -290.1989
ENERGY: 400000 0.1634 2.5498 0.7816 0.0000 -13952.8332 2374.6014 0.0000 0.0000 698.1312 -10876.6059 118.7078 -11574.7371 -10875.1702 119.8484 179.8446 231.4697 28915.7920 4.5770 4.6555
TCL: Running 100000 steps at 150 kelvin.
TCL: Setting parameter langevinTemp to 150
TCL: Running for 100000 steps
ETITLE: TS BOND ANGLE DIHED IMPRP ELECT VDW BOUNDARY MISC KINETIC TOTAL TEMP POTENTIAL TOTAL3 TEMPAVG PRESSURE GPRESSURE VOLUME PRESSAVG GPRESSAVG
ENERGY: 400000 0.1634 2.5498 0.7816 0.0000 -13952.8332 2374.6014 0.0000 0.0000 697.7789 -10876.9582 118.6479 -11574.7371 -10875.4335 118.6479 171.9344 230.5906 28915.7920 171.9344 230.5906
ENERGY: 500000 0.9946 1.4708 0.4237 0.0000 -13540.3664 2170.9235 0.0000 0.0000 888.5939 -10477.9597 151.0934 -11366.5537 -10475.6917 149.9916 -672.3657 -633.8485 29021.5038 2.3746 2.4603
TCL: Running 100000 steps at 180 kelvin.
TCL: Setting parameter langevinTemp to 180
TCL: Running for 100000 steps
ETITLE: TS BOND ANGLE DIHED IMPRP ELECT VDW BOUNDARY MISC KINETIC TOTAL TEMP POTENTIAL TOTAL3 TEMPAVG PRESSURE GPRESSURE VOLUME PRESSAVG GPRESSAVG
ENERGY: 500000 0.9946 1.4708 0.4237 0.0000 -13540.3664 2170.9235 0.0000 0.0000 888.1538 -10478.3999 151.0185 -11366.5537 -10476.4346 151.0185 -692.4260 -634.1763 29021.5038 -692.4260 -634.1763
ENERGY: 600000 1.3715 3.8994 0.2900 0.0000 -13069.4824 2013.4683 0.0000 0.0000 1061.6174 -9988.8359 180.5137 -11050.4533 -9985.9212 179.7401 -804.5009 -718.4438 29060.5864 2.9091 2.8217
TCL: Running 100000 steps at 210 kelvin.
TCL: Setting parameter langevinTemp to 210
TCL: Running for 100000 steps
ETITLE: TS BOND ANGLE DIHED IMPRP ELECT VDW BOUNDARY MISC KINETIC TOTAL TEMP POTENTIAL TOTAL3 TEMPAVG PRESSURE GPRESSURE VOLUME PRESSAVG GPRESSAVG
ENERGY: 600000 1.3715 3.8994 0.2900 0.0000 -13069.4824 2013.4683 0.0000 0.0000 1061.0906 -9989.3627 180.4241 -11050.4533 -9987.7507 180.4241 -791.7564 -718.6739 29060.5864 -791.7564 -718.6739
ENERGY: 700000 1.8995 2.8802 0.2177 0.0000 -12686.3094 2020.7399 0.0000 0.0000 1261.8692 -9398.7029 214.5638 -10660.5721 -9397.6828 209.7979 927.3696 1020.2390 28651.8521 2.6009 2.4261
TCL: Running 100000 steps at 240 kelvin.
TCL: Setting parameter langevinTemp to 240
TCL: Running for 100000 steps
ETITLE: TS BOND ANGLE DIHED IMPRP ELECT VDW BOUNDARY MISC KINETIC TOTAL TEMP POTENTIAL TOTAL3 TEMPAVG PRESSURE GPRESSURE VOLUME PRESSAVG GPRESSAVG
ENERGY: 700000 1.8995 2.8802 0.2177 0.0000 -12686.3094 2020.7399 0.0000 0.0000 1261.2308 -9399.3413 214.4552 -10660.5721 -9397.4381 214.4552 937.6292 1021.1405 28651.8521 937.6292 1021.1405
ENERGY: 800000 0.5427 5.9644 0.7890 0.0000 -11996.9025 1771.0625 0.0000 0.0000 1426.4663 -8792.0775 242.5513 -10218.5438 -8790.0336 239.8977 20.4637 99.4064 29207.0434 2.7640 2.7786
TCL: Running 100000 steps at 270 kelvin.
TCL: Setting parameter langevinTemp to 270
TCL: Running for 100000 steps
ETITLE: TS BOND ANGLE DIHED IMPRP ELECT VDW BOUNDARY MISC KINETIC TOTAL TEMP POTENTIAL TOTAL3 TEMPAVG PRESSURE GPRESSURE VOLUME PRESSAVG GPRESSAVG
ENERGY: 800000 0.5427 5.9644 0.7890 0.0000 -11996.9025 1771.0625 0.0000 0.0000 1425.7764 -8792.7674 242.4340 -10218.5438 -8790.6504 242.4340 39.7260 100.3076 29207.0434 39.7260 100.3076
ENERGY: 900000 1.1480 1.7576 0.0372 0.0000 -11414.8465 1652.2949 0.0000 0.0000 1586.5920 -8173.0168 269.7785 -9759.6088 -8171.3099 269.7410 784.2189 824.9644 29532.5742 2.5635 2.4651
TCL: Running 1000000 steps at 300 kelvin.
TCL: Setting parameter langevinTemp to 300
TCL: Running for 1000000 steps
ETITLE: TS BOND ANGLE DIHED IMPRP ELECT VDW BOUNDARY MISC KINETIC TOTAL TEMP POTENTIAL TOTAL3 TEMPAVG PRESSURE GPRESSURE VOLUME PRESSAVG GPRESSAVG
ENERGY: 900000 1.1480 1.7576 0.0372 0.0000 -11414.8465 1652.2949 0.0000 0.0000 1585.8098 -8173.7990 269.6455 -9759.6088 -8171.2634 269.6455 741.3051 825.4882 29532.5742 741.3051 825.4882
ENERGY: 1100000 0.4116 3.9982 0.5986 0.0000 -10672.6929 1336.2926 0.0000 0.0000 1799.0374 -7532.3545 305.9020 -9331.3920 -7527.4222 300.2718 -959.3154 -876.2083 30771.1611 3.8796 3.6861
ENERGY: 1300000 0.7278 1.7041 0.4357 0.0000 -10762.1603 1448.0898 0.0000 0.0000 1728.3789 -7582.8239 293.8874 -9311.2028 -7581.7337 300.2048 289.2919 341.4978 30265.5261 4.5761 4.6521
ENERGY: 1500000 0.8401 2.5907 0.7392 0.0000 -10640.9777 1368.6871 0.0000 0.0000 1768.6631 -7499.4576 300.7372 -9268.1207 -7496.8464 300.2643 -503.3440 -430.1435 30682.0467 3.3434 3.2785
ENERGY: 1700000 0.5343 2.3535 0.3914 0.0000 -10729.0158 1413.0667 0.0000 0.0000 1791.0559 -7521.6140 304.5448 -9312.6699 -7520.0545 299.8591 -143.9484 -61.7466 30475.5657 3.4442 3.3953
ENERGY: 1900000 1.3798 2.9499 0.5011 0.0000 -10717.5539 1349.4444 0.0000 0.0000 1768.2920 -7594.9867 300.6741 -9363.2787 -7590.4064 300.1986 -769.9778 -678.7660 30405.4214 3.0813 3.0373
TCL: Exiting due to exit command.
