Info: SIMULATION PARAMETERS:
Info: TIMESTEP               2
Info: NUMBER OF STEPS        0
Info: STEPS PER CYCLE        10
Info: PERIODIC CELL BASIS 1  36.005 0 0
Info: PERIODIC CELL BASIS 2  0 33.314 0
Info: PERIODIC CELL BASIS 3  0 0 37.195
Info: PERIODIC CELL CENTER   0 0 0
Info: WRAPPING WATERS AROUND PERIODIC BOUNDARIES ON OUTPUT.
Info: WRAPPING ALL CLUSTERS AROUND PERIODIC BOUNDARIES ON OUTPUT.
Info: FIRST LDB TIMESTEP     50
Info: LAST LDB TIMESTEP     -1
Info: HOM BACKGROUND SCALING 1
Info: PME BACKGROUND SCALING 1
Info: MIN ATOMS PER PATCH    40
Info: EMPTY PATCH LOAD       40 ATOMS
Info: INITIAL TEMPERATURE    300
Info: CENTER OF MASS MOVING INITIALLY? NO
Info: DIELECTRIC             1
Info: EXCLUDE                SCALED ONE-FOUR
Info: 1-4 ELECTROSTATICS SCALED BY 0.833333
Info: MODIFIED 1-4 VDW PARAMETERS WILL BE USED
Info: DCD FILENAME           mobley_2958326_equil.dcd
Info: DCD FREQUENCY          100000
Info: DCD FIRST STEP         100000
Info: DCD FILE WILL CONTAIN UNIT CELL DATA
Info: XST FILENAME           mobley_2958326_equil.xst
Info: XST FREQUENCY          100000
Info: NO VELOCITY DCD OUTPUT
Info: NO FORCE DCD OUTPUT
Info: OUTPUT FILENAME        mobley_2958326_equil
Info: BINARY OUTPUT FILES WILL BE USED
Info: RESTART FILENAME       mobley_2958326_equil.restart
Info: RESTART FREQUENCY      100000
Info: BINARY RESTART FILES WILL BE USED
Info: CUTOFF                 9
Info: PAIRLIST DISTANCE      11
Info: PAIRLIST SHRINK RATE   0.01
Info: PAIRLIST GROW RATE     0.01
Info: PAIRLIST TRIGGER       0.3
Info: PAIRLISTS PER CYCLE    2
Info: PAIRLISTS ENABLED
Info: MARGIN                 8
Info: HYDROGEN GROUP CUTOFF  2.5
Info: PATCH DIMENSION        21.5
Info: ENERGY OUTPUT STEPS    100000
Info: ENERGY EVALUATION STEPS    100000
Info: OUTPUT ENERGY PRECISION 4
Info: CROSSTERM ENERGY INCLUDED IN DIHEDRAL
Info: TIMING OUTPUT STEPS    1000000
Info: PRESSURE OUTPUT STEPS  100000
Info: LANGEVIN DYNAMICS ACTIVE
Info: LANGEVIN TEMPERATURE   30
Info: LANGEVIN USING BBK INTEGRATOR
Info: LANGEVIN DAMPING COEFFICIENT IS 1 INVERSE PS
Info: LANGEVIN DYNAMICS APPLIED TO HYDROGENS
Info: LANGEVIN PISTON PRESSURE CONTROL ACTIVE
Info:        TARGET PRESSURE IS 1.01325 BAR
Info:     OSCILLATION PERIOD IS 50 FS
Info:             DECAY TIME IS 25 FS
Info:     PISTON TEMPERATURE IS 300 K
Info:       PRESSURE CONTROL IS GROUP-BASED
Info:    INITIAL STRAIN RATE IS 0 0 0
Info:       CELL FLUCTUATION IS ISOTROPIC
Info: PARTICLE MESH EWALD (PME) ACTIVE
Info: PME TOLERANCE               1e-06
Info: PME EWALD COEFFICIENT       0.348832
Info: PME INTERPOLATION ORDER     4
Info: PME GRID DIMENSIONS         40 36 40
Info: PME MAXIMUM GRID SPACING    1
Info: FULL ELECTROSTATIC EVALUATION FREQUENCY      2
Info: USING VERLET I (r-RESPA) MTS SCHEME.
Info: C1 SPLITTING OF LONG RANGE ELECTROSTATICS
Info: PLACING ATOMS IN PATCHES BY HYDROGEN GROUPS
Info: RIGID BONDS TO HYDROGEN : ALL
Info:         ERROR TOLERANCE : 1e-08
Info:          MAX ITERATIONS : 100
Info: RIGID WATER USING SETTLE ALGORITHM
Info: RANDOM NUMBER SEED     1743255211
Info: USE HYDROGEN BONDS?    NO
Info: Using AMBER format force field!
Info: AMBER PARM FILE        mobley_2958326.prmtop
Info: COORDINATE PDB         mobley_2958326.pdb
Info: Exclusions will be read from PARM file!
Info: SCNB (VDW SCALING)     2
Info: USING ARITHMETIC MEAN TO COMBINE L-J SIGMA PARAMETERS
Info: BINARY COORDINATES     mobley_2958326_min.coor
Info: SUMMARY OF PARAMETERS:
Info: 7 BONDS
Info: 9 ANGLES
Info: 5 DIHEDRAL
Info: 0 IMPROPER
Info: 0 CROSSTERM
Info: 0 VDW
Info: 28 VDW_PAIRS
Info: 0 NBTHOLE_PAIRS
Info: STRUCTURE SUMMARY:
Info: 2974 ATOMS
Info: 2973 BONDS
Info: 39 ANGLES
Info: 50 DIHEDRALS
Info: 0 IMPROPERS
Info: 0 CROSSTERMS
Info: 3060 EXCLUSIONS
Info: 2967 RIGID BONDS
Info: 5955 DEGREES OF FREEDOM
Info: 991 HYDROGEN GROUPS
Info: 4 ATOMS IN LARGEST HYDROGEN GROUP
Info: 991 MIGRATION GROUPS
Info: 4 ATOMS IN LARGEST MIGRATION GROUP
Info: TOTAL MASS = 17828.9 amu
Info: TOTAL CHARGE = 7.45058e-09 e
Info: MASS DENSITY = 0.663606 g/cm^3
Info: ATOM DENSITY = 0.0666602 atoms/A^3
Info: ADDED 0 IMPLICIT EXCLUSIONS
Info: NONBONDED TABLE R-SQUARED SPACING: 0.0625
Info: NONBONDED TABLE SIZE: 705 POINTS
Info: REMOVING COM VELOCITY -0.167705 0.245072 0.0563227
TCL: Running for 100000 steps
ETITLE: TS BOND ANGLE DIHED IMPRP ELECT VDW BOUNDARY MISC KINETIC TOTAL TEMP POTENTIAL TOTAL3 TEMPAVG PRESSURE GPRESSURE VOLUME PRESSAVG GPRESSAVG
ENERGY: 0 0.0660 0.4835 0.1632 0.0000 -13724.0112 2433.1627 0.0000 0.0000 1803.6676 -9486.4682 304.8352 -11290.1358 -9486.1149 304.8352 660.6625 702.6130 44614.3079 660.6625 702.6130
ENERGY: 100000 0.1650 1.9752 0.3811 0.0000 -14297.6725 2518.3561 0.0000 0.0000 181.2296 -11595.5656 30.6293 -11776.7952 -11595.1788 30.9525 483.7691 533.9384 29035.9550 4.4111 4.3946
TCL: Running 100000 steps at 60 kelvin.
TCL: Setting parameter langevinTemp to 60
TCL: Running for 100000 steps
ETITLE: TS BOND ANGLE DIHED IMPRP ELECT VDW BOUNDARY MISC KINETIC TOTAL TEMP POTENTIAL TOTAL3 TEMPAVG PRESSURE GPRESSURE VOLUME PRESSAVG GPRESSAVG
ENERGY: 100000 0.1650 1.9752 0.3811 0.0000 -14297.6725 2518.3561 0.0000 0.0000 181.1410 -11595.6542 30.6144 -11776.7952 -11595.2925 30.6144 478.2344 534.0207 29035.9550 478.2344 534.0207
ENERGY: 200000 0.4678 2.4348 0.7011 0.0000 -14197.0446 2491.3376 0.0000 0.0000 357.2499 -11344.8534 60.3783 -11702.1033 -11343.9111 59.9553 479.2172 513.7783 29128.6012 3.4199 3.3871
TCL: Running 100000 steps at 90 kelvin.
TCL: Setting parameter langevinTemp to 90
TCL: Running for 100000 steps
ETITLE: TS BOND ANGLE DIHED IMPRP ELECT VDW BOUNDARY MISC KINETIC TOTAL TEMP POTENTIAL TOTAL3 TEMPAVG PRESSURE GPRESSURE VOLUME PRESSAVG GPRESSAVG
ENERGY: 200000 0.4678 2.4348 0.7011 0.0000 -14197.0446 2491.3376 0.0000 0.0000 357.0689 -11345.0344 60.3477 -11702.1033 -11344.5199 60.3477 450.0961 513.8829 29128.6012 450.0961 513.8829
ENERGY: 300000 1.0551 3.5199 0.6841 0.0000 -14075.1872 2465.6472 0.0000 0.0000 528.8354 -11075.4455 89.3777 -11604.2809 -11073.3441 89.9961 659.0708 739.2527 29174.0760 5.0027 5.0282
TCL: Running 100000 steps at 120 kelvin.
TCL: Setting parameter langevinTemp to 120
TCL: Running for 100000 steps
ETITLE: TS BOND ANGLE DIHED IMPRP ELECT VDW BOUNDARY MISC KINETIC TOTAL TEMP POTENTIAL TOTAL3 TEMPAVG PRESSURE GPRESSURE VOLUME PRESSAVG GPRESSAVG
ENERGY: 300000 1.0551 3.5199 0.6841 0.0000 -14075.1872 2465.6472 0.0000 0.0000 528.5720 -11075.7090 89.3332 -11604.2809 -11074.5325 89.3332 677.2562 739.5501 29174.0760 677.2562 739.5501
ENERGY: 400000 0.5709 3.0757 0.7256 0.0000 -13863.4236 2335.4786 0.0000 0.0000 731.0880 -10792.4848 123.5601 -11523.5729 -10790.6694 119.8914 -94.7844 -90.1427 29242.2934 3.2683 3.3627
TCL: Running 100000 steps at 150 kelvin.
TCL: Setting parameter langevinTemp to 150
TCL: Running for 100000 steps
ETITLE: TS BOND ANGLE DIHED IMPRP ELECT VDW BOUNDARY MISC KINETIC TOTAL TEMP POTENTIAL TOTAL3 TEMPAVG PRESSURE GPRESSURE VOLUME PRESSAVG GPRESSAVG
ENERGY: 400000 0.5709 3.0757 0.7256 0.0000 -13863.4236 2335.4786 0.0000 0.0000 730.7335 -10792.8393 123.5002 -11523.5729 -10791.3929 123.5002 -138.8697 -90.4487 29242.2934 -138.8697 -90.4487
ENERGY: 500000 0.7309 5.3434 0.6097 0.0000 -13642.6411 2287.2983 0.0000 0.0000 901.3879 -10447.2709 152.3422 -11348.6588 -10443.9433 150.0118 128.6846 172.4169 29051.4714 3.6421 3.6196
TCL: Running 100000 steps at 180 kelvin.
TCL: Setting parameter langevinTemp to 180
TCL: Running for 100000 steps
ETITLE: TS BOND ANGLE DIHED IMPRP ELECT VDW BOUNDARY MISC KINETIC TOTAL TEMP POTENTIAL TOTAL3 TEMPAVG PRESSURE GPRESSURE VOLUME PRESSAVG GPRESSAVG
ENERGY: 500000 0.7309 5.3434 0.6097 0.0000 -13642.6411 2287.2983 0.0000 0.0000 900.9620 -10447.6968 152.2703 -11348.6588 -10445.1563 152.2703 121.7036 172.2458 29051.4714 121.7036 172.2458
ENERGY: 600000 0.4100 7.0810 1.0420 0.0000 -13146.4199 2118.2706 0.0000 0.0000 1045.1686 -9974.4477 176.6424 -11019.6163 -9972.4751 180.1663 109.5448 168.8784 28999.0133 4.3583 4.3828
TCL: Running 100000 steps at 210 kelvin.
TCL: Setting parameter langevinTemp to 210
TCL: Running for 100000 steps
ETITLE: TS BOND ANGLE DIHED IMPRP ELECT VDW BOUNDARY MISC KINETIC TOTAL TEMP POTENTIAL TOTAL3 TEMPAVG PRESSURE GPRESSURE VOLUME PRESSAVG GPRESSAVG
ENERGY: 600000 0.4100 7.0810 1.0420 0.0000 -13146.4199 2118.2706 0.0000 0.0000 1044.6331 -9974.9831 176.5519 -11019.6163 -9973.3062 176.5519 100.3625 169.1523 28999.0133 100.3625 169.1523
ENERGY: 700000 1.3638 5.1174 2.3216 0.0000 -12395.1995 1799.4524 0.0000 0.0000 1237.1175 -9349.8268 209.0834 -10586.9443 -9347.9010 209.9834 -936.6378 -857.6462 29165.0806 3.7245 3.7911
TCL: Running 100000 steps at 240 kelvin.
TCL: Setting parameter langevinTemp to 240
TCL: Running for 100000 steps
ETITLE: TS BOND ANGLE DIHED IMPRP ELECT VDW BOUNDARY MISC KINETIC TOTAL TEMP POTENTIAL TOTAL3 TEMPAVG PRESSURE GPRESSURE VOLUME PRESSAVG GPRESSAVG
ENERGY: 700000 1.3638 5.1174 2.3216 0.0000 -12395.1995 1799.4524 0.0000 0.0000 1236.4990 -9350.4453 208.9789 -10586.9443 -9347.7306 208.9789 -931.9115 -859.2708 29165.0806 -931.9115 -859.2708
ENERGY: 800000 1.1215 6.4835 1.7755 0.0000 -11894.4496 1718.5100 0.0000 0.0000 1414.6231 -8751.9360 239.0834 -10166.5591 -8747.9895 239.3270 10.2990 89.3306 29024.0953 2.6891 2.7372
TCL: Running 100000 steps at 270 kelvin.
TCL: Setting parameter langevinTemp to 270
TCL: Running for 100000 steps
ETITLE: TS BOND ANGLE DIHED IMPRP ELECT VDW BOUNDARY MISC KINETIC TOTAL TEMP POTENTIAL TOTAL3 TEMPAVG PRESSURE GPRESSURE VOLUME PRESSAVG GPRESSAVG
ENERGY: 800000 1.1215 6.4835 1.7755 0.0000 -11894.4496 1718.5100 0.0000 0.0000 1413.9053 -8752.6538 238.9621 -10166.5591 -8750.7096 238.9621 5.4109 88.6431 29024.0953 5.4109 88.6431
ENERGY: 900000 4.3551 7.8899 1.1763 0.0000 -11383.3238 1700.6442 0.0000 0.0000 1618.1329 -8051.1254 273.4783 -9669.2583 -8049.6914 270.0429 1134.0328 1225.2854 29740.8266 3.3289 3.3503
TCL: Running 1000000 steps at 300 kelvin.
TCL: Setting parameter langevinTemp to 300
TCL: Running for 1000000 steps
ETITLE: TS BOND ANGLE DIHED IMPRP ELECT VDW BOUNDARY MISC KINETIC TOTAL TEMP POTENTIAL TOTAL3 TEMPAVG PRESSURE GPRESSURE VOLUME PRESSAVG GPRESSAVG
ENERGY: 900000 4.3551 7.8899 1.1763 0.0000 -11383.3238 1700.6442 0.0000 0.0000 1617.3272 -8051.9311 273.3421 -9669.2583 -8050.2269 273.3421 1138.1815 1225.3168 29740.8266 1138.1815 1225.3168
ENERGY: 1100000 1.2013 12.6439 1.9996 0.0000 -10796.2968 1437.5290 0.0000 0.0000 1779.2885 -7563.6345 300.7149 -9342.9230 -7559.5740 299.7159 -81.8792 -10.2690 30526.9783 2.8505 2.8789
ENERGY: 1300000 1.3236 13.9463 2.1445 0.0000 -10823.8442 1520.6234 0.0000 0.0000 1736.3679 -7549.4385 293.4610 -9285.8064 -7544.2617 299.7743 834.3108 957.5233 29991.4596 3.3369 3.3854
ENERGY: 1500000 1.5052 11.2417 1.0435 0.0000 -10627.7229 1335.1901 0.0000 0.0000 1734.0702 -7544.6722 293.0727 -9278.7424 -7542.4430 301.0175 -882.5537 -807.2259 30705.9091 3.3022 3.1727
ENERGY: 1700000 2.1513 9.3120 2.3193 0.0000 -10797.3634 1447.4079 0.0000 0.0000 1745.0068 -7591.1661 294.9210 -9336.1729 -7585.6800 299.9741 -250.0650 -118.9668 30778.1999 4.4605 4.3662
ENERGY: 1900000 2.1131 10.3315 1.2541 0.0000 -10795.5307 1405.1896 0.0000 0.0000 1706.5440 -7670.0984 288.4205 -9376.6424 -7665.4166 300.1049 -844.2877 -660.1514 30786.4020 2.8802 2.7616
TCL: Exiting due to exit command.
