Info: SIMULATION PARAMETERS:
Info: TIMESTEP               2
Info: NUMBER OF STEPS        0
Info: STEPS PER CYCLE        10
Info: PERIODIC CELL BASIS 1  34.986 0 0
Info: PERIODIC CELL BASIS 2  0 35.411 0
Info: PERIODIC CELL BASIS 3  0 0 35.723
Info: PERIODIC CELL CENTER   0 0 0
Info: WRAPPING WATERS AROUND PERIODIC BOUNDARIES ON OUTPUT.
Info: WRAPPING ALL CLUSTERS AROUND PERIODIC BOUNDARIES ON OUTPUT.
Info: FIRST LDB TIMESTEP     50
Info: LAST LDB TIMESTEP     -1
Info: HOM BACKGROUND SCALING 1
Info: PME BACKGROUND SCALING 1
Info: MIN ATOMS PER PATCH    40
Info: EMPTY PATCH LOAD       40 ATOMS
Info: INITIAL TEMPERATURE    300
Info: CENTER OF MASS MOVING INITIALLY? NO
Info: DIELECTRIC             1
Info: EXCLUDE                SCALED ONE-FOUR
Info: 1-4 ELECTROSTATICS SCALED BY 0.833333
Info: MODIFIED 1-4 VDW PARAMETERS WILL BE USED
Info: DCD FILENAME           mobley_1231151_equil.dcd
Info: DCD FREQUENCY          100000
Info: DCD FIRST STEP         100000
Info: DCD FILE WILL CONTAIN UNIT CELL DATA
Info: XST FILENAME           mobley_1231151_equil.xst
Info: XST FREQUENCY          100000
Info: NO VELOCITY DCD OUTPUT
Info: NO FORCE DCD OUTPUT
Info: OUTPUT FILENAME        mobley_1231151_equil
Info: BINARY OUTPUT FILES WILL BE USED
Info: RESTART FILENAME       mobley_1231151_equil.restart
Info: RESTART FREQUENCY      100000
Info: BINARY RESTART FILES WILL BE USED
Info: CUTOFF                 9
Info: PAIRLIST DISTANCE      11
Info: PAIRLIST SHRINK RATE   0.01
Info: PAIRLIST GROW RATE     0.01
Info: PAIRLIST TRIGGER       0.3
Info: PAIRLISTS PER CYCLE    2
Info: PAIRLISTS ENABLED
Info: MARGIN                 8
Info: HYDROGEN GROUP CUTOFF  2.5
Info: PATCH DIMENSION        21.5
Info: ENERGY OUTPUT STEPS    100000
Info: ENERGY EVALUATION STEPS    100000
Info: OUTPUT ENERGY PRECISION 4
Info: CROSSTERM ENERGY INCLUDED IN DIHEDRAL
Info: TIMING OUTPUT STEPS    1000000
Info: PRESSURE OUTPUT STEPS  100000
Info: LANGEVIN DYNAMICS ACTIVE
Info: LANGEVIN TEMPERATURE   30
Info: LANGEVIN USING BBK INTEGRATOR
Info: LANGEVIN DAMPING COEFFICIENT IS 1 INVERSE PS
Info: LANGEVIN DYNAMICS APPLIED TO HYDROGENS
Info: LANGEVIN PISTON PRESSURE CONTROL ACTIVE
Info:        TARGET PRESSURE IS 1.01325 BAR
Info:     OSCILLATION PERIOD IS 50 FS
Info:             DECAY TIME IS 25 FS
Info:     PISTON TEMPERATURE IS 300 K
Info:       PRESSURE CONTROL IS GROUP-BASED
Info:    INITIAL STRAIN RATE IS 0 0 0
Info:       CELL FLUCTUATION IS ISOTROPIC
Info: PARTICLE MESH EWALD (PME) ACTIVE
Info: PME TOLERANCE               1e-06
Info: PME EWALD COEFFICIENT       0.348832
Info: PME INTERPOLATION ORDER     4
Info: PME GRID DIMENSIONS         36 36 36
Info: PME MAXIMUM GRID SPACING    1
Info: FULL ELECTROSTATIC EVALUATION FREQUENCY      2
Info: USING VERLET I (r-RESPA) MTS SCHEME.
Info: C1 SPLITTING OF LONG RANGE ELECTROSTATICS
Info: PLACING ATOMS IN PATCHES BY HYDROGEN GROUPS
Info: RIGID BONDS TO HYDROGEN : ALL
Info:         ERROR TOLERANCE : 1e-08
Info:          MAX ITERATIONS : 100
Info: RIGID WATER USING SETTLE ALGORITHM
Info: RANDOM NUMBER SEED     1743160806
Info: USE HYDROGEN BONDS?    NO
Info: Using AMBER format force field!
Info: AMBER PARM FILE        mobley_1231151.prmtop
Info: COORDINATE PDB         mobley_1231151.pdb
Info: Exclusions will be read from PARM file!
Info: SCNB (VDW SCALING)     2
Info: USING ARITHMETIC MEAN TO COMBINE L-J SIGMA PARAMETERS
Info: BINARY COORDINATES     mobley_1231151_min.coor
Info: SUMMARY OF PARAMETERS:
Info: 6 BONDS
Info: 6 ANGLES
Info:   6 HARMONIC
Info:   0 COSINE-BASED
Info: 4 DIHEDRAL
Info: 0 IMPROPER
Info: 0 CROSSTERM
Info: 0 VDW
Info: 21 VDW_PAIRS
Info: 0 NBTHOLE_PAIRS
Info: STRUCTURE SUMMARY:
Info: 2945 ATOMS
Info: 2944 BONDS
Info: 18 ANGLES
Info: 24 DIHEDRALS
Info: 0 IMPROPERS
Info: 0 CROSSTERMS
Info: 2980 EXCLUSIONS
Info: 2941 RIGID BONDS
Info: 5894 DEGREES OF FREEDOM
Info: 982 HYDROGEN GROUPS
Info: 4 ATOMS IN LARGEST HYDROGEN GROUP
Info: 982 MIGRATION GROUPS
Info: 4 ATOMS IN LARGEST MIGRATION GROUP
Info: TOTAL MASS = 17698.2 amu
Info: TOTAL CHARGE = 0.000199996 e
Info: MASS DENSITY = 0.66406 g/cm^3
Info: ATOM DENSITY = 0.0665434 atoms/A^3
Info: ADDED 0 IMPLICIT EXCLUSIONS
Info: NONBONDED TABLE R-SQUARED SPACING: 0.0625
Info: NONBONDED TABLE SIZE: 705 POINTS
Info: REMOVING COM VELOCITY -0.117741 0.146135 -0.134833
TCL: Running for 100000 steps
ETITLE: TS BOND ANGLE DIHED IMPRP ELECT VDW BOUNDARY MISC KINETIC TOTAL TEMP POTENTIAL TOTAL3 TEMPAVG PRESSURE GPRESSURE VOLUME PRESSAVG GPRESSAVG
ENERGY: 0 0.0104 0.1309 1.4991 0.0000 -13671.8726 2432.8661 0.0000 0.0000 1785.8268 -9451.5393 304.9436 -11237.3661 -9451.1980 304.9436 573.6564 618.9198 44256.8405 573.6564 618.9198
ENERGY: 100000 0.0818 0.7934 1.5182 0.0000 -14286.7214 2552.7801 0.0000 0.0000 178.5863 -11552.9618 30.4950 -11731.5480 -11552.4995 30.8971 712.2797 778.9301 28547.7440 3.2159 3.1872
TCL: Running 100000 steps at 60 kelvin.
TCL: Setting parameter langevinTemp to 60
TCL: Running for 100000 steps
ETITLE: TS BOND ANGLE DIHED IMPRP ELECT VDW BOUNDARY MISC KINETIC TOTAL TEMP POTENTIAL TOTAL3 TEMPAVG PRESSURE GPRESSURE VOLUME PRESSAVG GPRESSAVG
ENERGY: 100000 0.0818 0.7934 1.5182 0.0000 -14286.7214 2552.7801 0.0000 0.0000 178.4941 -11553.0539 30.4792 -11731.5480 -11552.5961 30.4792 705.1541 778.9112 28547.7440 705.1541 778.9112
ENERGY: 200000 0.1017 1.1967 1.6632 0.0000 -14174.4024 2480.7529 0.0000 0.0000 347.4272 -11343.2606 59.3259 -11690.6878 -11342.3215 59.9919 128.1334 182.8923 28531.5773 5.2248 5.2482
TCL: Running 100000 steps at 90 kelvin.
TCL: Setting parameter langevinTemp to 90
TCL: Running for 100000 steps
ETITLE: TS BOND ANGLE DIHED IMPRP ELECT VDW BOUNDARY MISC KINETIC TOTAL TEMP POTENTIAL TOTAL3 TEMPAVG PRESSURE GPRESSURE VOLUME PRESSAVG GPRESSAVG
ENERGY: 200000 0.1017 1.1967 1.6632 0.0000 -14174.4024 2480.7529 0.0000 0.0000 347.2488 -11343.4391 59.2954 -11690.6878 -11342.6636 59.2954 128.7667 182.9695 28531.5773 128.7667 182.9695
ENERGY: 300000 0.1454 1.5234 1.5318 0.0000 -13989.8650 2404.1177 0.0000 0.0000 537.9863 -11044.5604 91.8653 -11582.5467 -11043.3374 89.8053 85.2257 100.2970 28584.4342 3.2231 3.3515
TCL: Running 100000 steps at 120 kelvin.
TCL: Setting parameter langevinTemp to 120
TCL: Running for 100000 steps
ETITLE: TS BOND ANGLE DIHED IMPRP ELECT VDW BOUNDARY MISC KINETIC TOTAL TEMP POTENTIAL TOTAL3 TEMPAVG PRESSURE GPRESSURE VOLUME PRESSAVG GPRESSAVG
ENERGY: 300000 0.1454 1.5234 1.5318 0.0000 -13989.8650 2404.1177 0.0000 0.0000 537.7171 -11044.8296 91.8193 -11582.5467 -11043.6655 91.8193 61.5133 99.4394 28584.4342 61.5133 99.4394
ENERGY: 400000 0.5849 1.4680 1.8070 0.0000 -13769.6261 2331.6948 0.0000 0.0000 709.7423 -10724.3290 121.1939 -11434.0713 -10722.5355 120.0293 -78.8170 -7.4979 28814.7457 3.8306 3.7995
TCL: Running 100000 steps at 150 kelvin.
TCL: Setting parameter langevinTemp to 150
TCL: Running for 100000 steps
ETITLE: TS BOND ANGLE DIHED IMPRP ELECT VDW BOUNDARY MISC KINETIC TOTAL TEMP POTENTIAL TOTAL3 TEMPAVG PRESSURE GPRESSURE VOLUME PRESSAVG GPRESSAVG
ENERGY: 400000 0.5849 1.4680 1.8070 0.0000 -13769.6261 2331.6948 0.0000 0.0000 709.3961 -10724.6752 121.1348 -11434.0713 -10723.2708 121.1348 -67.7095 -6.2999 28814.7457 -67.7095 -6.2999
ENERGY: 500000 0.6211 3.7415 1.6485 0.0000 -13489.6282 2181.6652 0.0000 0.0000 889.6445 -10412.3073 151.9136 -11301.9518 -10408.7371 149.6947 -984.1397 -961.8317 29461.2884 3.4686 3.4657
TCL: Running 100000 steps at 180 kelvin.
TCL: Setting parameter langevinTemp to 180
TCL: Running for 100000 steps
ETITLE: TS BOND ANGLE DIHED IMPRP ELECT VDW BOUNDARY MISC KINETIC TOTAL TEMP POTENTIAL TOTAL3 TEMPAVG PRESSURE GPRESSURE VOLUME PRESSAVG GPRESSAVG
ENERGY: 500000 0.6211 3.7415 1.6485 0.0000 -13489.6282 2181.6652 0.0000 0.0000 889.2210 -10412.7308 151.8413 -11301.9518 -10410.6239 151.8413 -1002.6421 -961.6450 29461.2884 -1002.6421 -961.6450
ENERGY: 600000 1.7257 3.8614 2.5243 0.0000 -13054.3456 2068.1944 0.0000 0.0000 1089.4376 -9888.6022 186.0298 -10978.0398 -9886.4786 180.2519 -348.7342 -310.2324 28948.3278 2.6780 2.6161
TCL: Running 100000 steps at 210 kelvin.
TCL: Setting parameter langevinTemp to 210
TCL: Running for 100000 steps
ETITLE: TS BOND ANGLE DIHED IMPRP ELECT VDW BOUNDARY MISC KINETIC TOTAL TEMP POTENTIAL TOTAL3 TEMPAVG PRESSURE GPRESSURE VOLUME PRESSAVG GPRESSAVG
ENERGY: 600000 1.7257 3.8614 2.5243 0.0000 -13054.3455 2068.1944 0.0000 0.0000 1088.9062 -9889.1336 185.9391 -10978.0398 -9887.0356 185.9391 -369.2709 -310.8432 28948.3278 -369.2709 -310.8432
ENERGY: 700000 0.1622 2.6057 1.8990 0.0000 -12441.7574 1927.7966 0.0000 0.0000 1219.9365 -9289.3574 208.3135 -10509.2939 -9288.9858 209.9478 -12.6554 100.9702 28931.4095 4.7021 4.7628
TCL: Running 100000 steps at 240 kelvin.
TCL: Setting parameter langevinTemp to 240
TCL: Running for 100000 steps
ETITLE: TS BOND ANGLE DIHED IMPRP ELECT VDW BOUNDARY MISC KINETIC TOTAL TEMP POTENTIAL TOTAL3 TEMPAVG PRESSURE GPRESSURE VOLUME PRESSAVG GPRESSAVG
ENERGY: 700000 0.1622 2.6057 1.8990 0.0000 -12441.7574 1927.7966 0.0000 0.0000 1219.3110 -9289.9830 208.2067 -10509.2939 -9287.5702 208.2067 31.8900 98.1820 28931.4095 31.8900 98.1820
ENERGY: 800000 1.1404 3.6519 1.7198 0.0000 -11678.4068 1640.4377 0.0000 0.0000 1398.2436 -8633.2133 238.7608 -10031.4570 -8631.8017 239.9720 -461.1091 -399.7317 28941.1935 3.3412 3.0994
TCL: Running 100000 steps at 270 kelvin.
TCL: Setting parameter langevinTemp to 270
TCL: Running for 100000 steps
ETITLE: TS BOND ANGLE DIHED IMPRP ELECT VDW BOUNDARY MISC KINETIC TOTAL TEMP POTENTIAL TOTAL3 TEMPAVG PRESSURE GPRESSURE VOLUME PRESSAVG GPRESSAVG
ENERGY: 800000 1.1404 3.6519 1.7198 0.0000 -11678.4068 1640.4377 0.0000 0.0000 1397.5307 -8633.9262 238.6391 -10031.4570 -8631.4795 238.6391 -485.5445 -401.0235 28941.1935 -485.5445 -401.0235
ENERGY: 900000 0.4334 4.4362 2.0677 0.0000 -11158.4876 1549.9771 0.0000 0.0000 1567.2361 -8034.3371 267.6176 -9601.5732 -8032.5866 270.0233 -201.5049 -151.6354 30035.1013 2.0390 1.9021
TCL: Running 1000000 steps at 300 kelvin.
TCL: Setting parameter langevinTemp to 300
TCL: Running for 1000000 steps
ETITLE: TS BOND ANGLE DIHED IMPRP ELECT VDW BOUNDARY MISC KINETIC TOTAL TEMP POTENTIAL TOTAL3 TEMPAVG PRESSURE GPRESSURE VOLUME PRESSAVG GPRESSAVG
ENERGY: 900000 0.4334 4.4362 2.0677 0.0000 -11158.4876 1549.9771 0.0000 0.0000 1566.4546 -8035.1187 267.4842 -9601.5732 -8032.6785 267.4842 -243.9087 -151.5984 30035.1013 -243.9087 -151.5984
ENERGY: 1100000 1.4326 6.0821 1.8360 0.0000 -10692.9225 1433.7386 0.0000 0.0000 1704.2693 -7545.5638 291.0171 -9249.8332 -7543.0599 300.3808 79.0415 87.0646 30329.4918 2.2859 2.1472
ENERGY: 1300000 0.1833 2.9078 1.5226 0.0000 -10722.2201 1444.5775 0.0000 0.0000 1740.0004 -7533.0284 297.1184 -9273.0288 -7529.7640 300.0721 -173.9236 -111.6717 30629.5806 2.8791 3.1062
ENERGY: 1500000 0.1652 4.8603 1.7966 0.0000 -10718.0256 1429.4536 0.0000 0.0000 1760.1331 -7521.6168 300.5563 -9281.7499 -7520.6260 299.8543 -170.4060 -109.0425 30329.7458 2.3732 2.4910
ENERGY: 1700000 0.7632 2.4737 2.2212 0.0000 -10706.8925 1472.1511 0.0000 0.0000 1788.5644 -7440.7189 305.4111 -9229.2833 -7438.6032 300.3052 489.5775 583.4695 30052.8198 3.4363 3.5996
ENERGY: 1900000 0.1584 3.7614 2.1085 0.0000 -10568.3582 1390.3629 0.0000 0.0000 1777.4224 -7394.5446 303.5085 -9171.9670 -7391.5413 300.0448 1.4874 117.2890 30056.0234 2.8824 2.9838
TCL: Exiting due to exit command.
