Info: SIMULATION PARAMETERS:
Info: TIMESTEP               2
Info: NUMBER OF STEPS        0
Info: STEPS PER CYCLE        10
Info: PERIODIC CELL BASIS 1  36.592 0 0
Info: PERIODIC CELL BASIS 2  0 32.293 0
Info: PERIODIC CELL BASIS 3  0 0 37.195
Info: PERIODIC CELL CENTER   0 0 0
Info: WRAPPING WATERS AROUND PERIODIC BOUNDARIES ON OUTPUT.
Info: WRAPPING ALL CLUSTERS AROUND PERIODIC BOUNDARIES ON OUTPUT.
Info: FIRST LDB TIMESTEP     50
Info: LAST LDB TIMESTEP     -1
Info: HOM BACKGROUND SCALING 1
Info: PME BACKGROUND SCALING 1
Info: MIN ATOMS PER PATCH    40
Info: EMPTY PATCH LOAD       40 ATOMS
Info: INITIAL TEMPERATURE    300
Info: CENTER OF MASS MOVING INITIALLY? NO
Info: DIELECTRIC             1
Info: EXCLUDE                SCALED ONE-FOUR
Info: 1-4 ELECTROSTATICS SCALED BY 0.833333
Info: MODIFIED 1-4 VDW PARAMETERS WILL BE USED
Info: DCD FILENAME           mobley_8207196_equil.dcd
Info: DCD FREQUENCY          100000
Info: DCD FIRST STEP         100000
Info: DCD FILE WILL CONTAIN UNIT CELL DATA
Info: XST FILENAME           mobley_8207196_equil.xst
Info: XST FREQUENCY          100000
Info: NO VELOCITY DCD OUTPUT
Info: NO FORCE DCD OUTPUT
Info: OUTPUT FILENAME        mobley_8207196_equil
Info: BINARY OUTPUT FILES WILL BE USED
Info: RESTART FILENAME       mobley_8207196_equil.restart
Info: RESTART FREQUENCY      100000
Info: BINARY RESTART FILES WILL BE USED
Info: CUTOFF                 9
Info: PAIRLIST DISTANCE      11
Info: PAIRLIST SHRINK RATE   0.01
Info: PAIRLIST GROW RATE     0.01
Info: PAIRLIST TRIGGER       0.3
Info: PAIRLISTS PER CYCLE    2
Info: PAIRLISTS ENABLED
Info: MARGIN                 8
Info: HYDROGEN GROUP CUTOFF  2.5
Info: PATCH DIMENSION        21.5
Info: ENERGY OUTPUT STEPS    100000
Info: ENERGY EVALUATION STEPS    100000
Info: OUTPUT ENERGY PRECISION 4
Info: CROSSTERM ENERGY INCLUDED IN DIHEDRAL
Info: TIMING OUTPUT STEPS    1000000
Info: PRESSURE OUTPUT STEPS  100000
Info: LANGEVIN DYNAMICS ACTIVE
Info: LANGEVIN TEMPERATURE   30
Info: LANGEVIN USING BBK INTEGRATOR
Info: LANGEVIN DAMPING COEFFICIENT IS 1 INVERSE PS
Info: LANGEVIN DYNAMICS APPLIED TO HYDROGENS
Info: LANGEVIN PISTON PRESSURE CONTROL ACTIVE
Info:        TARGET PRESSURE IS 1.01325 BAR
Info:     OSCILLATION PERIOD IS 50 FS
Info:             DECAY TIME IS 25 FS
Info:     PISTON TEMPERATURE IS 300 K
Info:       PRESSURE CONTROL IS GROUP-BASED
Info:    INITIAL STRAIN RATE IS 0 0 0
Info:       CELL FLUCTUATION IS ISOTROPIC
Info: PARTICLE MESH EWALD (PME) ACTIVE
Info: PME TOLERANCE               1e-06
Info: PME EWALD COEFFICIENT       0.348832
Info: PME INTERPOLATION ORDER     4
Info: PME GRID DIMENSIONS         40 36 40
Info: PME MAXIMUM GRID SPACING    1
Info: FULL ELECTROSTATIC EVALUATION FREQUENCY      2
Info: USING VERLET I (r-RESPA) MTS SCHEME.
Info: C1 SPLITTING OF LONG RANGE ELECTROSTATICS
Info: PLACING ATOMS IN PATCHES BY HYDROGEN GROUPS
Info: RIGID BONDS TO HYDROGEN : ALL
Info:         ERROR TOLERANCE : 1e-08
Info:          MAX ITERATIONS : 100
Info: RIGID WATER USING SETTLE ALGORITHM
Info: RANDOM NUMBER SEED     1743256538
Info: USE HYDROGEN BONDS?    NO
Info: Using AMBER format force field!
Info: AMBER PARM FILE        mobley_8207196.prmtop
Info: COORDINATE PDB         mobley_8207196.pdb
Info: Exclusions will be read from PARM file!
Info: SCNB (VDW SCALING)     2
Info: USING ARITHMETIC MEAN TO COMBINE L-J SIGMA PARAMETERS
Info: BINARY COORDINATES     mobley_8207196_min.coor
Info: SUMMARY OF PARAMETERS:
Info: 10 BONDS
Info: 13 ANGLES
Info:   13 HARMONIC
Info:   0 COSINE-BASED
Info: 5 DIHEDRAL
Info: 0 IMPROPER
Info: 0 CROSSTERM
Info: 0 VDW
Info: 45 VDW_PAIRS
Info: 0 NBTHOLE_PAIRS
Info: STRUCTURE SUMMARY:
Info: 2959 ATOMS
Info: 2959 BONDS
Info: 42 ANGLES
Info: 55 DIHEDRALS
Info: 0 IMPROPERS
Info: 0 CROSSTERMS
Info: 3048 EXCLUSIONS
Info: 2946 RIGID BONDS
Info: 5931 DEGREES OF FREEDOM
Info: 991 HYDROGEN GROUPS
Info: 4 ATOMS IN LARGEST HYDROGEN GROUP
Info: 991 MIGRATION GROUPS
Info: 4 ATOMS IN LARGEST MIGRATION GROUP
Info: TOTAL MASS = 17821.3 amu
Info: TOTAL CHARGE = -0.000100024 e
Info: MASS DENSITY = 0.673317 g/cm^3
Info: ATOM DENSITY = 0.0673234 atoms/A^3
Info: ADDED 0 IMPLICIT EXCLUSIONS
Info: NONBONDED TABLE R-SQUARED SPACING: 0.0625
Info: NONBONDED TABLE SIZE: 705 POINTS
Info: REMOVING COM VELOCITY -0.0993609 -0.0703555 0.0395758
TCL: Running for 100000 steps
ETITLE: TS BOND ANGLE DIHED IMPRP ELECT VDW BOUNDARY MISC KINETIC TOTAL TEMP POTENTIAL TOTAL3 TEMPAVG PRESSURE GPRESSURE VOLUME PRESSAVG GPRESSAVG
ENERGY: 0 2.9398 6.2977 6.0154 0.0000 -14125.9174 2412.3650 0.0000 0.0000 1762.2811 -9936.0185 299.0457 -11698.2996 -9935.6811 299.0457 557.2600 593.7964 43952.0466 557.2600 593.7964
ENERGY: 100000 2.3423 4.7619 3.3730 0.0000 -14653.8247 2478.2061 0.0000 0.0000 177.6973 -11987.4442 30.1539 -12165.1416 -11986.7751 30.9532 -21.8805 6.2851 29304.6098 2.4711 2.4789
TCL: Running 100000 steps at 60 kelvin.
TCL: Setting parameter langevinTemp to 60
TCL: Running for 100000 steps
ETITLE: TS BOND ANGLE DIHED IMPRP ELECT VDW BOUNDARY MISC KINETIC TOTAL TEMP POTENTIAL TOTAL3 TEMPAVG PRESSURE GPRESSURE VOLUME PRESSAVG GPRESSAVG
ENERGY: 100000 2.3423 4.7619 3.3730 0.0000 -14653.8247 2478.2061 0.0000 0.0000 177.6071 -11987.5344 30.1386 -12165.1416 -11987.2230 30.1386 -33.5717 6.4006 29304.6098 -33.5717 6.4006
ENERGY: 200000 3.5642 7.6463 3.8959 0.0000 -14810.9827 2685.7185 0.0000 0.0000 354.0512 -11756.1068 60.0798 -12110.1580 -11755.3642 59.8934 2322.9016 2376.0071 28457.1471 5.7670 5.6807
TCL: Running 100000 steps at 90 kelvin.
TCL: Setting parameter langevinTemp to 90
TCL: Running for 100000 steps
ETITLE: TS BOND ANGLE DIHED IMPRP ELECT VDW BOUNDARY MISC KINETIC TOTAL TEMP POTENTIAL TOTAL3 TEMPAVG PRESSURE GPRESSURE VOLUME PRESSAVG GPRESSAVG
ENERGY: 200000 3.5642 7.6463 3.8959 0.0000 -14810.9827 2685.7185 0.0000 0.0000 353.8772 -11756.2807 60.0503 -12110.1580 -11755.7203 60.0503 2329.0027 2375.9269 28457.1471 2329.0027 2375.9269
ENERGY: 300000 3.1255 6.9644 2.4593 0.0000 -14417.7747 2382.8133 0.0000 0.0000 524.6330 -11497.7792 89.0263 -12022.4123 -11496.5480 89.8183 -81.3532 2.6254 28819.1733 4.3851 4.3406
TCL: Running 100000 steps at 120 kelvin.
TCL: Setting parameter langevinTemp to 120
TCL: Running for 100000 steps
ETITLE: TS BOND ANGLE DIHED IMPRP ELECT VDW BOUNDARY MISC KINETIC TOTAL TEMP POTENTIAL TOTAL3 TEMPAVG PRESSURE GPRESSURE VOLUME PRESSAVG GPRESSAVG
ENERGY: 300000 3.1255 6.9644 2.4593 0.0000 -14417.7747 2382.8133 0.0000 0.0000 524.3698 -11498.0425 88.9816 -12022.4123 -11496.9099 88.9816 -39.1162 2.1467 28819.1733 -39.1162 2.1467
ENERGY: 400000 3.4920 4.8897 3.0518 0.0000 -14046.1235 2174.0001 0.0000 0.0000 725.1313 -11135.5585 123.0493 -11860.6898 -11133.8048 119.9299 -916.6830 -851.9714 28705.1776 4.7872 4.7982
TCL: Running 100000 steps at 150 kelvin.
TCL: Setting parameter langevinTemp to 150
TCL: Running for 100000 steps
ETITLE: TS BOND ANGLE DIHED IMPRP ELECT VDW BOUNDARY MISC KINETIC TOTAL TEMP POTENTIAL TOTAL3 TEMPAVG PRESSURE GPRESSURE VOLUME PRESSAVG GPRESSAVG
ENERGY: 400000 3.4920 4.8897 3.0518 0.0000 -14046.1235 2174.0001 0.0000 0.0000 724.7847 -11135.9052 122.9905 -11860.6898 -11134.3645 122.9905 -901.5930 -852.3238 28705.1776 -901.5930 -852.3238
ENERGY: 500000 5.8923 8.0016 2.6536 0.0000 -13894.4174 2140.6810 0.0000 0.0000 894.8456 -10842.3433 151.8485 -11737.1890 -10839.2471 150.0482 -808.7332 -756.3343 29004.1458 4.5758 4.5589
TCL: Running 100000 steps at 180 kelvin.
TCL: Setting parameter langevinTemp to 180
TCL: Running for 100000 steps
ETITLE: TS BOND ANGLE DIHED IMPRP ELECT VDW BOUNDARY MISC KINETIC TOTAL TEMP POTENTIAL TOTAL3 TEMPAVG PRESSURE GPRESSURE VOLUME PRESSAVG GPRESSAVG
ENERGY: 500000 5.8923 8.0016 2.6536 0.0000 -13894.4174 2140.6810 0.0000 0.0000 894.3981 -10842.7909 151.7726 -11737.1890 -10840.6007 151.7726 -806.4184 -756.3996 29004.1458 -806.4184 -756.3996
ENERGY: 600000 3.8558 11.4326 5.9454 0.0000 -13620.3220 2130.4848 0.0000 0.0000 1074.1129 -10394.4905 182.2688 -11468.6034 -10390.8623 180.2521 -150.0260 -69.8504 29006.7267 4.5437 4.5664
TCL: Running 100000 steps at 210 kelvin.
TCL: Setting parameter langevinTemp to 210
TCL: Running for 100000 steps
ETITLE: TS BOND ANGLE DIHED IMPRP ELECT VDW BOUNDARY MISC KINETIC TOTAL TEMP POTENTIAL TOTAL3 TEMPAVG PRESSURE GPRESSURE VOLUME PRESSAVG GPRESSAVG
ENERGY: 600000 3.8558 11.4326 5.9454 0.0000 -13620.3220 2130.4848 0.0000 0.0000 1073.5838 -10395.0196 182.1790 -11468.6034 -10392.9676 182.1790 -131.9414 -67.5218 29006.7267 -131.9414 -67.5218
ENERGY: 700000 3.9834 7.1685 2.7105 0.0000 -12914.1459 1943.7303 0.0000 0.0000 1223.8326 -9732.7206 207.6751 -10956.5532 -9730.1475 209.9913 491.9235 594.6228 28604.5243 4.3315 4.2472
TCL: Running 100000 steps at 240 kelvin.
TCL: Setting parameter langevinTemp to 240
TCL: Running for 100000 steps
ETITLE: TS BOND ANGLE DIHED IMPRP ELECT VDW BOUNDARY MISC KINETIC TOTAL TEMP POTENTIAL TOTAL3 TEMPAVG PRESSURE GPRESSURE VOLUME PRESSAVG GPRESSAVG
ENERGY: 700000 3.9834 7.1685 2.7105 0.0000 -12914.1459 1943.7303 0.0000 0.0000 1223.2037 -9733.3495 207.5684 -10956.5532 -9731.7144 207.5684 520.5061 593.7445 28604.5243 520.5061 593.7445
ENERGY: 800000 3.2154 12.4194 5.3260 0.0000 -12223.0898 1695.3089 0.0000 0.0000 1407.2822 -9099.5380 238.8051 -10506.8202 -9095.6728 239.7529 -476.8010 -410.9426 29465.4188 2.5090 2.4430
TCL: Running 100000 steps at 270 kelvin.
TCL: Setting parameter langevinTemp to 270
TCL: Running for 100000 steps
ETITLE: TS BOND ANGLE DIHED IMPRP ELECT VDW BOUNDARY MISC KINETIC TOTAL TEMP POTENTIAL TOTAL3 TEMPAVG PRESSURE GPRESSURE VOLUME PRESSAVG GPRESSAVG
ENERGY: 800000 3.2154 12.4194 5.3260 0.0000 -12223.0898 1695.3089 0.0000 0.0000 1406.5639 -9100.2562 238.6832 -10506.8202 -9097.5206 238.6832 -496.5050 -411.1811 29465.4188 -496.5050 -411.1811
ENERGY: 900000 6.9793 17.2510 8.8723 0.0000 -11668.8650 1529.5671 0.0000 0.0000 1613.7784 -8492.4169 273.8460 -10106.1953 -8487.6644 269.8634 -525.9155 -357.3735 29773.3462 4.0118 4.1376
TCL: Running 1000000 steps at 300 kelvin.
TCL: Setting parameter langevinTemp to 300
TCL: Running for 1000000 steps
ETITLE: TS BOND ANGLE DIHED IMPRP ELECT VDW BOUNDARY MISC KINETIC TOTAL TEMP POTENTIAL TOTAL3 TEMPAVG PRESSURE GPRESSURE VOLUME PRESSAVG GPRESSAVG
ENERGY: 900000 6.9793 17.2510 8.8723 0.0000 -11668.8650 1529.5671 0.0000 0.0000 1612.9957 -8493.1996 273.7132 -10106.1953 -8490.7114 273.7132 -454.1896 -357.4991 29773.3462 -454.1896 -357.4991
ENERGY: 1100000 4.0090 13.8697 9.7925 0.0000 -11145.1072 1447.6340 0.0000 0.0000 1718.9348 -7950.8673 291.6902 -9669.8021 -7946.6528 300.4760 -320.5301 -218.0022 30976.6966 2.9975 2.7355
ENERGY: 1300000 7.4391 19.3736 5.6843 0.0000 -11248.0600 1533.5511 0.0000 0.0000 1740.2417 -7941.7702 295.3058 -9682.0119 -7935.7220 299.8606 710.4091 846.7509 30143.9885 1.9919 2.1283
ENERGY: 1500000 9.7812 19.2712 8.5475 0.0000 -11180.2059 1453.9849 0.0000 0.0000 1787.6818 -7900.9394 303.3561 -9688.6211 -7897.4660 300.5731 71.1747 87.3442 30644.8407 4.5718 4.5707
ENERGY: 1700000 4.5468 16.8557 3.1743 0.0000 -11213.0042 1440.0876 0.0000 0.0000 1823.2167 -7925.1231 309.3861 -9748.3398 -7919.6423 300.0750 -207.6876 -176.1951 30311.1781 4.7001 4.7297
ENERGY: 1900000 9.6290 12.9565 11.6681 0.0000 -11156.0123 1437.1292 0.0000 0.0000 1738.1891 -7946.4403 294.9575 -9684.6294 -7942.1172 299.8818 6.5234 47.6409 30365.1938 1.4434 1.2814
TCL: Exiting due to exit command.
