Info: SIMULATION PARAMETERS:
Info: TIMESTEP               2
Info: NUMBER OF STEPS        0
Info: STEPS PER CYCLE        10
Info: PERIODIC CELL BASIS 1  34.986 0 0
Info: PERIODIC CELL BASIS 2  0 35.411 0
Info: PERIODIC CELL BASIS 3  0 0 35.644
Info: PERIODIC CELL CENTER   0 0 0
Info: WRAPPING WATERS AROUND PERIODIC BOUNDARIES ON OUTPUT.
Info: WRAPPING ALL CLUSTERS AROUND PERIODIC BOUNDARIES ON OUTPUT.
Info: FIRST LDB TIMESTEP     50
Info: LAST LDB TIMESTEP     -1
Info: HOM BACKGROUND SCALING 1
Info: PME BACKGROUND SCALING 1
Info: MIN ATOMS PER PATCH    40
Info: EMPTY PATCH LOAD       40 ATOMS
Info: INITIAL TEMPERATURE    300
Info: CENTER OF MASS MOVING INITIALLY? NO
Info: DIELECTRIC             1
Info: EXCLUDE                SCALED ONE-FOUR
Info: 1-4 ELECTROSTATICS SCALED BY 0.833333
Info: MODIFIED 1-4 VDW PARAMETERS WILL BE USED
Info: DCD FILENAME           mobley_8882696_equil.dcd
Info: DCD FREQUENCY          100000
Info: DCD FIRST STEP         100000
Info: DCD FILE WILL CONTAIN UNIT CELL DATA
Info: XST FILENAME           mobley_8882696_equil.xst
Info: XST FREQUENCY          100000
Info: NO VELOCITY DCD OUTPUT
Info: NO FORCE DCD OUTPUT
Info: OUTPUT FILENAME        mobley_8882696_equil
Info: BINARY OUTPUT FILES WILL BE USED
Info: RESTART FILENAME       mobley_8882696_equil.restart
Info: RESTART FREQUENCY      100000
Info: BINARY RESTART FILES WILL BE USED
Info: CUTOFF                 9
Info: PAIRLIST DISTANCE      11
Info: PAIRLIST SHRINK RATE   0.01
Info: PAIRLIST GROW RATE     0.01
Info: PAIRLIST TRIGGER       0.3
Info: PAIRLISTS PER CYCLE    2
Info: PAIRLISTS ENABLED
Info: MARGIN                 8
Info: HYDROGEN GROUP CUTOFF  2.5
Info: PATCH DIMENSION        21.5
Info: ENERGY OUTPUT STEPS    100000
Info: ENERGY EVALUATION STEPS    100000
Info: OUTPUT ENERGY PRECISION 4
Info: CROSSTERM ENERGY INCLUDED IN DIHEDRAL
Info: TIMING OUTPUT STEPS    1000000
Info: PRESSURE OUTPUT STEPS  100000
Info: LANGEVIN DYNAMICS ACTIVE
Info: LANGEVIN TEMPERATURE   30
Info: LANGEVIN USING BBK INTEGRATOR
Info: LANGEVIN DAMPING COEFFICIENT IS 1 INVERSE PS
Info: LANGEVIN DYNAMICS APPLIED TO HYDROGENS
Info: LANGEVIN PISTON PRESSURE CONTROL ACTIVE
Info:        TARGET PRESSURE IS 1.01325 BAR
Info:     OSCILLATION PERIOD IS 50 FS
Info:             DECAY TIME IS 25 FS
Info:     PISTON TEMPERATURE IS 300 K
Info:       PRESSURE CONTROL IS GROUP-BASED
Info:    INITIAL STRAIN RATE IS 0 0 0
Info:       CELL FLUCTUATION IS ISOTROPIC
Info: PARTICLE MESH EWALD (PME) ACTIVE
Info: PME TOLERANCE               1e-06
Info: PME EWALD COEFFICIENT       0.348832
Info: PME INTERPOLATION ORDER     4
Info: PME GRID DIMENSIONS         36 36 36
Info: PME MAXIMUM GRID SPACING    1
Info: FULL ELECTROSTATIC EVALUATION FREQUENCY      2
Info: USING VERLET I (r-RESPA) MTS SCHEME.
Info: C1 SPLITTING OF LONG RANGE ELECTROSTATICS
Info: PLACING ATOMS IN PATCHES BY HYDROGEN GROUPS
Info: RIGID BONDS TO HYDROGEN : ALL
Info:         ERROR TOLERANCE : 1e-08
Info:          MAX ITERATIONS : 100
Info: RIGID WATER USING SETTLE ALGORITHM
Info: RANDOM NUMBER SEED     1743208795
Info: USE HYDROGEN BONDS?    NO
Info: Using AMBER format force field!
Info: AMBER PARM FILE        mobley_8882696.prmtop
Info: COORDINATE PDB         mobley_8882696.pdb
Info: Exclusions will be read from PARM file!
Info: SCNB (VDW SCALING)     2
Info: USING ARITHMETIC MEAN TO COMBINE L-J SIGMA PARAMETERS
Info: BINARY COORDINATES     mobley_8882696_min.coor
Info: SUMMARY OF PARAMETERS:
Info: 6 BONDS
Info: 8 ANGLES
Info:   8 HARMONIC
Info:   0 COSINE-BASED
Info: 11 DIHEDRAL
Info: 0 IMPROPER
Info: 0 CROSSTERM
Info: 0 VDW
Info: 21 VDW_PAIRS
Info: 0 NBTHOLE_PAIRS
Info: STRUCTURE SUMMARY:
Info: 2920 ATOMS
Info: 2920 BONDS
Info: 25 ANGLES
Info: 41 DIHEDRALS
Info: 0 IMPROPERS
Info: 0 CROSSTERMS
Info: 2973 EXCLUSIONS
Info: 2915 RIGID BONDS
Info: 5845 DEGREES OF FREEDOM
Info: 974 HYDROGEN GROUPS
Info: 3 ATOMS IN LARGEST HYDROGEN GROUP
Info: 974 MIGRATION GROUPS
Info: 3 ATOMS IN LARGEST MIGRATION GROUP
Info: TOTAL MASS = 17529.6 amu
Info: TOTAL CHARGE = -0.000100002 e
Info: MASS DENSITY = 0.659193 g/cm^3
Info: ATOM DENSITY = 0.0661247 atoms/A^3
Info: ADDED 0 IMPLICIT EXCLUSIONS
Info: NONBONDED TABLE R-SQUARED SPACING: 0.0625
Info: NONBONDED TABLE SIZE: 705 POINTS
Info: REMOVING COM VELOCITY 0.0997012 0.0401345 0.0332149
TCL: Running for 100000 steps
ETITLE: TS BOND ANGLE DIHED IMPRP ELECT VDW BOUNDARY MISC KINETIC TOTAL TEMP POTENTIAL TOTAL3 TEMPAVG PRESSURE GPRESSURE VOLUME PRESSAVG GPRESSAVG
ENERGY: 0 0.0408 3.4613 7.4764 0.0000 -13490.9615 2394.0731 0.0000 0.0000 1741.2315 -9344.6784 299.8212 -11085.9099 -9344.3399 299.8212 632.9871 675.3645 44158.9683 632.9871 675.3645
ENERGY: 100000 0.1360 3.6222 7.6421 0.0000 -13992.8187 2381.5191 0.0000 0.0000 171.8565 -11428.0427 29.5918 -11599.8992 -11427.5802 30.9196 -521.4366 -474.3727 28721.6885 3.7128 3.7629
TCL: Running 100000 steps at 60 kelvin.
TCL: Setting parameter langevinTemp to 60
TCL: Running for 100000 steps
ETITLE: TS BOND ANGLE DIHED IMPRP ELECT VDW BOUNDARY MISC KINETIC TOTAL TEMP POTENTIAL TOTAL3 TEMPAVG PRESSURE GPRESSURE VOLUME PRESSAVG GPRESSAVG
ENERGY: 100000 0.1360 3.6222 7.6421 0.0000 -13992.8187 2381.5191 0.0000 0.0000 171.7714 -11428.1278 29.5772 -11599.8992 -11427.7903 29.5772 -534.4711 -474.3123 28721.6885 -534.4711 -474.3123
ENERGY: 200000 0.0943 3.5102 8.0159 0.0000 -13782.8124 2231.5205 0.0000 0.0000 356.5499 -11183.1215 61.3940 -11539.6714 -11182.0749 59.9650 -1577.2928 -1503.6796 28676.0646 4.6547 4.6955
TCL: Running 100000 steps at 90 kelvin.
TCL: Setting parameter langevinTemp to 90
TCL: Running for 100000 steps
ETITLE: TS BOND ANGLE DIHED IMPRP ELECT VDW BOUNDARY MISC KINETIC TOTAL TEMP POTENTIAL TOTAL3 TEMPAVG PRESSURE GPRESSURE VOLUME PRESSAVG GPRESSAVG
ENERGY: 200000 0.0943 3.5102 8.0159 0.0000 -13782.8124 2231.5205 0.0000 0.0000 356.3668 -11183.3047 61.3625 -11539.6714 -11182.4438 61.3625 -1563.7205 -1503.5836 28676.0646 -1563.7205 -1503.5836
ENERGY: 300000 0.6180 5.5634 7.0190 0.0000 -13790.3115 2345.6456 0.0000 0.0000 513.2025 -10918.2631 88.3679 -11431.4655 -10916.6342 89.8700 -149.6967 -94.5527 28542.6255 4.3022 4.3699
TCL: Running 100000 steps at 120 kelvin.
TCL: Setting parameter langevinTemp to 120
TCL: Running for 100000 steps
ETITLE: TS BOND ANGLE DIHED IMPRP ELECT VDW BOUNDARY MISC KINETIC TOTAL TEMP POTENTIAL TOTAL3 TEMPAVG PRESSURE GPRESSURE VOLUME PRESSAVG GPRESSAVG
ENERGY: 300000 0.6180 5.5634 7.0190 0.0000 -13790.3115 2345.6456 0.0000 0.0000 512.9405 -10918.5250 88.3228 -11431.4655 -10917.4910 88.3228 -163.3450 -94.0904 28542.6255 -163.3450 -94.0904
ENERGY: 400000 0.6838 4.3735 9.1442 0.0000 -13531.5257 2209.7587 0.0000 0.0000 702.8946 -10604.6709 121.0308 -11307.5655 -10604.3215 120.0734 -908.5724 -813.7591 28723.7865 4.6450 4.6378
TCL: Running 100000 steps at 150 kelvin.
TCL: Setting parameter langevinTemp to 150
TCL: Running for 100000 steps
ETITLE: TS BOND ANGLE DIHED IMPRP ELECT VDW BOUNDARY MISC KINETIC TOTAL TEMP POTENTIAL TOTAL3 TEMPAVG PRESSURE GPRESSURE VOLUME PRESSAVG GPRESSAVG
ENERGY: 400000 0.6838 4.3735 9.1442 0.0000 -13531.5257 2209.7587 0.0000 0.0000 702.5417 -10605.0238 120.9701 -11307.5655 -10603.5099 120.9701 -869.1238 -815.6415 28723.7865 -869.1238 -815.6415
ENERGY: 500000 0.9154 6.6498 8.5872 0.0000 -13364.1442 2200.5569 0.0000 0.0000 896.9069 -10250.5279 154.4377 -11147.4348 -10247.6399 149.8963 -514.3503 -455.1013 29017.1998 2.8961 2.9516
TCL: Running 100000 steps at 180 kelvin.
TCL: Setting parameter langevinTemp to 180
TCL: Running for 100000 steps
ETITLE: TS BOND ANGLE DIHED IMPRP ELECT VDW BOUNDARY MISC KINETIC TOTAL TEMP POTENTIAL TOTAL3 TEMPAVG PRESSURE GPRESSURE VOLUME PRESSAVG GPRESSAVG
ENERGY: 500000 0.9154 6.6498 8.5872 0.0000 -13364.1442 2200.5569 0.0000 0.0000 896.4552 -10250.9796 154.3599 -11147.4348 -10249.4062 154.3599 -509.5142 -454.8194 29017.1998 -509.5142 -454.8194
ENERGY: 600000 1.2609 5.3535 8.4848 0.0000 -12961.2678 2105.2774 0.0000 0.0000 1092.2826 -9748.6086 188.0792 -10840.8912 -9745.5446 180.1382 354.4446 411.3791 28195.7635 4.7953 4.7860
TCL: Running 100000 steps at 210 kelvin.
TCL: Setting parameter langevinTemp to 210
TCL: Running for 100000 steps
ETITLE: TS BOND ANGLE DIHED IMPRP ELECT VDW BOUNDARY MISC KINETIC TOTAL TEMP POTENTIAL TOTAL3 TEMPAVG PRESSURE GPRESSURE VOLUME PRESSAVG GPRESSAVG
ENERGY: 600000 1.2609 5.3535 8.4848 0.0000 -12961.2678 2105.2774 0.0000 0.0000 1091.7730 -9749.1182 187.9915 -10840.8912 -9747.4425 187.9915 340.4793 412.4455 28195.7635 340.4793 412.4455
ENERGY: 700000 0.9212 9.9660 6.3092 0.0000 -12266.4792 1844.6445 0.0000 0.0000 1206.7804 -9197.8579 207.7945 -10404.6383 -9194.5330 209.8688 -241.5277 -205.0666 28369.5143 2.5639 2.4719
TCL: Running 100000 steps at 240 kelvin.
TCL: Setting parameter langevinTemp to 240
TCL: Running for 100000 steps
ETITLE: TS BOND ANGLE DIHED IMPRP ELECT VDW BOUNDARY MISC KINETIC TOTAL TEMP POTENTIAL TOTAL3 TEMPAVG PRESSURE GPRESSURE VOLUME PRESSAVG GPRESSAVG
ENERGY: 700000 0.9212 9.9660 6.3092 0.0000 -12266.4792 1844.6445 0.0000 0.0000 1206.1423 -9198.4960 207.6847 -10404.6383 -9196.0363 207.6847 -287.5867 -205.0320 28369.5143 -287.5867 -205.0320
ENERGY: 800000 1.9749 6.4000 8.6070 0.0000 -11659.4800 1648.0819 0.0000 0.0000 1395.2320 -8599.1842 240.2439 -9994.4161 -8595.2717 239.7834 -487.2062 -429.8761 28754.9885 2.9720 3.0400
TCL: Running 100000 steps at 270 kelvin.
TCL: Setting parameter langevinTemp to 270
TCL: Running for 100000 steps
ETITLE: TS BOND ANGLE DIHED IMPRP ELECT VDW BOUNDARY MISC KINETIC TOTAL TEMP POTENTIAL TOTAL3 TEMPAVG PRESSURE GPRESSURE VOLUME PRESSAVG GPRESSAVG
ENERGY: 800000 1.9749 6.4000 8.6070 0.0000 -11659.4800 1648.0819 0.0000 0.0000 1394.5344 -8599.8817 240.1237 -9994.4161 -8597.2543 240.1237 -522.1901 -429.6794 28754.9885 -522.1901 -429.6794
ENERGY: 900000 0.5823 7.5582 7.2929 0.0000 -11078.1213 1438.9508 0.0000 0.0000 1527.9879 -8095.7491 263.1030 -9623.7370 -8092.9257 270.3745 -1321.6493 -1229.0113 29597.9898 2.0516 2.0888
TCL: Running 1000000 steps at 300 kelvin.
TCL: Setting parameter langevinTemp to 300
TCL: Running for 1000000 steps
ETITLE: TS BOND ANGLE DIHED IMPRP ELECT VDW BOUNDARY MISC KINETIC TOTAL TEMP POTENTIAL TOTAL3 TEMPAVG PRESSURE GPRESSURE VOLUME PRESSAVG GPRESSAVG
ENERGY: 900000 0.5823 7.5582 7.2929 0.0000 -11078.1213 1438.9508 0.0000 0.0000 1527.1860 -8096.5510 262.9649 -9623.7370 -8094.0187 262.9649 -1330.3646 -1229.3575 29597.9898 -1330.3646 -1229.3575
ENERGY: 1100000 1.2094 11.0507 7.2737 0.0000 -10648.9663 1441.4113 0.0000 0.0000 1740.1695 -7447.8517 299.6384 -9188.0212 -7443.4624 300.0950 83.0130 210.2050 29785.1837 4.1113 4.0496
ENERGY: 1300000 1.4348 7.2692 9.4306 0.0000 -10576.9246 1378.3604 0.0000 0.0000 1766.6260 -7413.8036 304.1939 -9180.4296 -7408.0728 300.1236 -555.1186 -400.6370 29993.5398 4.2873 4.2500
ENERGY: 1500000 1.3567 9.4044 9.0194 0.0000 -10551.0327 1374.2437 0.0000 0.0000 1735.2304 -7421.7782 298.7879 -9157.0085 -7416.0456 299.4990 -416.2118 -307.6880 29831.8432 3.0269 2.9109
ENERGY: 1700000 0.7050 8.6026 11.1367 0.0000 -10607.4869 1438.4969 0.0000 0.0000 1773.5458 -7374.9999 305.3854 -9148.5458 -7371.5548 299.8967 131.7818 219.4155 30163.3681 3.4007 3.5546
ENERGY: 1900000 1.3915 5.2536 10.1990 0.0000 -10592.2006 1398.8482 0.0000 0.0000 1744.0499 -7432.4584 300.3065 -9176.5083 -7424.7416 300.3777 -159.2105 -97.8659 29842.2691 2.9329 2.9038
TCL: Exiting due to exit command.
