Info: SIMULATION PARAMETERS:
Info: TIMESTEP               2
Info: NUMBER OF STEPS        0
Info: STEPS PER CYCLE        10
Info: PERIODIC CELL BASIS 1  34.986 0 0
Info: PERIODIC CELL BASIS 2  0 33.314 0
Info: PERIODIC CELL BASIS 3  0 0 37.451
Info: PERIODIC CELL CENTER   0 0 0
Info: WRAPPING WATERS AROUND PERIODIC BOUNDARIES ON OUTPUT.
Info: WRAPPING ALL CLUSTERS AROUND PERIODIC BOUNDARIES ON OUTPUT.
Info: FIRST LDB TIMESTEP     50
Info: LAST LDB TIMESTEP     -1
Info: HOM BACKGROUND SCALING 1
Info: PME BACKGROUND SCALING 1
Info: MIN ATOMS PER PATCH    40
Info: EMPTY PATCH LOAD       40 ATOMS
Info: INITIAL TEMPERATURE    300
Info: CENTER OF MASS MOVING INITIALLY? NO
Info: DIELECTRIC             1
Info: EXCLUDE                SCALED ONE-FOUR
Info: 1-4 ELECTROSTATICS SCALED BY 0.833333
Info: MODIFIED 1-4 VDW PARAMETERS WILL BE USED
Info: DCD FILENAME           mobley_8789465_equil.dcd
Info: DCD FREQUENCY          100000
Info: DCD FIRST STEP         100000
Info: DCD FILE WILL CONTAIN UNIT CELL DATA
Info: XST FILENAME           mobley_8789465_equil.xst
Info: XST FREQUENCY          100000
Info: NO VELOCITY DCD OUTPUT
Info: NO FORCE DCD OUTPUT
Info: OUTPUT FILENAME        mobley_8789465_equil
Info: BINARY OUTPUT FILES WILL BE USED
Info: RESTART FILENAME       mobley_8789465_equil.restart
Info: RESTART FREQUENCY      100000
Info: BINARY RESTART FILES WILL BE USED
Info: CUTOFF                 9
Info: PAIRLIST DISTANCE      11
Info: PAIRLIST SHRINK RATE   0.01
Info: PAIRLIST GROW RATE     0.01
Info: PAIRLIST TRIGGER       0.3
Info: PAIRLISTS PER CYCLE    2
Info: PAIRLISTS ENABLED
Info: MARGIN                 8
Info: HYDROGEN GROUP CUTOFF  2.5
Info: PATCH DIMENSION        21.5
Info: ENERGY OUTPUT STEPS    100000
Info: ENERGY EVALUATION STEPS    100000
Info: OUTPUT ENERGY PRECISION 4
Info: CROSSTERM ENERGY INCLUDED IN DIHEDRAL
Info: TIMING OUTPUT STEPS    1000000
Info: PRESSURE OUTPUT STEPS  100000
Info: LANGEVIN DYNAMICS ACTIVE
Info: LANGEVIN TEMPERATURE   30
Info: LANGEVIN USING BBK INTEGRATOR
Info: LANGEVIN DAMPING COEFFICIENT IS 1 INVERSE PS
Info: LANGEVIN DYNAMICS APPLIED TO HYDROGENS
Info: LANGEVIN PISTON PRESSURE CONTROL ACTIVE
Info:        TARGET PRESSURE IS 1.01325 BAR
Info:     OSCILLATION PERIOD IS 50 FS
Info:             DECAY TIME IS 25 FS
Info:     PISTON TEMPERATURE IS 300 K
Info:       PRESSURE CONTROL IS GROUP-BASED
Info:    INITIAL STRAIN RATE IS 0 0 0
Info:       CELL FLUCTUATION IS ISOTROPIC
Info: PARTICLE MESH EWALD (PME) ACTIVE
Info: PME TOLERANCE               1e-06
Info: PME EWALD COEFFICIENT       0.348832
Info: PME INTERPOLATION ORDER     4
Info: PME GRID DIMENSIONS         36 36 40
Info: PME MAXIMUM GRID SPACING    1
Info: FULL ELECTROSTATIC EVALUATION FREQUENCY      2
Info: USING VERLET I (r-RESPA) MTS SCHEME.
Info: C1 SPLITTING OF LONG RANGE ELECTROSTATICS
Info: PLACING ATOMS IN PATCHES BY HYDROGEN GROUPS
Info: RIGID BONDS TO HYDROGEN : ALL
Info:         ERROR TOLERANCE : 1e-08
Info:          MAX ITERATIONS : 100
Info: RIGID WATER USING SETTLE ALGORITHM
Info: RANDOM NUMBER SEED     1743208785
Info: USE HYDROGEN BONDS?    NO
Info: Using AMBER format force field!
Info: AMBER PARM FILE        mobley_8789465.prmtop
Info: COORDINATE PDB         mobley_8789465.pdb
Info: Exclusions will be read from PARM file!
Info: SCNB (VDW SCALING)     2
Info: USING ARITHMETIC MEAN TO COMBINE L-J SIGMA PARAMETERS
Info: BINARY COORDINATES     mobley_8789465_min.coor
Info: SUMMARY OF PARAMETERS:
Info: 7 BONDS
Info: 5 ANGLES
Info:   5 HARMONIC
Info:   0 COSINE-BASED
Info: 3 DIHEDRAL
Info: 0 IMPROPER
Info: 0 CROSSTERM
Info: 0 VDW
Info: 21 VDW_PAIRS
Info: 0 NBTHOLE_PAIRS
Info: STRUCTURE SUMMARY:
Info: 2932 ATOMS
Info: 2932 BONDS
Info: 19 ANGLES
Info: 32 DIHEDRALS
Info: 0 IMPROPERS
Info: 0 CROSSTERMS
Info: 2974 EXCLUSIONS
Info: 2924 RIGID BONDS
Info: 5872 DEGREES OF FREEDOM
Info: 981 HYDROGEN GROUPS
Info: 3 ATOMS IN LARGEST HYDROGEN GROUP
Info: 981 MIGRATION GROUPS
Info: 3 ATOMS IN LARGEST MIGRATION GROUP
Info: TOTAL MASS = 17749.6 amu
Info: TOTAL CHARGE = 7.45058e-09 e
Info: MASS DENSITY = 0.675247 g/cm^3
Info: ATOM DENSITY = 0.0671706 atoms/A^3
Info: ADDED 0 IMPLICIT EXCLUSIONS
Info: NONBONDED TABLE R-SQUARED SPACING: 0.0625
Info: NONBONDED TABLE SIZE: 705 POINTS
Info: REMOVING COM VELOCITY -0.216114 -0.0217672 0.0355607
TCL: Running for 100000 steps
ETITLE: TS BOND ANGLE DIHED IMPRP ELECT VDW BOUNDARY MISC KINETIC TOTAL TEMP POTENTIAL TOTAL3 TEMPAVG PRESSURE GPRESSURE VOLUME PRESSAVG GPRESSAVG
ENERGY: 0 0.1317 0.1676 1.1535 0.0000 -13637.8018 2416.5711 0.0000 0.0000 1744.9358 -9474.8422 299.0775 -11219.7780 -9474.5131 299.0775 550.7091 581.5354 43650.0245 550.7091 581.5354
ENERGY: 100000 0.3706 0.3132 2.3277 0.0000 -14167.4538 2484.0132 0.0000 0.0000 178.0014 -11502.4278 30.5090 -11680.4291 -11501.8921 30.8818 135.6382 203.7915 28669.3925 3.3586 3.3491
TCL: Running 100000 steps at 60 kelvin.
TCL: Setting parameter langevinTemp to 60
TCL: Running for 100000 steps
ETITLE: TS BOND ANGLE DIHED IMPRP ELECT VDW BOUNDARY MISC KINETIC TOTAL TEMP POTENTIAL TOTAL3 TEMPAVG PRESSURE GPRESSURE VOLUME PRESSAVG GPRESSAVG
ENERGY: 100000 0.3706 0.3132 2.3277 0.0000 -14167.4538 2484.0132 0.0000 0.0000 177.9121 -11502.5170 30.4937 -11680.4292 -11502.0476 30.4937 145.3821 203.6290 28669.3925 145.3821 203.6290
ENERGY: 200000 0.5250 0.4522 1.4890 0.0000 -14041.4419 2419.3247 0.0000 0.0000 359.5003 -11260.1507 61.6174 -11619.6510 -11258.7780 59.9767 -86.6948 -53.6519 28600.7814 3.4144 3.4368
TCL: Running 100000 steps at 90 kelvin.
TCL: Setting parameter langevinTemp to 90
TCL: Running for 100000 steps
ETITLE: TS BOND ANGLE DIHED IMPRP ELECT VDW BOUNDARY MISC KINETIC TOTAL TEMP POTENTIAL TOTAL3 TEMPAVG PRESSURE GPRESSURE VOLUME PRESSAVG GPRESSAVG
ENERGY: 200000 0.5250 0.4522 1.4890 0.0000 -14041.4419 2419.3247 0.0000 0.0000 359.3308 -11260.3202 61.5884 -11619.6510 -11259.4343 61.5884 -105.5244 -53.1643 28600.7814 -105.5244 -53.1643
ENERGY: 300000 1.3020 0.8604 2.1213 0.0000 -13867.5674 2353.4926 0.0000 0.0000 515.3531 -10994.4381 88.3302 -11509.7912 -10992.7849 90.0463 -368.6802 -306.3773 28861.2813 4.9884 5.0108
TCL: Running 100000 steps at 120 kelvin.
TCL: Setting parameter langevinTemp to 120
TCL: Running for 100000 steps
ETITLE: TS BOND ANGLE DIHED IMPRP ELECT VDW BOUNDARY MISC KINETIC TOTAL TEMP POTENTIAL TOTAL3 TEMPAVG PRESSURE GPRESSURE VOLUME PRESSAVG GPRESSAVG
ENERGY: 300000 1.3020 0.8604 2.1213 0.0000 -13867.5674 2353.4926 0.0000 0.0000 515.0888 -10994.7024 88.2849 -11509.7912 -10993.6018 88.2849 -362.0949 -306.3497 28861.2813 -362.0949 -306.3497
ENERGY: 400000 1.4136 1.7884 3.5891 0.0000 -13741.1069 2385.4795 0.0000 0.0000 699.7845 -10649.0519 119.9413 -11348.8363 -10646.5475 120.0321 625.9332 706.5723 28801.1399 5.1514 5.2331
TCL: Running 100000 steps at 150 kelvin.
TCL: Setting parameter langevinTemp to 150
TCL: Running for 100000 steps
ETITLE: TS BOND ANGLE DIHED IMPRP ELECT VDW BOUNDARY MISC KINETIC TOTAL TEMP POTENTIAL TOTAL3 TEMPAVG PRESSURE GPRESSURE VOLUME PRESSAVG GPRESSAVG
ENERGY: 400000 1.4136 1.7884 3.5891 0.0000 -13741.1069 2385.4795 0.0000 0.0000 699.4266 -10649.4097 119.8799 -11348.8363 -10648.3146 119.8799 656.5835 707.7350 28801.1399 656.5835 707.7350
ENERGY: 500000 0.9259 2.1842 3.1714 0.0000 -13473.8456 2228.7180 0.0000 0.0000 870.6523 -10368.1938 149.2276 -11238.8460 -10365.7051 150.0060 -253.2197 -212.6226 29043.6438 3.0865 3.1245
TCL: Running 100000 steps at 180 kelvin.
TCL: Setting parameter langevinTemp to 180
TCL: Running for 100000 steps
ETITLE: TS BOND ANGLE DIHED IMPRP ELECT VDW BOUNDARY MISC KINETIC TOTAL TEMP POTENTIAL TOTAL3 TEMPAVG PRESSURE GPRESSURE VOLUME PRESSAVG GPRESSAVG
ENERGY: 500000 0.9259 2.1842 3.1714 0.0000 -13473.8456 2228.7180 0.0000 0.0000 870.2162 -10368.6298 149.1528 -11238.8460 -10366.9433 149.1528 -263.4213 -212.7452 29043.6438 -263.4213 -212.7452
ENERGY: 600000 3.0706 1.3822 2.4382 0.0000 -12986.6937 2059.0915 0.0000 0.0000 1066.6522 -9854.0590 182.8215 -10920.7112 -9852.3877 179.8878 -494.6745 -435.3363 28762.9917 2.5976 2.6312
TCL: Running 100000 steps at 210 kelvin.
TCL: Setting parameter langevinTemp to 210
TCL: Running for 100000 steps
ETITLE: TS BOND ANGLE DIHED IMPRP ELECT VDW BOUNDARY MISC KINETIC TOTAL TEMP POTENTIAL TOTAL3 TEMPAVG PRESSURE GPRESSURE VOLUME PRESSAVG GPRESSAVG
ENERGY: 600000 3.0706 1.3822 2.4382 0.0000 -12986.6937 2059.0915 0.0000 0.0000 1066.1393 -9854.5719 182.7336 -10920.7112 -9852.7686 182.7336 -500.6187 -436.3086 28762.9917 -500.6187 -436.3086
ENERGY: 700000 2.5525 2.8105 1.5707 0.0000 -12479.4392 1987.2110 0.0000 0.0000 1208.7451 -9276.5494 207.1758 -10485.2945 -9274.2387 209.5279 723.4539 722.6373 28575.4994 3.7527 3.6818
TCL: Running 100000 steps at 240 kelvin.
TCL: Setting parameter langevinTemp to 240
TCL: Running for 100000 steps
ETITLE: TS BOND ANGLE DIHED IMPRP ELECT VDW BOUNDARY MISC KINETIC TOTAL TEMP POTENTIAL TOTAL3 TEMPAVG PRESSURE GPRESSURE VOLUME PRESSAVG GPRESSAVG
ENERGY: 700000 2.5525 2.8105 1.5707 0.0000 -12479.4392 1987.2110 0.0000 0.0000 1208.1368 -9277.1578 207.0715 -10485.2945 -9274.4098 207.0715 651.2658 720.6140 28575.4994 651.2658 720.6140
ENERGY: 800000 1.3355 2.1140 1.8794 0.0000 -11702.1385 1713.5776 0.0000 0.0000 1404.0532 -8579.1788 240.6511 -9983.2320 -8576.7567 239.5101 102.5505 171.5055 29169.8672 3.9305 3.7881
TCL: Running 100000 steps at 270 kelvin.
TCL: Setting parameter langevinTemp to 270
TCL: Running for 100000 steps
ETITLE: TS BOND ANGLE DIHED IMPRP ELECT VDW BOUNDARY MISC KINETIC TOTAL TEMP POTENTIAL TOTAL3 TEMPAVG PRESSURE GPRESSURE VOLUME PRESSAVG GPRESSAVG
ENERGY: 800000 1.3355 2.1140 1.8794 0.0000 -11702.1385 1713.5776 0.0000 0.0000 1403.3484 -8579.8837 240.5303 -9983.2320 -8577.8828 240.5303 71.2683 170.4736 29169.8672 71.2683 170.4736
ENERGY: 900000 1.3955 3.4491 4.3745 0.0000 -11169.4487 1574.6652 0.0000 0.0000 1552.1879 -8033.3765 266.0410 -9585.5644 -8029.0999 270.2647 164.1624 180.0796 29540.7892 2.6286 2.7562
TCL: Running 1000000 steps at 300 kelvin.
TCL: Setting parameter langevinTemp to 300
TCL: Running for 1000000 steps
ETITLE: TS BOND ANGLE DIHED IMPRP ELECT VDW BOUNDARY MISC KINETIC TOTAL TEMP POTENTIAL TOTAL3 TEMPAVG PRESSURE GPRESSURE VOLUME PRESSAVG GPRESSAVG
ENERGY: 900000 1.3955 3.4491 4.3745 0.0000 -11169.4487 1574.6652 0.0000 0.0000 1551.4234 -8034.1410 265.9100 -9585.5644 -8031.8868 265.9100 92.4417 181.0392 29540.7892 92.4417 181.0392
ENERGY: 1100000 2.4178 4.0346 7.5706 0.0000 -10733.0389 1463.0723 0.0000 0.0000 1673.6014 -7582.3424 286.8510 -9255.9437 -7580.6009 300.4277 -114.8066 5.2628 30349.7144 3.5911 3.4559
ENERGY: 1300000 3.6240 3.5852 2.7527 0.0000 -10658.2827 1411.1786 0.0000 0.0000 1773.3982 -7463.7440 303.9559 -9237.1422 -7460.4551 300.0622 -268.8378 -159.2539 30131.7653 4.0901 4.0867
ENERGY: 1500000 3.1439 1.7801 1.6017 0.0000 -10554.0005 1403.4402 0.0000 0.0000 1756.0785 -7387.9561 300.9874 -9144.0346 -7383.9379 300.1506 -30.8943 42.5955 30653.9668 2.7047 2.7905
ENERGY: 1700000 1.2821 2.5734 3.1278 0.0000 -10644.8071 1402.5974 0.0000 0.0000 1746.1602 -7489.0663 299.2874 -9235.2264 -7486.8264 299.9683 -220.9007 -94.1450 30160.1802 4.0053 4.0257
ENERGY: 1900000 4.5204 2.8767 3.0166 0.0000 -10690.1816 1462.6406 0.0000 0.0000 1723.0812 -7494.0461 295.3317 -9217.1273 -7489.3849 300.3916 0.4519 153.7528 30352.7985 1.9049 1.8678
TCL: Exiting due to exit command.
