Info: SIMULATION PARAMETERS:
Info: TIMESTEP               2
Info: NUMBER OF STEPS        0
Info: STEPS PER CYCLE        10
Info: PERIODIC CELL BASIS 1  35.89 0 0
Info: PERIODIC CELL BASIS 2  0 34.1 0
Info: PERIODIC CELL BASIS 3  0 0 36.199
Info: PERIODIC CELL CENTER   0 0 0
Info: WRAPPING WATERS AROUND PERIODIC BOUNDARIES ON OUTPUT.
Info: WRAPPING ALL CLUSTERS AROUND PERIODIC BOUNDARIES ON OUTPUT.
Info: FIRST LDB TIMESTEP     50
Info: LAST LDB TIMESTEP     -1
Info: HOM BACKGROUND SCALING 1
Info: PME BACKGROUND SCALING 1
Info: MIN ATOMS PER PATCH    40
Info: EMPTY PATCH LOAD       40 ATOMS
Info: INITIAL TEMPERATURE    300
Info: CENTER OF MASS MOVING INITIALLY? NO
Info: DIELECTRIC             1
Info: EXCLUDE                SCALED ONE-FOUR
Info: 1-4 ELECTROSTATICS SCALED BY 0.833333
Info: MODIFIED 1-4 VDW PARAMETERS WILL BE USED
Info: DCD FILENAME           mobley_5973402_equil.dcd
Info: DCD FREQUENCY          100000
Info: DCD FIRST STEP         100000
Info: DCD FILE WILL CONTAIN UNIT CELL DATA
Info: XST FILENAME           mobley_5973402_equil.xst
Info: XST FREQUENCY          100000
Info: NO VELOCITY DCD OUTPUT
Info: NO FORCE DCD OUTPUT
Info: OUTPUT FILENAME        mobley_5973402_equil
Info: BINARY OUTPUT FILES WILL BE USED
Info: RESTART FILENAME       mobley_5973402_equil.restart
Info: RESTART FREQUENCY      100000
Info: BINARY RESTART FILES WILL BE USED
Info: CUTOFF                 9
Info: PAIRLIST DISTANCE      11
Info: PAIRLIST SHRINK RATE   0.01
Info: PAIRLIST GROW RATE     0.01
Info: PAIRLIST TRIGGER       0.3
Info: PAIRLISTS PER CYCLE    2
Info: PAIRLISTS ENABLED
Info: MARGIN                 8
Info: HYDROGEN GROUP CUTOFF  2.5
Info: PATCH DIMENSION        21.5
Info: ENERGY OUTPUT STEPS    100000
Info: ENERGY EVALUATION STEPS    100000
Info: OUTPUT ENERGY PRECISION 4
Info: CROSSTERM ENERGY INCLUDED IN DIHEDRAL
Info: TIMING OUTPUT STEPS    1000000
Info: PRESSURE OUTPUT STEPS  100000
Info: LANGEVIN DYNAMICS ACTIVE
Info: LANGEVIN TEMPERATURE   30
Info: LANGEVIN USING BBK INTEGRATOR
Info: LANGEVIN DAMPING COEFFICIENT IS 1 INVERSE PS
Info: LANGEVIN DYNAMICS APPLIED TO HYDROGENS
Info: LANGEVIN PISTON PRESSURE CONTROL ACTIVE
Info:        TARGET PRESSURE IS 1.01325 BAR
Info:     OSCILLATION PERIOD IS 50 FS
Info:             DECAY TIME IS 25 FS
Info:     PISTON TEMPERATURE IS 300 K
Info:       PRESSURE CONTROL IS GROUP-BASED
Info:    INITIAL STRAIN RATE IS 0 0 0
Info:       CELL FLUCTUATION IS ISOTROPIC
Info: PARTICLE MESH EWALD (PME) ACTIVE
Info: PME TOLERANCE               1e-06
Info: PME EWALD COEFFICIENT       0.348832
Info: PME INTERPOLATION ORDER     4
Info: PME GRID DIMENSIONS         36 36 40
Info: PME MAXIMUM GRID SPACING    1
Info: FULL ELECTROSTATIC EVALUATION FREQUENCY      2
Info: USING VERLET I (r-RESPA) MTS SCHEME.
Info: C1 SPLITTING OF LONG RANGE ELECTROSTATICS
Info: PLACING ATOMS IN PATCHES BY HYDROGEN GROUPS
Info: RIGID BONDS TO HYDROGEN : ALL
Info:         ERROR TOLERANCE : 1e-08
Info:          MAX ITERATIONS : 100
Info: RIGID WATER USING SETTLE ALGORITHM
Info: RANDOM NUMBER SEED     1743241685
Info: USE HYDROGEN BONDS?    NO
Info: Using AMBER format force field!
Info: AMBER PARM FILE        mobley_5973402.prmtop
Info: COORDINATE PDB         mobley_5973402.pdb
Info: Exclusions will be read from PARM file!
Info: SCNB (VDW SCALING)     2
Info: USING ARITHMETIC MEAN TO COMBINE L-J SIGMA PARAMETERS
Info: BINARY COORDINATES     mobley_5973402_min.coor
Info: SUMMARY OF PARAMETERS:
Info: 7 BONDS
Info: 8 ANGLES
Info:   8 HARMONIC
Info:   0 COSINE-BASED
Info: 9 DIHEDRAL
Info: 0 IMPROPER
Info: 0 CROSSTERM
Info: 0 VDW
Info: 21 VDW_PAIRS
Info: 0 NBTHOLE_PAIRS
Info: STRUCTURE SUMMARY:
Info: 2955 ATOMS
Info: 2954 BONDS
Info: 31 ANGLES
Info: 46 DIHEDRALS
Info: 0 IMPROPERS
Info: 0 CROSSTERMS
Info: 3024 EXCLUSIONS
Info: 2949 RIGID BONDS
Info: 5916 DEGREES OF FREEDOM
Info: 985 HYDROGEN GROUPS
Info: 4 ATOMS IN LARGEST HYDROGEN GROUP
Info: 985 MIGRATION GROUPS
Info: 4 ATOMS IN LARGEST MIGRATION GROUP
Info: TOTAL MASS = 17725.8 amu
Info: TOTAL CHARGE = -9.99942e-05 e
Info: MASS DENSITY = 0.664417 g/cm^3
Info: ATOM DENSITY = 0.0667011 atoms/A^3
Info: ADDED 0 IMPLICIT EXCLUSIONS
Info: NONBONDED TABLE R-SQUARED SPACING: 0.0625
Info: NONBONDED TABLE SIZE: 705 POINTS
Info: REMOVING COM VELOCITY 0.0621278 -0.00485606 0.0304105
TCL: Running for 100000 steps
ETITLE: TS BOND ANGLE DIHED IMPRP ELECT VDW BOUNDARY MISC KINETIC TOTAL TEMP POTENTIAL TOTAL3 TEMPAVG PRESSURE GPRESSURE VOLUME PRESSAVG GPRESSAVG
ENERGY: 0 0.0677 0.6442 1.8520 0.0000 -13695.9650 2384.6377 0.0000 0.0000 1769.0359 -9539.7275 300.9531 -11308.7634 -9539.3673 300.9531 284.4822 319.5235 44302.1100 284.4822 319.5235
ENERGY: 100000 0.1624 1.6125 2.7495 0.0000 -14265.1353 2487.7629 0.0000 0.0000 177.8192 -11595.0287 30.2511 -11772.8480 -11594.5637 30.8463 84.9639 159.1544 28776.8741 4.4034 4.4164
TCL: Running 100000 steps at 60 kelvin.
TCL: Setting parameter langevinTemp to 60
TCL: Running for 100000 steps
ETITLE: TS BOND ANGLE DIHED IMPRP ELECT VDW BOUNDARY MISC KINETIC TOTAL TEMP POTENTIAL TOTAL3 TEMPAVG PRESSURE GPRESSURE VOLUME PRESSAVG GPRESSAVG
ENERGY: 100000 0.1624 1.6125 2.7495 0.0000 -14265.1353 2487.7629 0.0000 0.0000 177.7322 -11595.1158 30.2363 -11772.8480 -11594.6687 30.2363 100.2249 158.9367 28776.8741 100.2249 158.9367
ENERGY: 200000 0.1613 2.0886 2.6871 0.0000 -14278.6033 2569.8451 0.0000 0.0000 360.1618 -11343.6595 61.2717 -11703.8213 -11342.7654 59.8536 1274.0904 1322.7573 28174.4555 2.9033 2.9748
TCL: Running 100000 steps at 90 kelvin.
TCL: Setting parameter langevinTemp to 90
TCL: Running for 100000 steps
ETITLE: TS BOND ANGLE DIHED IMPRP ELECT VDW BOUNDARY MISC KINETIC TOTAL TEMP POTENTIAL TOTAL3 TEMPAVG PRESSURE GPRESSURE VOLUME PRESSAVG GPRESSAVG
ENERGY: 200000 0.1613 2.0886 2.6871 0.0000 -14278.6033 2569.8451 0.0000 0.0000 359.9883 -11343.8330 61.2422 -11703.8213 -11343.0755 61.2422 1261.8140 1322.5254 28174.4555 1261.8140 1322.5254
ENERGY: 300000 0.4395 2.7002 2.4753 0.0000 -13951.2718 2368.4699 0.0000 0.0000 531.2117 -11045.9751 90.3712 -11577.1868 -11044.1655 89.9203 -18.4149 -8.8167 28520.6849 4.4766 4.5248
TCL: Running 100000 steps at 120 kelvin.
TCL: Setting parameter langevinTemp to 120
TCL: Running for 100000 steps
ETITLE: TS BOND ANGLE DIHED IMPRP ELECT VDW BOUNDARY MISC KINETIC TOTAL TEMP POTENTIAL TOTAL3 TEMPAVG PRESSURE GPRESSURE VOLUME PRESSAVG GPRESSAVG
ENERGY: 300000 0.4395 2.7002 2.4753 0.0000 -13951.2718 2368.4699 0.0000 0.0000 530.9463 -11046.2405 90.3260 -11577.1868 -11045.4557 90.3260 -60.2209 -8.2906 28520.6849 -60.2209 -8.2906
ENERGY: 400000 0.9000 3.0710 2.3408 0.0000 -13896.7015 2399.1498 0.0000 0.0000 720.0566 -10771.1833 122.4980 -11491.2399 -10769.2538 119.8578 745.6606 768.7371 28308.5458 6.1271 6.1503
TCL: Running 100000 steps at 150 kelvin.
TCL: Setting parameter langevinTemp to 150
TCL: Running for 100000 steps
ETITLE: TS BOND ANGLE DIHED IMPRP ELECT VDW BOUNDARY MISC KINETIC TOTAL TEMP POTENTIAL TOTAL3 TEMPAVG PRESSURE GPRESSURE VOLUME PRESSAVG GPRESSAVG
ENERGY: 400000 0.9000 3.0710 2.3408 0.0000 -13896.7015 2399.1498 0.0000 0.0000 719.7109 -10771.5289 122.4392 -11491.2399 -10770.0673 122.4392 717.3071 768.9822 28308.5458 717.3071 768.9822
ENERGY: 500000 0.3868 4.7102 3.1168 0.0000 -13487.2413 2212.9594 0.0000 0.0000 869.2288 -10396.8393 147.8755 -11266.0681 -10393.2510 149.8644 -465.6858 -383.3365 28969.1055 2.8530 2.7864
TCL: Running 100000 steps at 180 kelvin.
TCL: Setting parameter langevinTemp to 180
TCL: Running for 100000 steps
ETITLE: TS BOND ANGLE DIHED IMPRP ELECT VDW BOUNDARY MISC KINETIC TOTAL TEMP POTENTIAL TOTAL3 TEMPAVG PRESSURE GPRESSURE VOLUME PRESSAVG GPRESSAVG
ENERGY: 500000 0.3868 4.7102 3.1168 0.0000 -13487.2413 2212.9594 0.0000 0.0000 868.8004 -10397.2677 147.8027 -11266.0681 -10395.6944 147.8027 -438.6926 -381.4991 28969.1055 -438.6926 -381.4991
ENERGY: 600000 1.5427 6.3614 1.9777 0.0000 -13209.6003 2177.2977 0.0000 0.0000 1069.7934 -9952.6274 181.9961 -11022.4208 -9951.7945 179.8013 535.4833 591.2451 28629.0657 2.5066 2.6968
TCL: Running 100000 steps at 210 kelvin.
TCL: Setting parameter langevinTemp to 210
TCL: Running for 100000 steps
ETITLE: TS BOND ANGLE DIHED IMPRP ELECT VDW BOUNDARY MISC KINETIC TOTAL TEMP POTENTIAL TOTAL3 TEMPAVG PRESSURE GPRESSURE VOLUME PRESSAVG GPRESSAVG
ENERGY: 600000 1.5427 6.3614 1.9777 0.0000 -13209.6003 2177.2977 0.0000 0.0000 1069.2653 -9953.1556 181.9063 -11022.4208 -9950.8905 181.9063 528.2946 588.7189 28629.0657 528.2946 588.7189
ENERGY: 700000 1.1410 8.1465 3.1830 0.0000 -12453.5544 1893.0595 0.0000 0.0000 1275.2739 -9272.7503 216.9530 -10548.0243 -9270.6656 209.9426 -86.4990 -12.6599 28721.9481 3.2510 3.2598
TCL: Running 100000 steps at 240 kelvin.
TCL: Setting parameter langevinTemp to 240
TCL: Running for 100000 steps
ETITLE: TS BOND ANGLE DIHED IMPRP ELECT VDW BOUNDARY MISC KINETIC TOTAL TEMP POTENTIAL TOTAL3 TEMPAVG PRESSURE GPRESSURE VOLUME PRESSAVG GPRESSAVG
ENERGY: 700000 1.1410 8.1465 3.1830 0.0000 -12453.5544 1893.0595 0.0000 0.0000 1274.6719 -9273.3523 216.8506 -10548.0243 -9271.1765 216.8506 -82.6662 -11.9983 28721.9481 -82.6662 -11.9983
ENERGY: 800000 1.4828 6.0743 2.9616 0.0000 -11824.0462 1719.5435 0.0000 0.0000 1422.7581 -8671.2260 242.0434 -10093.9840 -8668.3232 240.7385 -92.5768 -16.0185 29307.8777 3.4917 3.3708
TCL: Running 100000 steps at 270 kelvin.
TCL: Setting parameter langevinTemp to 270
TCL: Running for 100000 steps
ETITLE: TS BOND ANGLE DIHED IMPRP ELECT VDW BOUNDARY MISC KINETIC TOTAL TEMP POTENTIAL TOTAL3 TEMPAVG PRESSURE GPRESSURE VOLUME PRESSAVG GPRESSAVG
ENERGY: 800000 1.4828 6.0743 2.9616 0.0000 -11824.0462 1719.5435 0.0000 0.0000 1422.0403 -8671.9437 241.9213 -10093.9840 -8669.3202 241.9213 -85.5729 -15.1774 29307.8777 -85.5729 -15.1774
ENERGY: 900000 2.8139 7.3987 2.6874 0.0000 -11264.2768 1590.6179 0.0000 0.0000 1612.0943 -8048.6646 274.2538 -9660.7589 -8046.9085 270.4413 184.5082 324.7019 29554.3040 2.0073 1.9321
TCL: Running 1000000 steps at 300 kelvin.
TCL: Setting parameter langevinTemp to 300
TCL: Running for 1000000 steps
ETITLE: TS BOND ANGLE DIHED IMPRP ELECT VDW BOUNDARY MISC KINETIC TOTAL TEMP POTENTIAL TOTAL3 TEMPAVG PRESSURE GPRESSURE VOLUME PRESSAVG GPRESSAVG
ENERGY: 900000 2.8139 7.3987 2.6874 0.0000 -11264.2768 1590.6179 0.0000 0.0000 1611.3222 -8049.4367 274.1224 -9660.7589 -8047.6429 274.1224 236.4761 323.3551 29554.3040 236.4761 323.3551
ENERGY: 1100000 1.0634 11.2845 1.9410 0.0000 -10706.6804 1416.8254 0.0000 0.0000 1766.6373 -7508.9287 300.5451 -9275.5661 -7504.1491 300.0236 -84.5320 29.8610 30294.2005 2.6878 2.6907
ENERGY: 1300000 1.7689 7.8433 3.0971 0.0000 -10701.8328 1440.9994 0.0000 0.0000 1717.4295 -7530.6945 292.1737 -9248.1240 -7526.1082 300.1466 224.5027 302.3793 30292.0552 2.5527 2.6311
ENERGY: 1500000 1.1820 10.6758 2.6551 0.0000 -10667.5319 1346.5691 0.0000 0.0000 1789.8353 -7516.6146 304.4916 -9306.4499 -7512.9907 299.3373 -1016.8391 -892.7994 30534.1894 2.9327 2.9636
ENERGY: 1700000 2.3411 6.4572 2.3940 0.0000 -10479.1833 1319.0923 0.0000 0.0000 1739.4612 -7409.4375 295.9218 -9148.8987 -7406.6439 300.6501 -636.0788 -542.7909 30909.4758 3.7536 3.6084
ENERGY: 1900000 1.0365 11.2755 3.4581 0.0000 -10751.5133 1428.4364 0.0000 0.0000 1775.1466 -7532.1602 301.9927 -9307.3068 -7531.6765 300.4356 -268.7044 -141.2253 30444.1055 3.9968 3.9121
TCL: Exiting due to exit command.
