Info: SIMULATION PARAMETERS:
Info: TIMESTEP               2
Info: NUMBER OF STEPS        0
Info: STEPS PER CYCLE        10
Info: PERIODIC CELL BASIS 1  35.01 0 0
Info: PERIODIC CELL BASIS 2  0 34.26 0
Info: PERIODIC CELL BASIS 3  0 0 36.199
Info: PERIODIC CELL CENTER   0 0 0
Info: WRAPPING WATERS AROUND PERIODIC BOUNDARIES ON OUTPUT.
Info: WRAPPING ALL CLUSTERS AROUND PERIODIC BOUNDARIES ON OUTPUT.
Info: FIRST LDB TIMESTEP     50
Info: LAST LDB TIMESTEP     -1
Info: HOM BACKGROUND SCALING 1
Info: PME BACKGROUND SCALING 1
Info: MIN ATOMS PER PATCH    40
Info: EMPTY PATCH LOAD       40 ATOMS
Info: INITIAL TEMPERATURE    300
Info: CENTER OF MASS MOVING INITIALLY? NO
Info: DIELECTRIC             1
Info: EXCLUDE                SCALED ONE-FOUR
Info: 1-4 ELECTROSTATICS SCALED BY 0.833333
Info: MODIFIED 1-4 VDW PARAMETERS WILL BE USED
Info: DCD FILENAME           mobley_6727159_equil.dcd
Info: DCD FREQUENCY          100000
Info: DCD FIRST STEP         100000
Info: DCD FILE WILL CONTAIN UNIT CELL DATA
Info: XST FILENAME           mobley_6727159_equil.xst
Info: XST FREQUENCY          100000
Info: NO VELOCITY DCD OUTPUT
Info: NO FORCE DCD OUTPUT
Info: OUTPUT FILENAME        mobley_6727159_equil
Info: BINARY OUTPUT FILES WILL BE USED
Info: RESTART FILENAME       mobley_6727159_equil.restart
Info: RESTART FREQUENCY      100000
Info: BINARY RESTART FILES WILL BE USED
Info: CUTOFF                 9
Info: PAIRLIST DISTANCE      11
Info: PAIRLIST SHRINK RATE   0.01
Info: PAIRLIST GROW RATE     0.01
Info: PAIRLIST TRIGGER       0.3
Info: PAIRLISTS PER CYCLE    2
Info: PAIRLISTS ENABLED
Info: MARGIN                 8
Info: HYDROGEN GROUP CUTOFF  2.5
Info: PATCH DIMENSION        21.5
Info: ENERGY OUTPUT STEPS    100000
Info: ENERGY EVALUATION STEPS    100000
Info: OUTPUT ENERGY PRECISION 4
Info: CROSSTERM ENERGY INCLUDED IN DIHEDRAL
Info: TIMING OUTPUT STEPS    1000000
Info: PRESSURE OUTPUT STEPS  100000
Info: LANGEVIN DYNAMICS ACTIVE
Info: LANGEVIN TEMPERATURE   30
Info: LANGEVIN USING BBK INTEGRATOR
Info: LANGEVIN DAMPING COEFFICIENT IS 1 INVERSE PS
Info: LANGEVIN DYNAMICS APPLIED TO HYDROGENS
Info: LANGEVIN PISTON PRESSURE CONTROL ACTIVE
Info:        TARGET PRESSURE IS 1.01325 BAR
Info:     OSCILLATION PERIOD IS 50 FS
Info:             DECAY TIME IS 25 FS
Info:     PISTON TEMPERATURE IS 300 K
Info:       PRESSURE CONTROL IS GROUP-BASED
Info:    INITIAL STRAIN RATE IS 0 0 0
Info:       CELL FLUCTUATION IS ISOTROPIC
Info: PARTICLE MESH EWALD (PME) ACTIVE
Info: PME TOLERANCE               1e-06
Info: PME EWALD COEFFICIENT       0.348832
Info: PME INTERPOLATION ORDER     4
Info: PME GRID DIMENSIONS         36 36 40
Info: PME MAXIMUM GRID SPACING    1
Info: FULL ELECTROSTATIC EVALUATION FREQUENCY      2
Info: USING VERLET I (r-RESPA) MTS SCHEME.
Info: C1 SPLITTING OF LONG RANGE ELECTROSTATICS
Info: PLACING ATOMS IN PATCHES BY HYDROGEN GROUPS
Info: RIGID BONDS TO HYDROGEN : ALL
Info:         ERROR TOLERANCE : 1e-08
Info:          MAX ITERATIONS : 100
Info: RIGID WATER USING SETTLE ALGORITHM
Info: RANDOM NUMBER SEED     1743247171
Info: USE HYDROGEN BONDS?    NO
Info: Using AMBER format force field!
Info: AMBER PARM FILE        mobley_6727159.prmtop
Info: COORDINATE PDB         mobley_6727159.pdb
Info: Exclusions will be read from PARM file!
Info: SCNB (VDW SCALING)     2
Info: USING ARITHMETIC MEAN TO COMBINE L-J SIGMA PARAMETERS
Info: BINARY COORDINATES     mobley_6727159_min.coor
Info: SUMMARY OF PARAMETERS:
Info: 9 BONDS
Info: 10 ANGLES
Info:   10 HARMONIC
Info:   0 COSINE-BASED
Info: 9 DIHEDRAL
Info: 0 IMPROPER
Info: 0 CROSSTERM
Info: 0 VDW
Info: 36 VDW_PAIRS
Info: 0 NBTHOLE_PAIRS
Info: STRUCTURE SUMMARY:
Info: 2940 ATOMS
Info: 2939 BONDS
Info: 17 ANGLES
Info: 23 DIHEDRALS
Info: 0 IMPROPERS
Info: 0 CROSSTERMS
Info: 2973 EXCLUSIONS
Info: 2933 RIGID BONDS
Info: 5887 DEGREES OF FREEDOM
Info: 983 HYDROGEN GROUPS
Info: 3 ATOMS IN LARGEST HYDROGEN GROUP
Info: 983 MIGRATION GROUPS
Info: 3 ATOMS IN LARGEST MIGRATION GROUP
Info: TOTAL MASS = 17690.7 amu
Info: TOTAL CHARGE = 0.000100009 e
Info: MASS DENSITY = 0.676594 g/cm^3
Info: ATOM DENSITY = 0.0677129 atoms/A^3
Info: ADDED 0 IMPLICIT EXCLUSIONS
Info: NONBONDED TABLE R-SQUARED SPACING: 0.0625
Info: NONBONDED TABLE SIZE: 705 POINTS
Info: REMOVING COM VELOCITY 0.192596 -0.0541149 0.0581624
TCL: Running for 100000 steps
ETITLE: TS BOND ANGLE DIHED IMPRP ELECT VDW BOUNDARY MISC KINETIC TOTAL TEMP POTENTIAL TOTAL3 TEMPAVG PRESSURE GPRESSURE VOLUME PRESSAVG GPRESSAVG
ENERGY: 0 0.1278 0.8296 1.5706 0.0000 -13624.6815 2403.4882 0.0000 0.0000 1722.3668 -9496.2985 294.4571 -11218.6653 -9495.9419 294.4571 435.0462 466.3263 43418.6227 435.0462 466.3263
ENERGY: 100000 0.2985 1.2826 1.8916 0.0000 -14264.9554 2554.5910 0.0000 0.0000 178.0015 -11528.8901 30.4313 -11706.8916 -11528.5107 30.8866 858.6265 909.0784 28411.9544 2.8576 2.8788
TCL: Running 100000 steps at 60 kelvin.
TCL: Setting parameter langevinTemp to 60
TCL: Running for 100000 steps
ETITLE: TS BOND ANGLE DIHED IMPRP ELECT VDW BOUNDARY MISC KINETIC TOTAL TEMP POTENTIAL TOTAL3 TEMPAVG PRESSURE GPRESSURE VOLUME PRESSAVG GPRESSAVG
ENERGY: 100000 0.2985 1.2826 1.8916 0.0000 -14264.9554 2554.5910 0.0000 0.0000 177.9135 -11528.9782 30.4162 -11706.8916 -11528.6024 30.4162 842.0940 908.9236 28411.9544 842.0940 908.9236
ENERGY: 200000 0.4357 1.2781 1.7245 0.0000 -14094.5412 2428.2956 0.0000 0.0000 357.1394 -11305.6678 61.0568 -11662.8073 -11304.8065 59.8508 112.1051 133.8189 28381.8974 3.9167 3.9810
TCL: Running 100000 steps at 90 kelvin.
TCL: Setting parameter langevinTemp to 90
TCL: Running for 100000 steps
ETITLE: TS BOND ANGLE DIHED IMPRP ELECT VDW BOUNDARY MISC KINETIC TOTAL TEMP POTENTIAL TOTAL3 TEMPAVG PRESSURE GPRESSURE VOLUME PRESSAVG GPRESSAVG
ENERGY: 200000 0.4357 1.2781 1.7245 0.0000 -14094.5412 2428.2956 0.0000 0.0000 356.9545 -11305.8528 61.0252 -11662.8073 -11305.1723 61.0252 83.8539 133.7803 28381.8974 83.8539 133.7803
ENERGY: 300000 1.2341 2.2037 1.4331 0.0000 -13945.1707 2370.9386 0.0000 0.0000 518.8353 -11050.5259 88.7005 -11569.3612 -11049.4007 90.0918 -121.8385 -78.5451 28366.2365 3.5889 3.5150
TCL: Running 100000 steps at 120 kelvin.
TCL: Setting parameter langevinTemp to 120
TCL: Running for 100000 steps
ETITLE: TS BOND ANGLE DIHED IMPRP ELECT VDW BOUNDARY MISC KINETIC TOTAL TEMP POTENTIAL TOTAL3 TEMPAVG PRESSURE GPRESSURE VOLUME PRESSAVG GPRESSAVG
ENERGY: 300000 1.2341 2.2037 1.4331 0.0000 -13945.1707 2370.9386 0.0000 0.0000 518.5641 -11050.7972 88.6541 -11569.3612 -11049.8041 88.6541 -118.9165 -79.0905 28366.2365 -118.9165 -79.0905
ENERGY: 400000 0.3610 2.0757 1.4111 0.0000 -13673.9922 2233.9353 0.0000 0.0000 711.3573 -10724.8518 121.6142 -11436.2091 -10722.9545 120.1339 -732.5748 -667.2343 28569.7825 3.4642 3.6844
TCL: Running 100000 steps at 150 kelvin.
TCL: Setting parameter langevinTemp to 150
TCL: Running for 100000 steps
ETITLE: TS BOND ANGLE DIHED IMPRP ELECT VDW BOUNDARY MISC KINETIC TOTAL TEMP POTENTIAL TOTAL3 TEMPAVG PRESSURE GPRESSURE VOLUME PRESSAVG GPRESSAVG
ENERGY: 400000 0.3610 2.0757 1.4111 0.0000 -13673.9922 2233.9353 0.0000 0.0000 711.0235 -10725.1856 121.5571 -11436.2091 -10723.7116 121.5571 -720.3428 -668.0884 28569.7825 -720.3428 -668.0884
ENERGY: 500000 0.7025 4.4359 2.2903 0.0000 -13398.0353 2135.4600 0.0000 0.0000 866.7235 -10388.4231 148.1757 -11255.1466 -10386.5742 149.8715 -837.9317 -817.8634 28559.5277 5.1236 4.9526
TCL: Running 100000 steps at 180 kelvin.
TCL: Setting parameter langevinTemp to 180
TCL: Running for 100000 steps
ETITLE: TS BOND ANGLE DIHED IMPRP ELECT VDW BOUNDARY MISC KINETIC TOTAL TEMP POTENTIAL TOTAL3 TEMPAVG PRESSURE GPRESSURE VOLUME PRESSAVG GPRESSAVG
ENERGY: 500000 0.7025 4.4359 2.2903 0.0000 -13398.0353 2135.4600 0.0000 0.0000 866.2809 -10388.8657 148.1000 -11255.1466 -10386.6734 148.1000 -870.2796 -818.8694 28559.5277 -870.2796 -818.8694
ENERGY: 600000 0.6481 3.2635 2.6867 0.0000 -13176.8090 2208.1609 0.0000 0.0000 1056.9908 -9905.0591 180.7039 -10962.0499 -9902.2211 179.9261 803.7903 859.4676 28677.5237 3.9145 3.8746
TCL: Running 100000 steps at 210 kelvin.
TCL: Setting parameter langevinTemp to 210
TCL: Running for 100000 steps
ETITLE: TS BOND ANGLE DIHED IMPRP ELECT VDW BOUNDARY MISC KINETIC TOTAL TEMP POTENTIAL TOTAL3 TEMPAVG PRESSURE GPRESSURE VOLUME PRESSAVG GPRESSAVG
ENERGY: 600000 0.6481 3.2635 2.6867 0.0000 -13176.8090 2208.1609 0.0000 0.0000 1056.4730 -9905.5769 180.6154 -10962.0499 -9903.6466 180.6154 798.9132 860.1743 28677.5237 798.9132 860.1743
ENERGY: 700000 1.1326 4.6023 2.0630 0.0000 -12446.5932 1949.9523 0.0000 0.0000 1249.5180 -9239.3250 213.6185 -10488.8430 -9236.0817 209.5918 595.5838 711.7634 28398.8820 4.9886 5.0056
TCL: Running 100000 steps at 240 kelvin.
TCL: Setting parameter langevinTemp to 240
TCL: Running for 100000 steps
ETITLE: TS BOND ANGLE DIHED IMPRP ELECT VDW BOUNDARY MISC KINETIC TOTAL TEMP POTENTIAL TOTAL3 TEMPAVG PRESSURE GPRESSURE VOLUME PRESSAVG GPRESSAVG
ENERGY: 700000 1.1326 4.6023 2.0630 0.0000 -12446.5932 1949.9523 0.0000 0.0000 1248.8930 -9239.9500 213.5117 -10488.8430 -9237.7123 213.5117 623.0393 713.4467 28398.8820 623.0393 713.4467
ENERGY: 800000 0.1669 4.8188 2.5354 0.0000 -11706.5197 1725.7390 0.0000 0.0000 1407.3675 -8565.8922 240.6046 -9973.2596 -8562.8237 240.0259 158.9802 265.1170 29030.8199 3.8730 3.8720
TCL: Running 100000 steps at 270 kelvin.
TCL: Setting parameter langevinTemp to 270
TCL: Running for 100000 steps
ETITLE: TS BOND ANGLE DIHED IMPRP ELECT VDW BOUNDARY MISC KINETIC TOTAL TEMP POTENTIAL TOTAL3 TEMPAVG PRESSURE GPRESSURE VOLUME PRESSAVG GPRESSAVG
ENERGY: 800000 0.1669 4.8188 2.5354 0.0000 -11706.5197 1725.7390 0.0000 0.0000 1406.6552 -8566.6044 240.4828 -9973.2596 -8563.8261 240.4828 188.3797 263.7534 29030.8199 188.3797 263.7534
ENERGY: 900000 1.6307 7.2968 1.3775 0.0000 -11215.4715 1567.7319 0.0000 0.0000 1507.4122 -8130.0225 257.7083 -9637.4347 -8126.2063 270.2378 -214.0540 -69.2367 29734.8770 4.1916 4.2935
TCL: Running 1000000 steps at 300 kelvin.
TCL: Setting parameter langevinTemp to 300
TCL: Running for 1000000 steps
ETITLE: TS BOND ANGLE DIHED IMPRP ELECT VDW BOUNDARY MISC KINETIC TOTAL TEMP POTENTIAL TOTAL3 TEMPAVG PRESSURE GPRESSURE VOLUME PRESSAVG GPRESSAVG
ENERGY: 900000 1.6307 7.2968 1.3775 0.0000 -11215.4715 1567.7319 0.0000 0.0000 1506.6180 -8130.8167 257.5725 -9637.4347 -8128.7089 257.5725 -149.0708 -69.0786 29734.8770 -149.0708 -69.0786
ENERGY: 1100000 3.1014 3.7011 3.3887 0.0000 -10617.6756 1389.3505 0.0000 0.0000 1767.3494 -7450.7845 302.1473 -9218.1339 -7446.8249 300.7589 -221.7504 -171.3324 30164.7699 1.6734 1.8688
ENERGY: 1300000 3.1208 3.8314 3.4191 0.0000 -10631.7712 1392.4071 0.0000 0.0000 1734.8606 -7494.1322 296.5930 -9228.9928 -7488.3810 300.2732 -527.8030 -404.4305 30302.8739 2.6170 2.5376
ENERGY: 1500000 1.5549 7.0544 1.6380 0.0000 -10780.8090 1462.5656 0.0000 0.0000 1798.3093 -7509.6868 307.4403 -9307.9961 -7505.0348 300.3423 -165.1153 -52.6138 30485.4617 3.4457 3.2616
ENERGY: 1700000 1.5691 3.1472 2.4157 0.0000 -10646.5185 1450.2427 0.0000 0.0000 1770.1140 -7419.0298 302.6200 -9189.1438 -7414.5088 300.0353 211.8351 313.8181 30384.2682 3.5694 3.5130
ENERGY: 1900000 2.7248 4.6408 3.2186 0.0000 -10753.8397 1417.9100 0.0000 0.0000 1744.7609 -7580.5846 298.2856 -9325.3456 -7577.0319 299.6814 -321.7423 -245.1399 29871.5578 4.6522 4.7707
TCL: Exiting due to exit command.
