Info: SIMULATION PARAMETERS:
Info: TIMESTEP               2
Info: NUMBER OF STEPS        0
Info: STEPS PER CYCLE        10
Info: PERIODIC CELL BASIS 1  35.89 0 0
Info: PERIODIC CELL BASIS 2  0 35.847 0
Info: PERIODIC CELL BASIS 3  0 0 34.954
Info: PERIODIC CELL CENTER   0 0 0
Info: WRAPPING WATERS AROUND PERIODIC BOUNDARIES ON OUTPUT.
Info: WRAPPING ALL CLUSTERS AROUND PERIODIC BOUNDARIES ON OUTPUT.
Info: FIRST LDB TIMESTEP     50
Info: LAST LDB TIMESTEP     -1
Info: HOM BACKGROUND SCALING 1
Info: PME BACKGROUND SCALING 1
Info: MIN ATOMS PER PATCH    40
Info: EMPTY PATCH LOAD       40 ATOMS
Info: INITIAL TEMPERATURE    300
Info: CENTER OF MASS MOVING INITIALLY? NO
Info: DIELECTRIC             1
Info: EXCLUDE                SCALED ONE-FOUR
Info: 1-4 ELECTROSTATICS SCALED BY 0.833333
Info: MODIFIED 1-4 VDW PARAMETERS WILL BE USED
Info: DCD FILENAME           mobley_6571751_equil.dcd
Info: DCD FREQUENCY          100000
Info: DCD FIRST STEP         100000
Info: DCD FILE WILL CONTAIN UNIT CELL DATA
Info: XST FILENAME           mobley_6571751_equil.xst
Info: XST FREQUENCY          100000
Info: NO VELOCITY DCD OUTPUT
Info: NO FORCE DCD OUTPUT
Info: OUTPUT FILENAME        mobley_6571751_equil
Info: BINARY OUTPUT FILES WILL BE USED
Info: RESTART FILENAME       mobley_6571751_equil.restart
Info: RESTART FREQUENCY      100000
Info: BINARY RESTART FILES WILL BE USED
Info: CUTOFF                 9
Info: PAIRLIST DISTANCE      11
Info: PAIRLIST SHRINK RATE   0.01
Info: PAIRLIST GROW RATE     0.01
Info: PAIRLIST TRIGGER       0.3
Info: PAIRLISTS PER CYCLE    2
Info: PAIRLISTS ENABLED
Info: MARGIN                 8
Info: HYDROGEN GROUP CUTOFF  2.5
Info: PATCH DIMENSION        21.5
Info: ENERGY OUTPUT STEPS    100000
Info: ENERGY EVALUATION STEPS    100000
Info: OUTPUT ENERGY PRECISION 4
Info: CROSSTERM ENERGY INCLUDED IN DIHEDRAL
Info: TIMING OUTPUT STEPS    1000000
Info: PRESSURE OUTPUT STEPS  100000
Info: LANGEVIN DYNAMICS ACTIVE
Info: LANGEVIN TEMPERATURE   30
Info: LANGEVIN USING BBK INTEGRATOR
Info: LANGEVIN DAMPING COEFFICIENT IS 1 INVERSE PS
Info: LANGEVIN DYNAMICS APPLIED TO HYDROGENS
Info: LANGEVIN PISTON PRESSURE CONTROL ACTIVE
Info:        TARGET PRESSURE IS 1.01325 BAR
Info:     OSCILLATION PERIOD IS 50 FS
Info:             DECAY TIME IS 25 FS
Info:     PISTON TEMPERATURE IS 300 K
Info:       PRESSURE CONTROL IS GROUP-BASED
Info:    INITIAL STRAIN RATE IS 0 0 0
Info:       CELL FLUCTUATION IS ISOTROPIC
Info: PARTICLE MESH EWALD (PME) ACTIVE
Info: PME TOLERANCE               1e-06
Info: PME EWALD COEFFICIENT       0.348832
Info: PME INTERPOLATION ORDER     4
Info: PME GRID DIMENSIONS         36 36 36
Info: PME MAXIMUM GRID SPACING    1
Info: FULL ELECTROSTATIC EVALUATION FREQUENCY      2
Info: USING VERLET I (r-RESPA) MTS SCHEME.
Info: C1 SPLITTING OF LONG RANGE ELECTROSTATICS
Info: PLACING ATOMS IN PATCHES BY HYDROGEN GROUPS
Info: RIGID BONDS TO HYDROGEN : ALL
Info:         ERROR TOLERANCE : 1e-08
Info:          MAX ITERATIONS : 100
Info: RIGID WATER USING SETTLE ALGORITHM
Info: RANDOM NUMBER SEED     1743217217
Info: USE HYDROGEN BONDS?    NO
Info: Using AMBER format force field!
Info: AMBER PARM FILE        mobley_6571751.prmtop
Info: COORDINATE PDB         mobley_6571751.pdb
Info: Exclusions will be read from PARM file!
Info: SCNB (VDW SCALING)     2
Info: USING ARITHMETIC MEAN TO COMBINE L-J SIGMA PARAMETERS
Info: BINARY COORDINATES     mobley_6571751_min.coor
Info: SUMMARY OF PARAMETERS:
Info: 7 BONDS
Info: 9 ANGLES
Info:   9 HARMONIC
Info:   0 COSINE-BASED
Info: 12 DIHEDRAL
Info: 0 IMPROPER
Info: 0 CROSSTERM
Info: 0 VDW
Info: 21 VDW_PAIRS
Info: 0 NBTHOLE_PAIRS
Info: STRUCTURE SUMMARY:
Info: 2953 ATOMS
Info: 2953 BONDS
Info: 36 ANGLES
Info: 69 DIHEDRALS
Info: 0 IMPROPERS
Info: 0 CROSSTERMS
Info: 3035 EXCLUSIONS
Info: 2946 RIGID BONDS
Info: 5913 DEGREES OF FREEDOM
Info: 985 HYDROGEN GROUPS
Info: 4 ATOMS IN LARGEST HYDROGEN GROUP
Info: 985 MIGRATION GROUPS
Info: 4 ATOMS IN LARGEST MIGRATION GROUP
Info: TOTAL MASS = 17715.8 amu
Info: TOTAL CHARGE = -0.000200026 e
Info: MASS DENSITY = 0.65418 g/cm^3
Info: ATOM DENSITY = 0.065666 atoms/A^3
Info: ADDED 0 IMPLICIT EXCLUSIONS
Info: NONBONDED TABLE R-SQUARED SPACING: 0.0625
Info: NONBONDED TABLE SIZE: 705 POINTS
Info: REMOVING COM VELOCITY -0.102227 0.0642115 -0.0347741
TCL: Running for 100000 steps
ETITLE: TS BOND ANGLE DIHED IMPRP ELECT VDW BOUNDARY MISC KINETIC TOTAL TEMP POTENTIAL TOTAL3 TEMPAVG PRESSURE GPRESSURE VOLUME PRESSAVG GPRESSAVG
ENERGY: 0 0.1391 0.3161 11.2754 0.0000 -13623.8633 2421.3592 0.0000 0.0000 1752.9800 -9437.7936 298.3730 -11190.7736 -9437.4533 298.3730 554.7021 592.6079 44970.0278 554.7021 592.6079
ENERGY: 100000 0.4446 1.1074 11.5027 0.0000 -14153.4471 2429.2918 0.0000 0.0000 176.0226 -11535.0780 29.9606 -11711.1006 -11534.6590 30.9180 -300.8870 -246.4064 29004.4943 3.5455 3.4940
TCL: Running 100000 steps at 60 kelvin.
TCL: Setting parameter langevinTemp to 60
TCL: Running for 100000 steps
ETITLE: TS BOND ANGLE DIHED IMPRP ELECT VDW BOUNDARY MISC KINETIC TOTAL TEMP POTENTIAL TOTAL3 TEMPAVG PRESSURE GPRESSURE VOLUME PRESSAVG GPRESSAVG
ENERGY: 100000 0.4446 1.1074 11.5027 0.0000 -14153.4471 2429.2918 0.0000 0.0000 175.9373 -11535.1633 29.9461 -11711.1006 -11534.8249 29.9461 -299.1988 -246.4361 29004.4943 -299.1988 -246.4361
ENERGY: 200000 0.4857 1.1651 11.4552 0.0000 -14107.0168 2420.4628 0.0000 0.0000 354.8068 -11318.6411 60.3913 -11673.4479 -11318.2395 59.9111 -263.7137 -165.0470 28709.9818 4.7848 4.7698
TCL: Running 100000 steps at 90 kelvin.
TCL: Setting parameter langevinTemp to 90
TCL: Running for 100000 steps
ETITLE: TS BOND ANGLE DIHED IMPRP ELECT VDW BOUNDARY MISC KINETIC TOTAL TEMP POTENTIAL TOTAL3 TEMPAVG PRESSURE GPRESSURE VOLUME PRESSAVG GPRESSAVG
ENERGY: 200000 0.4857 1.1651 11.4552 0.0000 -14107.0168 2420.4628 0.0000 0.0000 354.6395 -11318.8084 60.3628 -11673.4480 -11318.0334 60.3628 -223.0693 -165.2511 28709.9818 -223.0693 -165.2511
ENERGY: 300000 0.6313 3.3001 11.9457 0.0000 -13923.6735 2323.6461 0.0000 0.0000 508.2035 -11075.9468 86.5008 -11584.1503 -11075.0463 89.9323 -509.3576 -447.1395 28438.3789 5.1939 5.2200
TCL: Running 100000 steps at 120 kelvin.
TCL: Setting parameter langevinTemp to 120
TCL: Running for 100000 steps
ETITLE: TS BOND ANGLE DIHED IMPRP ELECT VDW BOUNDARY MISC KINETIC TOTAL TEMP POTENTIAL TOTAL3 TEMPAVG PRESSURE GPRESSURE VOLUME PRESSAVG GPRESSAVG
ENERGY: 300000 0.6313 3.3001 11.9457 0.0000 -13923.6735 2323.6461 0.0000 0.0000 507.9484 -11076.2019 86.4574 -11584.1503 -11075.1044 86.4574 -505.9965 -447.0862 28438.3789 -505.9965 -447.0862
ENERGY: 400000 0.6552 4.8031 11.8166 0.0000 -13787.5995 2367.0976 0.0000 0.0000 700.2998 -10702.9271 119.1973 -11403.2270 -10701.2618 120.0873 483.8531 553.3011 28592.5113 2.7923 2.7950
TCL: Running 100000 steps at 150 kelvin.
TCL: Setting parameter langevinTemp to 150
TCL: Running for 100000 steps
ETITLE: TS BOND ANGLE DIHED IMPRP ELECT VDW BOUNDARY MISC KINETIC TOTAL TEMP POTENTIAL TOTAL3 TEMPAVG PRESSURE GPRESSURE VOLUME PRESSAVG GPRESSAVG
ENERGY: 400000 0.6552 4.8031 11.8166 0.0000 -13787.5995 2367.0976 0.0000 0.0000 699.9531 -10703.2738 119.1383 -11403.2270 -10701.7674 119.1383 506.0139 552.0841 28592.5113 506.0139 552.0841
ENERGY: 500000 0.3693 7.9521 11.4338 0.0000 -13591.7927 2312.7108 0.0000 0.0000 900.1454 -10359.1814 153.2128 -11259.3268 -10358.0584 149.8352 537.7661 597.7375 28821.4113 3.3319 3.2560
TCL: Running 100000 steps at 180 kelvin.
TCL: Setting parameter langevinTemp to 180
TCL: Running for 100000 steps
ETITLE: TS BOND ANGLE DIHED IMPRP ELECT VDW BOUNDARY MISC KINETIC TOTAL TEMP POTENTIAL TOTAL3 TEMPAVG PRESSURE GPRESSURE VOLUME PRESSAVG GPRESSAVG
ENERGY: 500000 0.3693 7.9521 11.4338 0.0000 -13591.7927 2312.7108 0.0000 0.0000 899.7024 -10359.6244 153.1374 -11259.3268 -10358.0461 153.1374 547.3871 596.6217 28821.4113 547.3871 596.6217
ENERGY: 600000 1.1768 6.2797 11.7877 0.0000 -13055.9934 2059.7293 0.0000 0.0000 1035.3499 -9941.6700 176.2259 -10977.0199 -9937.7242 180.1346 -704.9371 -620.0591 28994.7196 4.5316 4.5347
TCL: Running 100000 steps at 210 kelvin.
TCL: Setting parameter langevinTemp to 210
TCL: Running for 100000 steps
ETITLE: TS BOND ANGLE DIHED IMPRP ELECT VDW BOUNDARY MISC KINETIC TOTAL TEMP POTENTIAL TOTAL3 TEMPAVG PRESSURE GPRESSURE VOLUME PRESSAVG GPRESSAVG
ENERGY: 600000 1.1768 6.2797 11.7877 0.0000 -13055.9934 2059.7293 0.0000 0.0000 1034.8203 -9942.1996 176.1357 -10977.0199 -9940.1084 176.1357 -685.3593 -618.3073 28994.7196 -685.3593 -618.3073
ENERGY: 700000 1.1910 7.2505 11.6541 0.0000 -12324.7662 1841.7428 0.0000 0.0000 1203.6420 -9259.2858 204.8707 -10462.9278 -9256.7262 209.9169 -358.9903 -267.9046 28688.6028 4.6317 4.5533
TCL: Running 100000 steps at 240 kelvin.
TCL: Setting parameter langevinTemp to 240
TCL: Running for 100000 steps
ETITLE: TS BOND ANGLE DIHED IMPRP ELECT VDW BOUNDARY MISC KINETIC TOTAL TEMP POTENTIAL TOTAL3 TEMPAVG PRESSURE GPRESSURE VOLUME PRESSAVG GPRESSAVG
ENERGY: 700000 1.1910 7.2505 11.6541 0.0000 -12324.7662 1841.7428 0.0000 0.0000 1203.0346 -9259.8932 204.7673 -10462.9278 -9258.0335 204.7673 -358.0789 -267.8668 28688.6028 -358.0789 -267.8668
ENERGY: 800000 0.9160 4.7019 11.6336 0.0000 -11635.0667 1635.9618 0.0000 0.0000 1405.5365 -8576.3169 239.2350 -9981.8534 -8574.2104 240.0604 -548.0041 -442.9101 29220.4715 2.5077 2.4211
TCL: Running 100000 steps at 270 kelvin.
TCL: Setting parameter langevinTemp to 270
TCL: Running for 100000 steps
ETITLE: TS BOND ANGLE DIHED IMPRP ELECT VDW BOUNDARY MISC KINETIC TOTAL TEMP POTENTIAL TOTAL3 TEMPAVG PRESSURE GPRESSURE VOLUME PRESSAVG GPRESSAVG
ENERGY: 800000 0.9160 4.7019 11.6336 0.0000 -11635.0667 1635.9618 0.0000 0.0000 1404.8516 -8577.0018 239.1184 -9981.8534 -8574.2238 239.1184 -534.6100 -445.3387 29220.4715 -534.6100 -445.3387
ENERGY: 900000 2.6935 5.0291 12.0995 0.0000 -11190.9334 1504.0179 0.0000 0.0000 1599.4285 -8067.6648 272.2371 -9667.0933 -8063.9804 269.8940 -781.0848 -682.8918 29904.1385 2.9444 2.9825
TCL: Running 1000000 steps at 300 kelvin.
TCL: Setting parameter langevinTemp to 300
TCL: Running for 1000000 steps
ETITLE: TS BOND ANGLE DIHED IMPRP ELECT VDW BOUNDARY MISC KINETIC TOTAL TEMP POTENTIAL TOTAL3 TEMPAVG PRESSURE GPRESSURE VOLUME PRESSAVG GPRESSAVG
ENERGY: 900000 2.6935 5.0291 12.0995 0.0000 -11190.9334 1504.0179 0.0000 0.0000 1598.6360 -8068.4573 272.1022 -9667.0933 -8065.8148 272.1022 -763.7225 -681.1034 29904.1385 -763.7225 -681.1034
ENERGY: 1100000 1.3202 11.4134 13.1461 0.0000 -10731.4518 1468.8971 0.0000 0.0000 1733.2747 -7503.4005 295.0189 -9236.6751 -7501.4949 299.7469 216.0468 380.4598 30422.2474 2.7939 3.0610
ENERGY: 1300000 2.4518 6.2574 11.9414 0.0000 -10729.4160 1478.2165 0.0000 0.0000 1777.6093 -7452.9396 302.5651 -9230.5489 -7449.6234 299.8315 117.9594 293.0879 30510.9728 3.0602 2.9555
ENERGY: 1500000 1.1006 13.1647 14.5727 0.0000 -10728.8929 1479.8416 0.0000 0.0000 1786.5740 -7433.6393 304.0910 -9220.2133 -7428.7471 299.5813 359.5370 445.3433 30285.2205 3.9559 3.9878
ENERGY: 1700000 1.2966 5.6499 11.3692 0.0000 -10757.7977 1468.3640 0.0000 0.0000 1773.7448 -7497.3732 301.9073 -9271.1180 -7493.5368 300.4344 -56.1181 15.9608 30753.9465 3.0870 3.0963
ENERGY: 1900000 3.3775 5.7025 13.0174 0.0000 -10655.6247 1411.0284 0.0000 0.0000 1730.2122 -7492.2867 294.4977 -9222.4989 -7489.5900 300.5829 135.0629 217.8753 29951.8012 3.0816 2.9291
TCL: Exiting due to exit command.
