Info: SIMULATION PARAMETERS:
Info: TIMESTEP               2
Info: NUMBER OF STEPS        0
Info: STEPS PER CYCLE        10
Info: PERIODIC CELL BASIS 1  36.281 0 0
Info: PERIODIC CELL BASIS 2  0 34.26 0
Info: PERIODIC CELL BASIS 3  0 0 35.856
Info: PERIODIC CELL CENTER   0 0 0
Info: WRAPPING WATERS AROUND PERIODIC BOUNDARIES ON OUTPUT.
Info: WRAPPING ALL CLUSTERS AROUND PERIODIC BOUNDARIES ON OUTPUT.
Info: FIRST LDB TIMESTEP     50
Info: LAST LDB TIMESTEP     -1
Info: HOM BACKGROUND SCALING 1
Info: PME BACKGROUND SCALING 1
Info: MIN ATOMS PER PATCH    40
Info: EMPTY PATCH LOAD       40 ATOMS
Info: INITIAL TEMPERATURE    300
Info: CENTER OF MASS MOVING INITIALLY? NO
Info: DIELECTRIC             1
Info: EXCLUDE                SCALED ONE-FOUR
Info: 1-4 ELECTROSTATICS SCALED BY 0.833333
Info: MODIFIED 1-4 VDW PARAMETERS WILL BE USED
Info: DCD FILENAME           mobley_6257907_equil.dcd
Info: DCD FREQUENCY          100000
Info: DCD FIRST STEP         100000
Info: DCD FILE WILL CONTAIN UNIT CELL DATA
Info: XST FILENAME           mobley_6257907_equil.xst
Info: XST FREQUENCY          100000
Info: NO VELOCITY DCD OUTPUT
Info: NO FORCE DCD OUTPUT
Info: OUTPUT FILENAME        mobley_6257907_equil
Info: BINARY OUTPUT FILES WILL BE USED
Info: RESTART FILENAME       mobley_6257907_equil.restart
Info: RESTART FREQUENCY      100000
Info: BINARY RESTART FILES WILL BE USED
Info: CUTOFF                 9
Info: PAIRLIST DISTANCE      11
Info: PAIRLIST SHRINK RATE   0.01
Info: PAIRLIST GROW RATE     0.01
Info: PAIRLIST TRIGGER       0.3
Info: PAIRLISTS PER CYCLE    2
Info: PAIRLISTS ENABLED
Info: MARGIN                 8
Info: HYDROGEN GROUP CUTOFF  2.5
Info: PATCH DIMENSION        21.5
Info: ENERGY OUTPUT STEPS    100000
Info: ENERGY EVALUATION STEPS    100000
Info: OUTPUT ENERGY PRECISION 4
Info: CROSSTERM ENERGY INCLUDED IN DIHEDRAL
Info: TIMING OUTPUT STEPS    1000000
Info: PRESSURE OUTPUT STEPS  100000
Info: LANGEVIN DYNAMICS ACTIVE
Info: LANGEVIN TEMPERATURE   30
Info: LANGEVIN USING BBK INTEGRATOR
Info: LANGEVIN DAMPING COEFFICIENT IS 1 INVERSE PS
Info: LANGEVIN DYNAMICS APPLIED TO HYDROGENS
Info: LANGEVIN PISTON PRESSURE CONTROL ACTIVE
Info:        TARGET PRESSURE IS 1.01325 BAR
Info:     OSCILLATION PERIOD IS 50 FS
Info:             DECAY TIME IS 25 FS
Info:     PISTON TEMPERATURE IS 300 K
Info:       PRESSURE CONTROL IS GROUP-BASED
Info:    INITIAL STRAIN RATE IS 0 0 0
Info:       CELL FLUCTUATION IS ISOTROPIC
Info: PARTICLE MESH EWALD (PME) ACTIVE
Info: PME TOLERANCE               1e-06
Info: PME EWALD COEFFICIENT       0.348832
Info: PME INTERPOLATION ORDER     4
Info: PME GRID DIMENSIONS         40 36 36
Info: PME MAXIMUM GRID SPACING    1
Info: FULL ELECTROSTATIC EVALUATION FREQUENCY      2
Info: USING VERLET I (r-RESPA) MTS SCHEME.
Info: C1 SPLITTING OF LONG RANGE ELECTROSTATICS
Info: PLACING ATOMS IN PATCHES BY HYDROGEN GROUPS
Info: RIGID BONDS TO HYDROGEN : ALL
Info:         ERROR TOLERANCE : 1e-08
Info:          MAX ITERATIONS : 100
Info: RIGID WATER USING SETTLE ALGORITHM
Info: RANDOM NUMBER SEED     1743210749
Info: USE HYDROGEN BONDS?    NO
Info: Using AMBER format force field!
Info: AMBER PARM FILE        mobley_6257907.prmtop
Info: COORDINATE PDB         mobley_6257907.pdb
Info: Exclusions will be read from PARM file!
Info: SCNB (VDW SCALING)     2
Info: USING ARITHMETIC MEAN TO COMBINE L-J SIGMA PARAMETERS
Info: BINARY COORDINATES     mobley_6257907_min.coor
Info: SUMMARY OF PARAMETERS:
Info: 7 BONDS
Info: 6 ANGLES
Info:   6 HARMONIC
Info:   0 COSINE-BASED
Info: 3 DIHEDRAL
Info: 0 IMPROPER
Info: 0 CROSSTERM
Info: 0 VDW
Info: 28 VDW_PAIRS
Info: 0 NBTHOLE_PAIRS
Info: STRUCTURE SUMMARY:
Info: 2927 ATOMS
Info: 2927 BONDS
Info: 21 ANGLES
Info: 35 DIHEDRALS
Info: 0 IMPROPERS
Info: 0 CROSSTERMS
Info: 2973 EXCLUSIONS
Info: 2919 RIGID BONDS
Info: 5862 DEGREES OF FREEDOM
Info: 979 HYDROGEN GROUPS
Info: 3 ATOMS IN LARGEST HYDROGEN GROUP
Info: 979 MIGRATION GROUPS
Info: 3 ATOMS IN LARGEST MIGRATION GROUP
Info: TOTAL MASS = 17621.1 amu
Info: TOTAL CHARGE = 0.000200048 e
Info: MASS DENSITY = 0.656544 g/cm^3
Info: ATOM DENSITY = 0.0656741 atoms/A^3
Info: ADDED 0 IMPLICIT EXCLUSIONS
Info: NONBONDED TABLE R-SQUARED SPACING: 0.0625
Info: NONBONDED TABLE SIZE: 705 POINTS
Info: REMOVING COM VELOCITY -0.0739252 0.0603878 0.124816
TCL: Running for 100000 steps
ETITLE: TS BOND ANGLE DIHED IMPRP ELECT VDW BOUNDARY MISC KINETIC TOTAL TEMP POTENTIAL TOTAL3 TEMPAVG PRESSURE GPRESSURE VOLUME PRESSAVG GPRESSAVG
ENERGY: 0 0.1150 0.1640 1.9527 0.0000 -13520.7536 2387.9406 0.0000 0.0000 1789.4012 -9341.1801 307.2220 -11130.5813 -9340.8150 307.2220 592.4479 627.6621 44568.5440 592.4479 627.6621
ENERGY: 100000 0.1870 0.7713 1.0483 0.0000 -14057.4371 2429.2142 0.0000 0.0000 173.4697 -11452.7466 29.7830 -11626.2163 -11452.5114 31.0232 -291.8888 -237.0982 29390.4851 4.7621 4.8046
TCL: Running 100000 steps at 60 kelvin.
TCL: Setting parameter langevinTemp to 60
TCL: Running for 100000 steps
ETITLE: TS BOND ANGLE DIHED IMPRP ELECT VDW BOUNDARY MISC KINETIC TOTAL TEMP POTENTIAL TOTAL3 TEMPAVG PRESSURE GPRESSURE VOLUME PRESSAVG GPRESSAVG
ENERGY: 100000 0.1870 0.7713 1.0483 0.0000 -14057.4371 2429.2142 0.0000 0.0000 173.3869 -11452.8294 29.7688 -11626.2163 -11452.4516 29.7688 -286.8657 -237.3024 29390.4851 -286.8657 -237.3024
ENERGY: 200000 0.3444 0.7912 0.8668 0.0000 -14029.1256 2475.3913 0.0000 0.0000 337.7040 -11214.0279 57.9803 -11551.7319 -11213.4649 60.0252 807.8646 813.2139 28558.8747 2.7743 2.9277
TCL: Running 100000 steps at 90 kelvin.
TCL: Setting parameter langevinTemp to 90
TCL: Running for 100000 steps
ETITLE: TS BOND ANGLE DIHED IMPRP ELECT VDW BOUNDARY MISC KINETIC TOTAL TEMP POTENTIAL TOTAL3 TEMPAVG PRESSURE GPRESSURE VOLUME PRESSAVG GPRESSAVG
ENERGY: 200000 0.3444 0.7912 0.8668 0.0000 -14029.1256 2475.3913 0.0000 0.0000 337.5335 -11214.1984 57.9511 -11551.7319 -11213.5824 57.9511 770.9915 813.0101 28558.8747 770.9915 813.0101
ENERGY: 300000 0.6394 1.3557 1.8144 0.0000 -13848.1082 2342.3968 0.0000 0.0000 518.5309 -10983.3710 89.0265 -11501.9019 -10981.7890 89.9017 -277.3137 -211.2009 28753.9846 4.0565 4.1709
TCL: Running 100000 steps at 120 kelvin.
TCL: Setting parameter langevinTemp to 120
TCL: Running for 100000 steps
ETITLE: TS BOND ANGLE DIHED IMPRP ELECT VDW BOUNDARY MISC KINETIC TOTAL TEMP POTENTIAL TOTAL3 TEMPAVG PRESSURE GPRESSURE VOLUME PRESSAVG GPRESSAVG
ENERGY: 300000 0.6394 1.3557 1.8144 0.0000 -13848.1082 2342.3968 0.0000 0.0000 518.2737 -10983.6282 88.9823 -11501.9019 -10982.4176 88.9823 -266.8342 -210.9306 28753.9846 -266.8342 -210.9306
ENERGY: 400000 0.4869 2.1815 2.0572 0.0000 -13691.3301 2305.5289 0.0000 0.0000 709.7435 -10671.3321 121.8557 -11381.0756 -10669.3283 120.0217 11.6431 105.4497 28603.4094 5.3656 5.3474
TCL: Running 100000 steps at 150 kelvin.
TCL: Setting parameter langevinTemp to 150
TCL: Running for 100000 steps
ETITLE: TS BOND ANGLE DIHED IMPRP ELECT VDW BOUNDARY MISC KINETIC TOTAL TEMP POTENTIAL TOTAL3 TEMPAVG PRESSURE GPRESSURE VOLUME PRESSAVG GPRESSAVG
ENERGY: 400000 0.4869 2.1815 2.0572 0.0000 -13691.3301 2305.5289 0.0000 0.0000 709.3806 -10671.6950 121.7934 -11381.0756 -10670.2091 121.7934 55.8289 105.4147 28603.4094 55.8289 105.4147
ENERGY: 500000 0.9903 2.2585 2.6828 0.0000 -13425.6274 2222.7879 0.0000 0.0000 910.8604 -10286.0475 156.3855 -11196.9078 -10284.5508 149.9892 -170.7824 -114.7641 28847.6009 3.6110 3.5730
TCL: Running 100000 steps at 180 kelvin.
TCL: Setting parameter langevinTemp to 180
TCL: Running for 100000 steps
ETITLE: TS BOND ANGLE DIHED IMPRP ELECT VDW BOUNDARY MISC KINETIC TOTAL TEMP POTENTIAL TOTAL3 TEMPAVG PRESSURE GPRESSURE VOLUME PRESSAVG GPRESSAVG
ENERGY: 500000 0.9903 2.2585 2.6828 0.0000 -13425.6274 2222.7879 0.0000 0.0000 910.4319 -10286.4759 156.3119 -11196.9078 -10284.3044 156.3119 -160.3350 -114.8015 28847.6009 -160.3350 -114.8015
ENERGY: 600000 0.4597 1.5444 4.2594 0.0000 -13142.1152 2207.5482 0.0000 0.0000 1093.8165 -9834.4870 187.7972 -10928.3035 -9832.3024 180.0573 827.2790 899.4777 28729.3516 2.9111 3.0004
TCL: Running 100000 steps at 210 kelvin.
TCL: Setting parameter langevinTemp to 210
TCL: Running for 100000 steps
ETITLE: TS BOND ANGLE DIHED IMPRP ELECT VDW BOUNDARY MISC KINETIC TOTAL TEMP POTENTIAL TOTAL3 TEMPAVG PRESSURE GPRESSURE VOLUME PRESSAVG GPRESSAVG
ENERGY: 600000 0.4597 1.5444 4.2594 0.0000 -13142.1152 2207.5482 0.0000 0.0000 1093.3030 -9835.0005 187.7090 -10928.3035 -9833.0347 187.7090 835.2348 899.7560 28729.3516 835.2348 899.7560
ENERGY: 700000 2.2922 2.2858 1.4713 0.0000 -12348.7074 1844.2009 0.0000 0.0000 1216.3234 -9282.1338 208.8304 -10498.4572 -9279.5875 210.1914 -313.2696 -238.4201 28547.4499 3.9731 3.9265
TCL: Running 100000 steps at 240 kelvin.
TCL: Setting parameter langevinTemp to 240
TCL: Running for 100000 steps
ETITLE: TS BOND ANGLE DIHED IMPRP ELECT VDW BOUNDARY MISC KINETIC TOTAL TEMP POTENTIAL TOTAL3 TEMPAVG PRESSURE GPRESSURE VOLUME PRESSAVG GPRESSAVG
ENERGY: 700000 2.2922 2.2858 1.4713 0.0000 -12348.7074 1844.2009 0.0000 0.0000 1215.7341 -9282.7231 208.7292 -10498.4572 -9279.7708 208.7292 -320.7361 -238.4821 28547.4499 -320.7361 -238.4821
ENERGY: 800000 1.4651 2.5085 0.6423 0.0000 -11730.4690 1689.3798 0.0000 0.0000 1430.5411 -8605.9322 245.6094 -10036.4733 -8603.4118 239.9300 149.8770 205.9210 28681.8869 1.6014 1.5446
TCL: Running 100000 steps at 270 kelvin.
TCL: Setting parameter langevinTemp to 270
TCL: Running for 100000 steps
ETITLE: TS BOND ANGLE DIHED IMPRP ELECT VDW BOUNDARY MISC KINETIC TOTAL TEMP POTENTIAL TOTAL3 TEMPAVG PRESSURE GPRESSURE VOLUME PRESSAVG GPRESSAVG
ENERGY: 800000 1.4651 2.5085 0.6423 0.0000 -11730.4690 1689.3798 0.0000 0.0000 1429.8304 -8606.6429 245.4873 -10036.4733 -8603.7686 245.4873 122.1854 204.9825 28681.8869 122.1854 204.9825
ENERGY: 900000 1.8395 2.6490 5.6723 0.0000 -11300.6511 1647.5334 0.0000 0.0000 1623.9856 -8018.9713 278.8218 -9642.9569 -8018.1976 269.9655 723.2326 807.7949 29328.5508 1.1964 1.4666
TCL: Running 1000000 steps at 300 kelvin.
TCL: Setting parameter langevinTemp to 300
TCL: Running for 1000000 steps
ETITLE: TS BOND ANGLE DIHED IMPRP ELECT VDW BOUNDARY MISC KINETIC TOTAL TEMP POTENTIAL TOTAL3 TEMPAVG PRESSURE GPRESSURE VOLUME PRESSAVG GPRESSAVG
ENERGY: 900000 1.8395 2.6490 5.6723 0.0000 -11300.6511 1647.5334 0.0000 0.0000 1623.1843 -8019.7725 278.6842 -9642.9569 -8016.4429 278.6842 726.5995 804.7209 29328.5508 726.5995 804.7209
ENERGY: 1100000 1.5666 2.6218 3.8856 0.0000 -10687.3153 1437.9497 0.0000 0.0000 1712.8922 -7528.3993 294.0862 -9241.2915 -7525.5350 299.3942 -200.7085 -119.6992 30461.2417 3.3411 3.2448
ENERGY: 1300000 3.6381 3.5926 4.2019 0.0000 -10704.6306 1501.6325 0.0000 0.0000 1751.4147 -7440.1508 300.7001 -9191.5655 -7437.4213 300.0496 530.1793 617.1121 30122.6306 3.3475 3.5975
ENERGY: 1500000 1.4085 3.2734 2.2280 0.0000 -10801.8791 1475.3153 0.0000 0.0000 1669.7648 -7649.8890 286.6816 -9319.6538 -7645.8106 299.8077 170.3912 296.7401 29710.6509 4.5143 4.6600
ENERGY: 1700000 1.1181 5.1464 3.3708 0.0000 -10763.9970 1504.3123 0.0000 0.0000 1757.7162 -7492.3333 301.7820 -9250.0495 -7486.3577 300.4708 415.7376 516.7505 30087.2003 2.9381 2.8407
ENERGY: 1900000 1.8109 5.9327 3.1627 0.0000 -10643.1915 1414.3714 0.0000 0.0000 1715.9575 -7501.9562 294.6125 -9217.9137 -7499.6773 299.4932 -102.3522 -62.9188 30211.2953 2.7623 2.7262
TCL: Exiting due to exit command.
