Info: SIMULATION PARAMETERS:
Info: TIMESTEP               2
Info: NUMBER OF STEPS        0
Info: STEPS PER CYCLE        10
Info: PERIODIC CELL BASIS 1  34.986 0 0
Info: PERIODIC CELL BASIS 2  0 33.404 0
Info: PERIODIC CELL BASIS 3  0 0 37.195
Info: PERIODIC CELL CENTER   0 0 0
Info: WRAPPING WATERS AROUND PERIODIC BOUNDARIES ON OUTPUT.
Info: WRAPPING ALL CLUSTERS AROUND PERIODIC BOUNDARIES ON OUTPUT.
Info: FIRST LDB TIMESTEP     50
Info: LAST LDB TIMESTEP     -1
Info: HOM BACKGROUND SCALING 1
Info: PME BACKGROUND SCALING 1
Info: MIN ATOMS PER PATCH    40
Info: EMPTY PATCH LOAD       40 ATOMS
Info: INITIAL TEMPERATURE    300
Info: CENTER OF MASS MOVING INITIALLY? NO
Info: DIELECTRIC             1
Info: EXCLUDE                SCALED ONE-FOUR
Info: 1-4 ELECTROSTATICS SCALED BY 0.833333
Info: MODIFIED 1-4 VDW PARAMETERS WILL BE USED
Info: DCD FILENAME           mobley_4883284_equil.dcd
Info: DCD FREQUENCY          100000
Info: DCD FIRST STEP         100000
Info: DCD FILE WILL CONTAIN UNIT CELL DATA
Info: XST FILENAME           mobley_4883284_equil.xst
Info: XST FREQUENCY          100000
Info: NO VELOCITY DCD OUTPUT
Info: NO FORCE DCD OUTPUT
Info: OUTPUT FILENAME        mobley_4883284_equil
Info: BINARY OUTPUT FILES WILL BE USED
Info: RESTART FILENAME       mobley_4883284_equil.restart
Info: RESTART FREQUENCY      100000
Info: BINARY RESTART FILES WILL BE USED
Info: CUTOFF                 9
Info: PAIRLIST DISTANCE      11
Info: PAIRLIST SHRINK RATE   0.01
Info: PAIRLIST GROW RATE     0.01
Info: PAIRLIST TRIGGER       0.3
Info: PAIRLISTS PER CYCLE    2
Info: PAIRLISTS ENABLED
Info: MARGIN                 8
Info: HYDROGEN GROUP CUTOFF  2.5
Info: PATCH DIMENSION        21.5
Info: ENERGY OUTPUT STEPS    100000
Info: ENERGY EVALUATION STEPS    100000
Info: OUTPUT ENERGY PRECISION 4
Info: CROSSTERM ENERGY INCLUDED IN DIHEDRAL
Info: TIMING OUTPUT STEPS    1000000
Info: PRESSURE OUTPUT STEPS  100000
Info: LANGEVIN DYNAMICS ACTIVE
Info: LANGEVIN TEMPERATURE   30
Info: LANGEVIN USING BBK INTEGRATOR
Info: LANGEVIN DAMPING COEFFICIENT IS 1 INVERSE PS
Info: LANGEVIN DYNAMICS APPLIED TO HYDROGENS
Info: LANGEVIN PISTON PRESSURE CONTROL ACTIVE
Info:        TARGET PRESSURE IS 1.01325 BAR
Info:     OSCILLATION PERIOD IS 50 FS
Info:             DECAY TIME IS 25 FS
Info:     PISTON TEMPERATURE IS 300 K
Info:       PRESSURE CONTROL IS GROUP-BASED
Info:    INITIAL STRAIN RATE IS 0 0 0
Info:       CELL FLUCTUATION IS ISOTROPIC
Info: PARTICLE MESH EWALD (PME) ACTIVE
Info: PME TOLERANCE               1e-06
Info: PME EWALD COEFFICIENT       0.348832
Info: PME INTERPOLATION ORDER     4
Info: PME GRID DIMENSIONS         36 36 40
Info: PME MAXIMUM GRID SPACING    1
Info: FULL ELECTROSTATIC EVALUATION FREQUENCY      2
Info: USING VERLET I (r-RESPA) MTS SCHEME.
Info: C1 SPLITTING OF LONG RANGE ELECTROSTATICS
Info: PLACING ATOMS IN PATCHES BY HYDROGEN GROUPS
Info: RIGID BONDS TO HYDROGEN : ALL
Info:         ERROR TOLERANCE : 1e-08
Info:          MAX ITERATIONS : 100
Info: RIGID WATER USING SETTLE ALGORITHM
Info: RANDOM NUMBER SEED     1743210623
Info: USE HYDROGEN BONDS?    NO
Info: Using AMBER format force field!
Info: AMBER PARM FILE        mobley_4883284.prmtop
Info: COORDINATE PDB         mobley_4883284.pdb
Info: Exclusions will be read from PARM file!
Info: SCNB (VDW SCALING)     2
Info: USING ARITHMETIC MEAN TO COMBINE L-J SIGMA PARAMETERS
Info: BINARY COORDINATES     mobley_4883284_min.coor
Info: SUMMARY OF PARAMETERS:
Info: 6 BONDS
Info: 5 ANGLES
Info:   5 HARMONIC
Info:   0 COSINE-BASED
Info: 3 DIHEDRAL
Info: 0 IMPROPER
Info: 0 CROSSTERM
Info: 0 VDW
Info: 21 VDW_PAIRS
Info: 0 NBTHOLE_PAIRS
Info: STRUCTURE SUMMARY:
Info: 2963 ATOMS
Info: 2963 BONDS
Info: 21 ANGLES
Info: 35 DIHEDRALS
Info: 0 IMPROPERS
Info: 0 CROSSTERMS
Info: 3009 EXCLUSIONS
Info: 2956 RIGID BONDS
Info: 5933 DEGREES OF FREEDOM
Info: 990 HYDROGEN GROUPS
Info: 3 ATOMS IN LARGEST HYDROGEN GROUP
Info: 990 MIGRATION GROUPS
Info: 3 ATOMS IN LARGEST MIGRATION GROUP
Info: TOTAL MASS = 17802.9 amu
Info: TOTAL CHARGE = 0.000299931 e
Info: MASS DENSITY = 0.680098 g/cm^3
Info: ATOM DENSITY = 0.0681639 atoms/A^3
Info: ADDED 0 IMPLICIT EXCLUSIONS
Info: NONBONDED TABLE R-SQUARED SPACING: 0.0625
Info: NONBONDED TABLE SIZE: 705 POINTS
Info: REMOVING COM VELOCITY -0.110596 -0.0190714 0.115124
TCL: Running for 100000 steps
ETITLE: TS BOND ANGLE DIHED IMPRP ELECT VDW BOUNDARY MISC KINETIC TOTAL TEMP POTENTIAL TOTAL3 TEMPAVG PRESSURE GPRESSURE VOLUME PRESSAVG GPRESSAVG
ENERGY: 0 0.1033 0.0612 2.0067 0.0000 -13771.5300 2453.8712 0.0000 0.0000 1782.5282 -9532.9594 302.3796 -11315.4876 -9532.6094 302.3796 751.2292 794.3931 43468.7678 751.2292 794.3931
ENERGY: 100000 0.8495 0.8295 3.0966 0.0000 -14414.4838 2548.0566 0.0000 0.0000 173.8324 -11687.8192 29.4881 -11861.6516 -11687.1996 31.0205 607.6546 675.9330 28064.4707 4.0022 4.0143
TCL: Running 100000 steps at 60 kelvin.
TCL: Setting parameter langevinTemp to 60
TCL: Running for 100000 steps
ETITLE: TS BOND ANGLE DIHED IMPRP ELECT VDW BOUNDARY MISC KINETIC TOTAL TEMP POTENTIAL TOTAL3 TEMPAVG PRESSURE GPRESSURE VOLUME PRESSAVG GPRESSAVG
ENERGY: 100000 0.8495 0.8295 3.0966 0.0000 -14414.4838 2548.0566 0.0000 0.0000 173.7385 -11687.9131 29.4722 -11861.6516 -11687.6805 29.4722 608.8636 675.9148 28064.4707 608.8636 675.9148
ENERGY: 200000 0.5995 0.3736 2.6310 0.0000 -14273.6006 2499.8557 0.0000 0.0000 349.9927 -11420.1482 59.3711 -11770.1409 -11418.7285 59.9760 412.6447 500.3981 28323.6166 3.7937 3.7660
TCL: Running 100000 steps at 90 kelvin.
TCL: Setting parameter langevinTemp to 90
TCL: Running for 100000 steps
ETITLE: TS BOND ANGLE DIHED IMPRP ELECT VDW BOUNDARY MISC KINETIC TOTAL TEMP POTENTIAL TOTAL3 TEMPAVG PRESSURE GPRESSURE VOLUME PRESSAVG GPRESSAVG
ENERGY: 200000 0.5995 0.3736 2.6310 0.0000 -14273.6006 2499.8557 0.0000 0.0000 349.8160 -11420.3249 59.3411 -11770.1409 -11419.6227 59.3411 434.8141 500.2793 28323.6166 434.8141 500.2793
ENERGY: 300000 1.0210 1.2188 2.6877 0.0000 -14052.2588 2374.8224 0.0000 0.0000 522.8700 -11149.6388 88.6972 -11672.5089 -11148.3861 90.1369 -190.8546 -154.7015 28493.3040 4.4673 4.4870
TCL: Running 100000 steps at 120 kelvin.
TCL: Setting parameter langevinTemp to 120
TCL: Running for 100000 steps
ETITLE: TS BOND ANGLE DIHED IMPRP ELECT VDW BOUNDARY MISC KINETIC TOTAL TEMP POTENTIAL TOTAL3 TEMPAVG PRESSURE GPRESSURE VOLUME PRESSAVG GPRESSAVG
ENERGY: 300000 1.0210 1.2188 2.6877 0.0000 -14052.2588 2374.8224 0.0000 0.0000 522.6079 -11149.9010 88.6527 -11672.5089 -11148.8252 88.6527 -203.4938 -154.4969 28493.3040 -203.4938 -154.4969
ENERGY: 400000 0.9782 1.2398 3.2303 0.0000 -13948.0989 2411.9736 0.0000 0.0000 690.2850 -10840.3920 117.0967 -11530.6770 -10838.5635 119.7816 699.5550 755.1246 28549.5466 2.2374 2.1608
TCL: Running 100000 steps at 150 kelvin.
TCL: Setting parameter langevinTemp to 150
TCL: Running for 100000 steps
ETITLE: TS BOND ANGLE DIHED IMPRP ELECT VDW BOUNDARY MISC KINETIC TOTAL TEMP POTENTIAL TOTAL3 TEMPAVG PRESSURE GPRESSURE VOLUME PRESSAVG GPRESSAVG
ENERGY: 400000 0.9782 1.2398 3.2303 0.0000 -13948.0989 2411.9736 0.0000 0.0000 689.9431 -10840.7339 117.0387 -11530.6770 -10839.2092 117.0387 699.3150 756.0391 28549.5466 699.3150 756.0391
ENERGY: 500000 0.1817 0.7244 3.7760 0.0000 -13474.6917 2147.6087 0.0000 0.0000 882.1879 -10440.2130 149.6501 -11322.4008 -10437.4273 149.9609 -886.2839 -835.6080 29044.6074 4.0095 3.9772
TCL: Running 100000 steps at 180 kelvin.
TCL: Setting parameter langevinTemp to 180
TCL: Running for 100000 steps
ETITLE: TS BOND ANGLE DIHED IMPRP ELECT VDW BOUNDARY MISC KINETIC TOTAL TEMP POTENTIAL TOTAL3 TEMPAVG PRESSURE GPRESSURE VOLUME PRESSAVG GPRESSAVG
ENERGY: 500000 0.1817 0.7244 3.7760 0.0000 -13474.6917 2147.6087 0.0000 0.0000 881.7568 -10440.6440 149.5770 -11322.4008 -10438.9041 149.5770 -894.1142 -834.6044 29044.6074 -894.1142 -834.6044
ENERGY: 600000 1.9827 1.5529 1.2450 0.0000 -13277.9482 2236.8194 0.0000 0.0000 1059.8501 -9976.4980 179.7879 -11036.3481 -9975.2929 180.1894 1009.1191 1083.4704 28787.1486 1.9358 1.8533
TCL: Running 100000 steps at 210 kelvin.
TCL: Setting parameter langevinTemp to 210
TCL: Running for 100000 steps
ETITLE: TS BOND ANGLE DIHED IMPRP ELECT VDW BOUNDARY MISC KINETIC TOTAL TEMP POTENTIAL TOTAL3 TEMPAVG PRESSURE GPRESSURE VOLUME PRESSAVG GPRESSAVG
ENERGY: 600000 1.9827 1.5529 1.2450 0.0000 -13277.9482 2236.8194 0.0000 0.0000 1059.3158 -9977.0323 179.6973 -11036.3481 -9974.9302 179.6973 1015.3083 1081.8986 28787.1486 1015.3083 1081.8986
ENERGY: 700000 0.9659 2.3722 1.8464 0.0000 -12376.1432 1807.7417 0.0000 0.0000 1264.2550 -9298.9621 214.4622 -10563.2171 -9295.9993 209.9667 -579.9424 -600.2341 28937.8307 3.8985 3.8149
TCL: Running 100000 steps at 240 kelvin.
TCL: Setting parameter langevinTemp to 240
TCL: Running for 100000 steps
ETITLE: TS BOND ANGLE DIHED IMPRP ELECT VDW BOUNDARY MISC KINETIC TOTAL TEMP POTENTIAL TOTAL3 TEMPAVG PRESSURE GPRESSURE VOLUME PRESSAVG GPRESSAVG
ENERGY: 700000 0.9659 2.3722 1.8464 0.0000 -12376.1432 1807.7417 0.0000 0.0000 1263.6251 -9299.5919 214.3553 -10563.2171 -9296.8138 214.3553 -672.8039 -600.4958 28937.8307 -672.8039 -600.4958
ENERGY: 800000 1.9889 5.3364 6.8278 0.0000 -11876.3027 1747.8450 0.0000 0.0000 1415.7625 -8698.5421 240.1632 -10114.3047 -8695.1364 239.5982 -75.7126 9.2946 29475.7027 2.6871 2.8717
TCL: Running 100000 steps at 270 kelvin.
TCL: Setting parameter langevinTemp to 270
TCL: Running for 100000 steps
ETITLE: TS BOND ANGLE DIHED IMPRP ELECT VDW BOUNDARY MISC KINETIC TOTAL TEMP POTENTIAL TOTAL3 TEMPAVG PRESSURE GPRESSURE VOLUME PRESSAVG GPRESSAVG
ENERGY: 800000 1.9889 5.3364 6.8278 0.0000 -11876.3027 1747.8450 0.0000 0.0000 1415.0760 -8699.2287 240.0467 -10114.3047 -8696.9174 240.0467 -94.4079 7.7465 29475.7027 -94.4079 7.7465
ENERGY: 900000 1.1288 3.7112 2.5172 0.0000 -11228.9383 1504.1330 0.0000 0.0000 1598.6010 -8118.8471 271.1790 -9717.4481 -8115.1993 270.1966 -611.6958 -491.2503 29861.8363 2.5229 2.5344
TCL: Running 1000000 steps at 300 kelvin.
TCL: Setting parameter langevinTemp to 300
TCL: Running for 1000000 steps
ETITLE: TS BOND ANGLE DIHED IMPRP ELECT VDW BOUNDARY MISC KINETIC TOTAL TEMP POTENTIAL TOTAL3 TEMPAVG PRESSURE GPRESSURE VOLUME PRESSAVG GPRESSAVG
ENERGY: 900000 1.1288 3.7112 2.5172 0.0000 -11228.9382 1504.1330 0.0000 0.0000 1597.7701 -8119.6780 271.0381 -9717.4481 -8116.5925 271.0381 -570.0284 -492.0062 29861.8363 -570.0284 -492.0062
ENERGY: 1100000 2.0289 4.8345 3.3452 0.0000 -10833.7441 1491.9730 0.0000 0.0000 1728.4798 -7603.0827 293.2111 -9331.5625 -7597.6327 299.8241 436.1898 425.0386 30297.3338 2.2427 2.4620
ENERGY: 1300000 3.7567 3.2415 1.3163 0.0000 -10764.0149 1402.4090 0.0000 0.0000 1852.2659 -7501.0254 314.2095 -9353.2913 -7498.1851 299.7753 -446.4401 -304.1831 30560.8110 4.0482 3.9269
ENERGY: 1500000 1.6197 5.5084 3.5456 0.0000 -11029.9771 1554.5441 0.0000 0.0000 1839.1020 -7625.6574 311.9765 -9464.7594 -7622.3396 300.4119 677.8333 740.7896 30293.0844 2.2185 2.2505
ENERGY: 1700000 1.8345 4.5662 1.0408 0.0000 -10812.6305 1438.3757 0.0000 0.0000 1798.5122 -7568.3012 305.0910 -9366.8134 -7563.6071 300.7082 -422.0841 -320.1438 30574.8923 2.7005 2.5992
ENERGY: 1900000 2.1373 5.0801 4.9137 0.0000 -10901.7262 1510.4611 0.0000 0.0000 1735.3777 -7643.7564 294.3812 -9379.1341 -7643.6994 299.9773 338.4096 380.4200 30615.6169 2.9165 3.0603
TCL: Exiting due to exit command.
