Info: SIMULATION PARAMETERS:
Info: TIMESTEP               2
Info: NUMBER OF STEPS        0
Info: STEPS PER CYCLE        10
Info: PERIODIC CELL BASIS 1  34.647 0 0
Info: PERIODIC CELL BASIS 2  0 33.399 0
Info: PERIODIC CELL BASIS 3  0 0 37.451
Info: PERIODIC CELL CENTER   0 0 0
Info: WRAPPING WATERS AROUND PERIODIC BOUNDARIES ON OUTPUT.
Info: WRAPPING ALL CLUSTERS AROUND PERIODIC BOUNDARIES ON OUTPUT.
Info: FIRST LDB TIMESTEP     50
Info: LAST LDB TIMESTEP     -1
Info: HOM BACKGROUND SCALING 1
Info: PME BACKGROUND SCALING 1
Info: MIN ATOMS PER PATCH    40
Info: EMPTY PATCH LOAD       40 ATOMS
Info: INITIAL TEMPERATURE    300
Info: CENTER OF MASS MOVING INITIALLY? NO
Info: DIELECTRIC             1
Info: EXCLUDE                SCALED ONE-FOUR
Info: 1-4 ELECTROSTATICS SCALED BY 0.833333
Info: MODIFIED 1-4 VDW PARAMETERS WILL BE USED
Info: DCD FILENAME           mobley_7295828_equil.dcd
Info: DCD FREQUENCY          100000
Info: DCD FIRST STEP         100000
Info: DCD FILE WILL CONTAIN UNIT CELL DATA
Info: XST FILENAME           mobley_7295828_equil.xst
Info: XST FREQUENCY          100000
Info: NO VELOCITY DCD OUTPUT
Info: NO FORCE DCD OUTPUT
Info: OUTPUT FILENAME        mobley_7295828_equil
Info: BINARY OUTPUT FILES WILL BE USED
Info: RESTART FILENAME       mobley_7295828_equil.restart
Info: RESTART FREQUENCY      100000
Info: BINARY RESTART FILES WILL BE USED
Info: CUTOFF                 9
Info: PAIRLIST DISTANCE      11
Info: PAIRLIST SHRINK RATE   0.01
Info: PAIRLIST GROW RATE     0.01
Info: PAIRLIST TRIGGER       0.3
Info: PAIRLISTS PER CYCLE    2
Info: PAIRLISTS ENABLED
Info: MARGIN                 8
Info: HYDROGEN GROUP CUTOFF  2.5
Info: PATCH DIMENSION        21.5
Info: ENERGY OUTPUT STEPS    100000
Info: ENERGY EVALUATION STEPS    100000
Info: OUTPUT ENERGY PRECISION 4
Info: CROSSTERM ENERGY INCLUDED IN DIHEDRAL
Info: TIMING OUTPUT STEPS    1000000
Info: PRESSURE OUTPUT STEPS  100000
Info: LANGEVIN DYNAMICS ACTIVE
Info: LANGEVIN TEMPERATURE   30
Info: LANGEVIN USING BBK INTEGRATOR
Info: LANGEVIN DAMPING COEFFICIENT IS 1 INVERSE PS
Info: LANGEVIN DYNAMICS APPLIED TO HYDROGENS
Info: LANGEVIN PISTON PRESSURE CONTROL ACTIVE
Info:        TARGET PRESSURE IS 1.01325 BAR
Info:     OSCILLATION PERIOD IS 50 FS
Info:             DECAY TIME IS 25 FS
Info:     PISTON TEMPERATURE IS 300 K
Info:       PRESSURE CONTROL IS GROUP-BASED
Info:    INITIAL STRAIN RATE IS 0 0 0
Info:       CELL FLUCTUATION IS ISOTROPIC
Info: PARTICLE MESH EWALD (PME) ACTIVE
Info: PME TOLERANCE               1e-06
Info: PME EWALD COEFFICIENT       0.348832
Info: PME INTERPOLATION ORDER     4
Info: PME GRID DIMENSIONS         36 36 40
Info: PME MAXIMUM GRID SPACING    1
Info: FULL ELECTROSTATIC EVALUATION FREQUENCY      2
Info: USING VERLET I (r-RESPA) MTS SCHEME.
Info: C1 SPLITTING OF LONG RANGE ELECTROSTATICS
Info: PLACING ATOMS IN PATCHES BY HYDROGEN GROUPS
Info: RIGID BONDS TO HYDROGEN : ALL
Info:         ERROR TOLERANCE : 1e-08
Info:          MAX ITERATIONS : 100
Info: RIGID WATER USING SETTLE ALGORITHM
Info: RANDOM NUMBER SEED     1743234192
Info: USE HYDROGEN BONDS?    NO
Info: Using AMBER format force field!
Info: AMBER PARM FILE        mobley_7295828.prmtop
Info: COORDINATE PDB         mobley_7295828.pdb
Info: Exclusions will be read from PARM file!
Info: SCNB (VDW SCALING)     2
Info: USING ARITHMETIC MEAN TO COMBINE L-J SIGMA PARAMETERS
Info: BINARY COORDINATES     mobley_7295828_min.coor
Info: SUMMARY OF PARAMETERS:
Info: 7 BONDS
Info: 6 ANGLES
Info:   6 HARMONIC
Info:   0 COSINE-BASED
Info: 4 DIHEDRAL
Info: 0 IMPROPER
Info: 0 CROSSTERM
Info: 0 VDW
Info: 28 VDW_PAIRS
Info: 0 NBTHOLE_PAIRS
Info: STRUCTURE SUMMARY:
Info: 2935 ATOMS
Info: 2935 BONDS
Info: 25 ANGLES
Info: 35 DIHEDRALS
Info: 0 IMPROPERS
Info: 0 CROSSTERMS
Info: 2986 EXCLUSIONS
Info: 2927 RIGID BONDS
Info: 5878 DEGREES OF FREEDOM
Info: 981 HYDROGEN GROUPS
Info: 4 ATOMS IN LARGEST HYDROGEN GROUP
Info: 981 MIGRATION GROUPS
Info: 4 ATOMS IN LARGEST MIGRATION GROUP
Info: TOTAL MASS = 17637.7 amu
Info: TOTAL CHARGE = -0.000100031 e
Info: MASS DENSITY = 0.675832 g/cm^3
Info: ATOM DENSITY = 0.0677245 atoms/A^3
Info: ADDED 0 IMPLICIT EXCLUSIONS
Info: NONBONDED TABLE R-SQUARED SPACING: 0.0625
Info: NONBONDED TABLE SIZE: 705 POINTS
Info: REMOVING COM VELOCITY -0.130221 0.0261079 0.219132
TCL: Running for 100000 steps
ETITLE: TS BOND ANGLE DIHED IMPRP ELECT VDW BOUNDARY MISC KINETIC TOTAL TEMP POTENTIAL TOTAL3 TEMPAVG PRESSURE GPRESSURE VOLUME PRESSAVG GPRESSAVG
ENERGY: 0 0.1541 0.8007 0.3004 0.0000 -13611.8711 2400.0773 0.0000 0.0000 1767.1525 -9443.3861 302.5762 -11210.5386 -9443.0233 302.5762 540.7946 573.0176 43337.3667 540.7946 573.0176
ENERGY: 100000 1.1704 1.3156 0.1445 0.0000 -14173.9698 2495.0484 0.0000 0.0000 175.4336 -11500.8574 30.0382 -11676.2910 -11500.1613 31.0280 36.7940 98.1769 29252.0839 5.2779 5.3112
TCL: Running 100000 steps at 60 kelvin.
TCL: Setting parameter langevinTemp to 60
TCL: Running for 100000 steps
ETITLE: TS BOND ANGLE DIHED IMPRP ELECT VDW BOUNDARY MISC KINETIC TOTAL TEMP POTENTIAL TOTAL3 TEMPAVG PRESSURE GPRESSURE VOLUME PRESSAVG GPRESSAVG
ENERGY: 100000 1.1704 1.3156 0.1445 0.0000 -14173.9698 2495.0484 0.0000 0.0000 175.3475 -11500.9434 30.0234 -11676.2910 -11500.5552 30.0234 42.7407 98.5085 29252.0839 42.7407 98.5085
ENERGY: 200000 0.9736 1.3692 0.5973 0.0000 -14016.0513 2436.3075 0.0000 0.0000 350.4828 -11226.3209 60.0105 -11576.8037 -11225.3183 59.8485 115.1553 167.6630 29166.4819 3.4280 3.4325
TCL: Running 100000 steps at 90 kelvin.
TCL: Setting parameter langevinTemp to 90
TCL: Running for 100000 steps
ETITLE: TS BOND ANGLE DIHED IMPRP ELECT VDW BOUNDARY MISC KINETIC TOTAL TEMP POTENTIAL TOTAL3 TEMPAVG PRESSURE GPRESSURE VOLUME PRESSAVG GPRESSAVG
ENERGY: 200000 0.9736 1.3692 0.5973 0.0000 -14016.0513 2436.3075 0.0000 0.0000 350.3130 -11226.4907 59.9815 -11576.8037 -11225.8380 59.9815 119.2027 167.8802 29166.4819 119.2027 167.8802
ENERGY: 300000 1.3641 2.7337 1.4386 0.0000 -13820.1995 2341.7426 0.0000 0.0000 555.2642 -10917.6563 95.0737 -11472.9205 -10916.1849 90.0099 81.8694 101.1657 28566.0697 2.8037 2.8438
TCL: Running 100000 steps at 120 kelvin.
TCL: Setting parameter langevinTemp to 120
TCL: Running for 100000 steps
ETITLE: TS BOND ANGLE DIHED IMPRP ELECT VDW BOUNDARY MISC KINETIC TOTAL TEMP POTENTIAL TOTAL3 TEMPAVG PRESSURE GPRESSURE VOLUME PRESSAVG GPRESSAVG
ENERGY: 300000 1.3641 2.7337 1.4386 0.0000 -13820.1995 2341.7426 0.0000 0.0000 554.9996 -10917.9209 95.0284 -11472.9205 -10916.8532 95.0284 46.5607 101.1430 28566.0697 46.5607 101.1430
ENERGY: 400000 1.7130 3.5563 1.4370 0.0000 -13737.7282 2353.4972 0.0000 0.0000 709.0952 -10668.4296 121.4130 -11377.5248 -10666.6627 119.9782 401.5083 446.0691 28320.2067 3.8232 3.8256
TCL: Running 100000 steps at 150 kelvin.
TCL: Setting parameter langevinTemp to 150
TCL: Running for 100000 steps
ETITLE: TS BOND ANGLE DIHED IMPRP ELECT VDW BOUNDARY MISC KINETIC TOTAL TEMP POTENTIAL TOTAL3 TEMPAVG PRESSURE GPRESSURE VOLUME PRESSAVG GPRESSAVG
ENERGY: 400000 1.7130 3.5563 1.4370 0.0000 -13737.7282 2353.4972 0.0000 0.0000 708.7457 -10668.7791 121.3532 -11377.5248 -10667.3368 121.3532 401.5036 445.8649 28320.2067 401.5036 445.8649
ENERGY: 500000 2.0260 4.8250 1.5983 0.0000 -13318.5711 2119.9546 0.0000 0.0000 874.6344 -10315.5329 149.7571 -11190.1672 -10312.6604 149.8039 -1171.3809 -1139.7836 29289.1180 4.3386 4.4660
TCL: Running 100000 steps at 180 kelvin.
TCL: Setting parameter langevinTemp to 180
TCL: Running for 100000 steps
ETITLE: TS BOND ANGLE DIHED IMPRP ELECT VDW BOUNDARY MISC KINETIC TOTAL TEMP POTENTIAL TOTAL3 TEMPAVG PRESSURE GPRESSURE VOLUME PRESSAVG GPRESSAVG
ENERGY: 500000 2.0260 4.8250 1.5983 0.0000 -13318.5711 2119.9546 0.0000 0.0000 874.1923 -10315.9750 149.6814 -11190.1672 -10314.4575 149.6814 -1185.4651 -1138.4674 29289.1180 -1185.4651 -1138.4674
ENERGY: 600000 1.2005 4.3115 2.1602 0.0000 -13017.0542 2108.6598 0.0000 0.0000 1048.0753 -9852.6470 179.4541 -10900.7223 -9849.7714 179.6900 -64.2029 1.6368 28813.3956 5.4176 5.3368
TCL: Running 100000 steps at 210 kelvin.
TCL: Setting parameter langevinTemp to 210
TCL: Running for 100000 steps
ETITLE: TS BOND ANGLE DIHED IMPRP ELECT VDW BOUNDARY MISC KINETIC TOTAL TEMP POTENTIAL TOTAL3 TEMPAVG PRESSURE GPRESSURE VOLUME PRESSAVG GPRESSAVG
ENERGY: 600000 1.2005 4.3115 2.1602 0.0000 -13017.0542 2108.6598 0.0000 0.0000 1047.5505 -9853.1718 179.3642 -10900.7223 -9850.9690 179.3642 -61.8664 2.0414 28813.3956 -61.8664 2.0414
ENERGY: 700000 1.7237 3.9723 1.9366 0.0000 -12352.0861 1828.0266 0.0000 0.0000 1210.6467 -9305.7801 207.2899 -10516.4269 -9302.7177 209.9203 -827.5527 -738.5383 28863.6910 3.8303 3.9332
TCL: Running 100000 steps at 240 kelvin.
TCL: Setting parameter langevinTemp to 240
TCL: Running for 100000 steps
ETITLE: TS BOND ANGLE DIHED IMPRP ELECT VDW BOUNDARY MISC KINETIC TOTAL TEMP POTENTIAL TOTAL3 TEMPAVG PRESSURE GPRESSURE VOLUME PRESSAVG GPRESSAVG
ENERGY: 700000 1.7237 3.9723 1.9366 0.0000 -12352.0861 1828.0266 0.0000 0.0000 1210.0229 -9306.4039 207.1831 -10516.4269 -9304.1719 207.1831 -812.7140 -739.2166 28863.6910 -812.7140 -739.2166
ENERGY: 800000 3.5710 3.7210 5.8017 0.0000 -11743.8505 1773.7519 0.0000 0.0000 1435.9635 -8521.0413 245.8692 -9957.0049 -8518.7684 240.4925 669.6712 757.6913 29233.8333 2.5401 2.4934
TCL: Running 100000 steps at 270 kelvin.
TCL: Setting parameter langevinTemp to 270
TCL: Running for 100000 steps
ETITLE: TS BOND ANGLE DIHED IMPRP ELECT VDW BOUNDARY MISC KINETIC TOTAL TEMP POTENTIAL TOTAL3 TEMPAVG PRESSURE GPRESSURE VOLUME PRESSAVG GPRESSAVG
ENERGY: 800000 3.5710 3.7210 5.8017 0.0000 -11743.8505 1773.7519 0.0000 0.0000 1435.2660 -8521.7388 245.7498 -9957.0049 -8519.3433 245.7498 676.8356 757.1943 29233.8333 676.8356 757.1943
ENERGY: 900000 2.2193 5.8038 1.8427 0.0000 -11253.9249 1623.9376 0.0000 0.0000 1541.4839 -8078.6376 263.9367 -9620.1215 -8075.2693 269.9700 887.1280 868.4198 28979.4978 3.3917 3.6361
TCL: Running 1000000 steps at 300 kelvin.
TCL: Setting parameter langevinTemp to 300
TCL: Running for 1000000 steps
ETITLE: TS BOND ANGLE DIHED IMPRP ELECT VDW BOUNDARY MISC KINETIC TOTAL TEMP POTENTIAL TOTAL3 TEMPAVG PRESSURE GPRESSURE VOLUME PRESSAVG GPRESSAVG
ENERGY: 900000 2.2193 5.8038 1.8427 0.0000 -11253.9249 1623.9376 0.0000 0.0000 1540.6972 -8079.4244 263.8020 -9620.1215 -8077.1143 263.8020 774.3973 868.9249 28979.4978 774.3973 868.9249
ENERGY: 1100000 4.4281 1.7828 9.3682 0.0000 -10614.7334 1363.2270 0.0000 0.0000 1762.0078 -7473.9195 301.6954 -9235.9273 -7467.9772 300.1020 -768.3905 -673.2834 30475.7125 2.8241 2.7764
ENERGY: 1300000 2.1655 4.2726 2.3437 0.0000 -10489.6059 1333.8563 0.0000 0.0000 1758.8046 -7388.1633 301.1469 -9146.9678 -7386.8665 300.0800 -664.2432 -552.4555 30510.0153 3.1936 3.3193
ENERGY: 1500000 1.0111 4.2252 3.7114 0.0000 -10753.3688 1485.3267 0.0000 0.0000 1770.3087 -7488.7856 303.1167 -9259.0943 -7485.4226 300.0142 276.0044 268.0950 30110.3318 3.0092 2.9687
ENERGY: 1700000 1.9210 4.1106 7.9079 0.0000 -10559.7675 1384.6609 0.0000 0.0000 1772.8867 -7388.2802 303.5581 -9161.1669 -7383.9389 300.0887 -206.1827 -102.7812 30213.5814 2.3016 2.1797
ENERGY: 1900000 2.5863 5.4308 1.2559 0.0000 -10547.1354 1355.5312 0.0000 0.0000 1771.7649 -7410.5662 303.3660 -9182.3312 -7409.2417 299.5977 -382.4584 -261.8097 30088.2885 3.9098 3.8173
TCL: Exiting due to exit command.
