Info: SIMULATION PARAMETERS:
Info: TIMESTEP               2
Info: NUMBER OF STEPS        0
Info: STEPS PER CYCLE        10
Info: PERIODIC CELL BASIS 1  36.592 0 0
Info: PERIODIC CELL BASIS 2  0 34.26 0
Info: PERIODIC CELL BASIS 3  0 0 35.644
Info: PERIODIC CELL CENTER   0 0 0
Info: WRAPPING WATERS AROUND PERIODIC BOUNDARIES ON OUTPUT.
Info: WRAPPING ALL CLUSTERS AROUND PERIODIC BOUNDARIES ON OUTPUT.
Info: FIRST LDB TIMESTEP     50
Info: LAST LDB TIMESTEP     -1
Info: HOM BACKGROUND SCALING 1
Info: PME BACKGROUND SCALING 1
Info: MIN ATOMS PER PATCH    40
Info: EMPTY PATCH LOAD       40 ATOMS
Info: INITIAL TEMPERATURE    300
Info: CENTER OF MASS MOVING INITIALLY? NO
Info: DIELECTRIC             1
Info: EXCLUDE                SCALED ONE-FOUR
Info: 1-4 ELECTROSTATICS SCALED BY 0.833333
Info: MODIFIED 1-4 VDW PARAMETERS WILL BE USED
Info: DCD FILENAME           mobley_8668219_equil.dcd
Info: DCD FREQUENCY          100000
Info: DCD FIRST STEP         100000
Info: DCD FILE WILL CONTAIN UNIT CELL DATA
Info: XST FILENAME           mobley_8668219_equil.xst
Info: XST FREQUENCY          100000
Info: NO VELOCITY DCD OUTPUT
Info: NO FORCE DCD OUTPUT
Info: OUTPUT FILENAME        mobley_8668219_equil
Info: BINARY OUTPUT FILES WILL BE USED
Info: RESTART FILENAME       mobley_8668219_equil.restart
Info: RESTART FREQUENCY      100000
Info: BINARY RESTART FILES WILL BE USED
Info: CUTOFF                 9
Info: PAIRLIST DISTANCE      11
Info: PAIRLIST SHRINK RATE   0.01
Info: PAIRLIST GROW RATE     0.01
Info: PAIRLIST TRIGGER       0.3
Info: PAIRLISTS PER CYCLE    2
Info: PAIRLISTS ENABLED
Info: MARGIN                 8
Info: HYDROGEN GROUP CUTOFF  2.5
Info: PATCH DIMENSION        21.5
Info: ENERGY OUTPUT STEPS    100000
Info: ENERGY EVALUATION STEPS    100000
Info: OUTPUT ENERGY PRECISION 4
Info: CROSSTERM ENERGY INCLUDED IN DIHEDRAL
Info: TIMING OUTPUT STEPS    1000000
Info: PRESSURE OUTPUT STEPS  100000
Info: LANGEVIN DYNAMICS ACTIVE
Info: LANGEVIN TEMPERATURE   30
Info: LANGEVIN USING BBK INTEGRATOR
Info: LANGEVIN DAMPING COEFFICIENT IS 1 INVERSE PS
Info: LANGEVIN DYNAMICS APPLIED TO HYDROGENS
Info: LANGEVIN PISTON PRESSURE CONTROL ACTIVE
Info:        TARGET PRESSURE IS 1.01325 BAR
Info:     OSCILLATION PERIOD IS 50 FS
Info:             DECAY TIME IS 25 FS
Info:     PISTON TEMPERATURE IS 300 K
Info:       PRESSURE CONTROL IS GROUP-BASED
Info:    INITIAL STRAIN RATE IS 0 0 0
Info:       CELL FLUCTUATION IS ISOTROPIC
Info: PARTICLE MESH EWALD (PME) ACTIVE
Info: PME TOLERANCE               1e-06
Info: PME EWALD COEFFICIENT       0.348832
Info: PME INTERPOLATION ORDER     4
Info: PME GRID DIMENSIONS         40 36 36
Info: PME MAXIMUM GRID SPACING    1
Info: FULL ELECTROSTATIC EVALUATION FREQUENCY      2
Info: USING VERLET I (r-RESPA) MTS SCHEME.
Info: C1 SPLITTING OF LONG RANGE ELECTROSTATICS
Info: PLACING ATOMS IN PATCHES BY HYDROGEN GROUPS
Info: RIGID BONDS TO HYDROGEN : ALL
Info:         ERROR TOLERANCE : 1e-08
Info:          MAX ITERATIONS : 100
Info: RIGID WATER USING SETTLE ALGORITHM
Info: RANDOM NUMBER SEED     1743245803
Info: USE HYDROGEN BONDS?    NO
Info: Using AMBER format force field!
Info: AMBER PARM FILE        mobley_8668219.prmtop
Info: COORDINATE PDB         mobley_8668219.pdb
Info: Exclusions will be read from PARM file!
Info: SCNB (VDW SCALING)     2
Info: USING ARITHMETIC MEAN TO COMBINE L-J SIGMA PARAMETERS
Info: BINARY COORDINATES     mobley_8668219_min.coor
Info: SUMMARY OF PARAMETERS:
Info: 4 BONDS
Info: 3 ANGLES
Info:   3 HARMONIC
Info:   0 COSINE-BASED
Info: 5 DIHEDRAL
Info: 0 IMPROPER
Info: 0 CROSSTERM
Info: 0 VDW
Info: 10 VDW_PAIRS
Info: 0 NBTHOLE_PAIRS
Info: STRUCTURE SUMMARY:
Info: 2981 ATOMS
Info: 2980 BONDS
Info: 42 ANGLES
Info: 66 DIHEDRALS
Info: 0 IMPROPERS
Info: 0 CROSSTERMS
Info: 3076 EXCLUSIONS
Info: 2974 RIGID BONDS
Info: 5969 DEGREES OF FREEDOM
Info: 993 HYDROGEN GROUPS
Info: 4 ATOMS IN LARGEST HYDROGEN GROUP
Info: 993 MIGRATION GROUPS
Info: 4 ATOMS IN LARGEST MIGRATION GROUP
Info: TOTAL MASS = 17864 amu
Info: TOTAL CHARGE = 0.000299972 e
Info: MASS DENSITY = 0.663861 g/cm^3
Info: ATOM DENSITY = 0.0667117 atoms/A^3
Info: ADDED 0 IMPLICIT EXCLUSIONS
Info: NONBONDED TABLE R-SQUARED SPACING: 0.0625
Info: NONBONDED TABLE SIZE: 705 POINTS
Info: REMOVING COM VELOCITY 0.0933332 0.0156726 0.0173046
TCL: Running for 100000 steps
ETITLE: TS BOND ANGLE DIHED IMPRP ELECT VDW BOUNDARY MISC KINETIC TOTAL TEMP POTENTIAL TOTAL3 TEMPAVG PRESSURE GPRESSURE VOLUME PRESSAVG GPRESSAVG
ENERGY: 0 0.4765 1.9675 3.0373 0.0000 -13678.1418 2404.1181 0.0000 0.0000 1806.1391 -9462.4032 304.5370 -11268.5423 -9462.0628 304.5370 416.2484 451.3267 44684.8126 416.2484 451.3267
ENERGY: 100000 0.7003 3.0711 3.2330 0.0000 -14347.7799 2540.5542 0.0000 0.0000 175.3451 -11624.8763 29.5653 -11800.2214 -11624.7660 30.8915 125.0563 198.2465 29716.8255 2.8532 2.8512
TCL: Running 100000 steps at 60 kelvin.
TCL: Setting parameter langevinTemp to 60
TCL: Running for 100000 steps
ETITLE: TS BOND ANGLE DIHED IMPRP ELECT VDW BOUNDARY MISC KINETIC TOTAL TEMP POTENTIAL TOTAL3 TEMPAVG PRESSURE GPRESSURE VOLUME PRESSAVG GPRESSAVG
ENERGY: 100000 0.7003 3.0711 3.2330 0.0000 -14347.7799 2540.5542 0.0000 0.0000 175.2566 -11624.9648 29.5504 -11800.2214 -11624.5405 29.5504 142.4069 198.0561 29716.8255 142.4069 198.0561
ENERGY: 200000 0.3952 5.1442 3.0728 0.0000 -14458.0048 2757.6384 0.0000 0.0000 362.7535 -11329.0006 61.1646 -11691.7542 -11328.4348 59.9194 2530.6062 2596.2931 29159.7608 3.4872 3.5228
TCL: Running 100000 steps at 90 kelvin.
TCL: Setting parameter langevinTemp to 90
TCL: Running for 100000 steps
ETITLE: TS BOND ANGLE DIHED IMPRP ELECT VDW BOUNDARY MISC KINETIC TOTAL TEMP POTENTIAL TOTAL3 TEMPAVG PRESSURE GPRESSURE VOLUME PRESSAVG GPRESSAVG
ENERGY: 200000 0.3952 5.1442 3.0728 0.0000 -14458.0048 2757.6384 0.0000 0.0000 362.5746 -11329.1796 61.1345 -11691.7542 -11328.4562 61.1345 2544.0651 2595.6613 29159.7608 2544.0651 2595.6613
ENERGY: 300000 2.0466 7.0940 3.2435 0.0000 -13936.2482 2318.3213 0.0000 0.0000 545.2283 -11060.3147 91.9321 -11605.5429 -11059.2206 89.9233 -686.9585 -670.0238 29497.4642 3.9892 3.9295
TCL: Running 100000 steps at 120 kelvin.
TCL: Setting parameter langevinTemp to 120
TCL: Running for 100000 steps
ETITLE: TS BOND ANGLE DIHED IMPRP ELECT VDW BOUNDARY MISC KINETIC TOTAL TEMP POTENTIAL TOTAL3 TEMPAVG PRESSURE GPRESSURE VOLUME PRESSAVG GPRESSAVG
ENERGY: 300000 2.0466 7.0940 3.2435 0.0000 -13936.2482 2318.3213 0.0000 0.0000 544.9607 -11060.5823 91.8870 -11605.5429 -11059.4895 91.8870 -717.1054 -670.7369 29497.4642 -717.1054 -670.7369
ENERGY: 400000 0.6225 7.3627 4.2534 0.0000 -13769.2696 2263.2548 0.0000 0.0000 726.4651 -10767.3111 122.4908 -11493.7762 -10764.7989 120.1345 -856.0806 -783.7741 29802.6575 3.9656 3.9548
TCL: Running 100000 steps at 150 kelvin.
TCL: Setting parameter langevinTemp to 150
TCL: Running for 100000 steps
ETITLE: TS BOND ANGLE DIHED IMPRP ELECT VDW BOUNDARY MISC KINETIC TOTAL TEMP POTENTIAL TOTAL3 TEMPAVG PRESSURE GPRESSURE VOLUME PRESSAVG GPRESSAVG
ENERGY: 400000 0.6225 7.3627 4.2534 0.0000 -13769.2696 2263.2548 0.0000 0.0000 726.1124 -10767.6638 122.4313 -11493.7762 -10765.7479 122.4313 -835.7041 -783.7403 29802.6575 -835.7041 -783.7403
ENERGY: 500000 3.5356 5.4202 4.0495 0.0000 -13653.4156 2311.6517 0.0000 0.0000 923.5932 -10405.1654 155.7290 -11328.7585 -10402.7446 149.7357 485.8378 528.2173 29175.2111 2.9928 2.8042
TCL: Running 100000 steps at 180 kelvin.
TCL: Setting parameter langevinTemp to 180
TCL: Running for 100000 steps
ETITLE: TS BOND ANGLE DIHED IMPRP ELECT VDW BOUNDARY MISC KINETIC TOTAL TEMP POTENTIAL TOTAL3 TEMPAVG PRESSURE GPRESSURE VOLUME PRESSAVG GPRESSAVG
ENERGY: 500000 3.5356 5.4202 4.0495 0.0000 -13653.4156 2311.6517 0.0000 0.0000 923.1355 -10405.6231 155.6518 -11328.7585 -10403.9316 155.6518 475.5723 528.5805 29175.2111 475.5723 528.5805
ENERGY: 600000 2.6974 7.7568 3.2406 0.0000 -13238.5357 2164.8270 0.0000 0.0000 1053.7729 -10006.2410 177.6789 -11060.0140 -10003.0809 179.7564 271.7555 337.8795 29011.3351 3.3810 3.4360
TCL: Running 100000 steps at 210 kelvin.
TCL: Setting parameter langevinTemp to 210
TCL: Running for 100000 steps
ETITLE: TS BOND ANGLE DIHED IMPRP ELECT VDW BOUNDARY MISC KINETIC TOTAL TEMP POTENTIAL TOTAL3 TEMPAVG PRESSURE GPRESSURE VOLUME PRESSAVG GPRESSAVG
ENERGY: 600000 2.6974 7.7568 3.2406 0.0000 -13238.5357 2164.8270 0.0000 0.0000 1053.2389 -10006.7751 177.5889 -11060.0140 -10004.6036 177.5889 284.4337 339.1410 29011.3351 284.4337 339.1410
ENERGY: 700000 1.3094 9.2715 4.0735 0.0000 -12542.2002 1923.6539 0.0000 0.0000 1232.7059 -9371.1860 207.8492 -10603.8919 -9366.1890 210.2771 198.4815 310.8915 28753.3198 3.6266 3.5744
TCL: Running 100000 steps at 240 kelvin.
TCL: Setting parameter langevinTemp to 240
TCL: Running for 100000 steps
ETITLE: TS BOND ANGLE DIHED IMPRP ELECT VDW BOUNDARY MISC KINETIC TOTAL TEMP POTENTIAL TOTAL3 TEMPAVG PRESSURE GPRESSURE VOLUME PRESSAVG GPRESSAVG
ENERGY: 700000 1.3094 9.2715 4.0735 0.0000 -12542.2002 1923.6539 0.0000 0.0000 1232.0777 -9371.8142 207.7432 -10603.8919 -9368.9009 207.7432 236.8606 313.0441 28753.3198 236.8606 313.0441
ENERGY: 800000 0.8124 8.5680 4.5241 0.0000 -11836.8020 1715.5790 0.0000 0.0000 1400.0740 -8707.2445 236.0695 -10107.3185 -8704.6482 239.5491 136.7690 162.5026 29270.6552 3.7693 3.8353
TCL: Running 100000 steps at 270 kelvin.
TCL: Setting parameter langevinTemp to 270
TCL: Running for 100000 steps
ETITLE: TS BOND ANGLE DIHED IMPRP ELECT VDW BOUNDARY MISC KINETIC TOTAL TEMP POTENTIAL TOTAL3 TEMPAVG PRESSURE GPRESSURE VOLUME PRESSAVG GPRESSAVG
ENERGY: 800000 0.8124 8.5680 4.5241 0.0000 -11836.8020 1715.5790 0.0000 0.0000 1399.3659 -8707.9526 235.9501 -10107.3185 -8705.1460 235.9501 60.5076 161.5005 29270.6552 60.5076 161.5005
ENERGY: 900000 1.4202 9.7292 4.5656 0.0000 -11462.4470 1631.2838 0.0000 0.0000 1609.9648 -8205.4834 271.4596 -9815.4482 -8202.5245 269.2890 148.5433 210.8353 29966.8503 4.3870 4.3272
TCL: Running 1000000 steps at 300 kelvin.
TCL: Setting parameter langevinTemp to 300
TCL: Running for 1000000 steps
ETITLE: TS BOND ANGLE DIHED IMPRP ELECT VDW BOUNDARY MISC KINETIC TOTAL TEMP POTENTIAL TOTAL3 TEMPAVG PRESSURE GPRESSURE VOLUME PRESSAVG GPRESSAVG
ENERGY: 900000 1.4202 9.7292 4.5656 0.0000 -11462.4470 1631.2838 0.0000 0.0000 1609.1281 -8206.3201 271.3185 -9815.4482 -8203.2120 271.3185 126.3259 210.7772 29966.8503 126.3259 210.7772
ENERGY: 1100000 3.1667 11.7079 4.5710 0.0000 -10752.3264 1353.3400 0.0000 0.0000 1819.7542 -7559.7866 306.8326 -9379.5407 -7555.8653 300.1913 -795.1126 -707.6941 30362.6764 4.7121 4.6730
ENERGY: 1300000 2.0160 9.6861 5.4626 0.0000 -10780.0605 1436.8173 0.0000 0.0000 1760.4787 -7565.5999 296.8380 -9326.0786 -7562.7648 300.5551 -187.8609 -123.1988 30868.8472 2.8721 2.9901
ENERGY: 1500000 2.0018 11.0854 3.9405 0.0000 -10764.3497 1490.5782 0.0000 0.0000 1758.9264 -7497.8175 296.5763 -9256.7439 -7494.9671 300.6978 262.5877 417.4967 31167.6798 3.0774 2.9619
ENERGY: 1700000 2.2820 9.2874 6.4976 0.0000 -10732.7060 1429.9720 0.0000 0.0000 1762.0470 -7522.6201 297.1025 -9284.6671 -7519.8215 299.6047 15.1360 87.4812 30337.4374 2.6869 2.8245
ENERGY: 1900000 4.2364 9.3590 3.5975 0.0000 -10841.5999 1492.5606 0.0000 0.0000 1706.9503 -7624.8961 287.8125 -9331.8464 -7624.4118 299.5564 -123.5475 -50.0217 30919.5709 3.2927 3.4094
TCL: Exiting due to exit command.
