Info: SIMULATION PARAMETERS:
Info: TIMESTEP               2
Info: NUMBER OF STEPS        0
Info: STEPS PER CYCLE        10
Info: PERIODIC CELL BASIS 1  34.986 0 0
Info: PERIODIC CELL BASIS 2  0 33.542 0
Info: PERIODIC CELL BASIS 3  0 0 37.195
Info: PERIODIC CELL CENTER   0 0 0
Info: WRAPPING WATERS AROUND PERIODIC BOUNDARIES ON OUTPUT.
Info: WRAPPING ALL CLUSTERS AROUND PERIODIC BOUNDARIES ON OUTPUT.
Info: FIRST LDB TIMESTEP     50
Info: LAST LDB TIMESTEP     -1
Info: HOM BACKGROUND SCALING 1
Info: PME BACKGROUND SCALING 1
Info: MIN ATOMS PER PATCH    40
Info: EMPTY PATCH LOAD       40 ATOMS
Info: INITIAL TEMPERATURE    300
Info: CENTER OF MASS MOVING INITIALLY? NO
Info: DIELECTRIC             1
Info: EXCLUDE                SCALED ONE-FOUR
Info: 1-4 ELECTROSTATICS SCALED BY 0.833333
Info: MODIFIED 1-4 VDW PARAMETERS WILL BE USED
Info: DCD FILENAME           mobley_5072416_equil.dcd
Info: DCD FREQUENCY          100000
Info: DCD FIRST STEP         100000
Info: DCD FILE WILL CONTAIN UNIT CELL DATA
Info: XST FILENAME           mobley_5072416_equil.xst
Info: XST FREQUENCY          100000
Info: NO VELOCITY DCD OUTPUT
Info: NO FORCE DCD OUTPUT
Info: OUTPUT FILENAME        mobley_5072416_equil
Info: BINARY OUTPUT FILES WILL BE USED
Info: RESTART FILENAME       mobley_5072416_equil.restart
Info: RESTART FREQUENCY      100000
Info: BINARY RESTART FILES WILL BE USED
Info: CUTOFF                 9
Info: PAIRLIST DISTANCE      11
Info: PAIRLIST SHRINK RATE   0.01
Info: PAIRLIST GROW RATE     0.01
Info: PAIRLIST TRIGGER       0.3
Info: PAIRLISTS PER CYCLE    2
Info: PAIRLISTS ENABLED
Info: MARGIN                 8
Info: HYDROGEN GROUP CUTOFF  2.5
Info: PATCH DIMENSION        21.5
Info: ENERGY OUTPUT STEPS    100000
Info: ENERGY EVALUATION STEPS    100000
Info: OUTPUT ENERGY PRECISION 4
Info: CROSSTERM ENERGY INCLUDED IN DIHEDRAL
Info: TIMING OUTPUT STEPS    1000000
Info: PRESSURE OUTPUT STEPS  100000
Info: LANGEVIN DYNAMICS ACTIVE
Info: LANGEVIN TEMPERATURE   30
Info: LANGEVIN USING BBK INTEGRATOR
Info: LANGEVIN DAMPING COEFFICIENT IS 1 INVERSE PS
Info: LANGEVIN DYNAMICS APPLIED TO HYDROGENS
Info: LANGEVIN PISTON PRESSURE CONTROL ACTIVE
Info:        TARGET PRESSURE IS 1.01325 BAR
Info:     OSCILLATION PERIOD IS 50 FS
Info:             DECAY TIME IS 25 FS
Info:     PISTON TEMPERATURE IS 300 K
Info:       PRESSURE CONTROL IS GROUP-BASED
Info:    INITIAL STRAIN RATE IS 0 0 0
Info:       CELL FLUCTUATION IS ISOTROPIC
Info: PARTICLE MESH EWALD (PME) ACTIVE
Info: PME TOLERANCE               1e-06
Info: PME EWALD COEFFICIENT       0.348832
Info: PME INTERPOLATION ORDER     4
Info: PME GRID DIMENSIONS         36 36 40
Info: PME MAXIMUM GRID SPACING    1
Info: FULL ELECTROSTATIC EVALUATION FREQUENCY      2
Info: USING VERLET I (r-RESPA) MTS SCHEME.
Info: C1 SPLITTING OF LONG RANGE ELECTROSTATICS
Info: PLACING ATOMS IN PATCHES BY HYDROGEN GROUPS
Info: RIGID BONDS TO HYDROGEN : ALL
Info:         ERROR TOLERANCE : 1e-08
Info:          MAX ITERATIONS : 100
Info: RIGID WATER USING SETTLE ALGORITHM
Info: RANDOM NUMBER SEED     1743232320
Info: USE HYDROGEN BONDS?    NO
Info: Using AMBER format force field!
Info: AMBER PARM FILE        mobley_5072416.prmtop
Info: COORDINATE PDB         mobley_5072416.pdb
Info: Exclusions will be read from PARM file!
Info: SCNB (VDW SCALING)     2
Info: USING ARITHMETIC MEAN TO COMBINE L-J SIGMA PARAMETERS
Info: BINARY COORDINATES     mobley_5072416_min.coor
Info: SUMMARY OF PARAMETERS:
Info: 9 BONDS
Info: 9 ANGLES
Info:   9 HARMONIC
Info:   0 COSINE-BASED
Info: 5 DIHEDRAL
Info: 0 IMPROPER
Info: 0 CROSSTERM
Info: 0 VDW
Info: 45 VDW_PAIRS
Info: 0 NBTHOLE_PAIRS
Info: STRUCTURE SUMMARY:
Info: 2955 ATOMS
Info: 2955 BONDS
Info: 28 ANGLES
Info: 40 DIHEDRALS
Info: 0 IMPROPERS
Info: 0 CROSSTERMS
Info: 3013 EXCLUSIONS
Info: 2946 RIGID BONDS
Info: 5919 DEGREES OF FREEDOM
Info: 988 HYDROGEN GROUPS
Info: 4 ATOMS IN LARGEST HYDROGEN GROUP
Info: 988 MIGRATION GROUPS
Info: 4 ATOMS IN LARGEST MIGRATION GROUP
Info: TOTAL MASS = 17760.8 amu
Info: TOTAL CHARGE = 4.65661e-08 e
Info: MASS DENSITY = 0.675701 g/cm^3
Info: ATOM DENSITY = 0.0677002 atoms/A^3
Info: ADDED 0 IMPLICIT EXCLUSIONS
Info: NONBONDED TABLE R-SQUARED SPACING: 0.0625
Info: NONBONDED TABLE SIZE: 705 POINTS
Info: REMOVING COM VELOCITY -0.0212751 -0.0491261 0.0512327
TCL: Running for 100000 steps
ETITLE: TS BOND ANGLE DIHED IMPRP ELECT VDW BOUNDARY MISC KINETIC TOTAL TEMP POTENTIAL TOTAL3 TEMPAVG PRESSURE GPRESSURE VOLUME PRESSAVG GPRESSAVG
ENERGY: 0 0.2727 0.9657 1.6837 0.0000 -13673.2684 2416.7497 0.0000 0.0000 1714.2989 -9539.2977 291.4933 -11253.5966 -9538.9849 291.4933 406.7083 445.8943 43648.3478 406.7083 445.8943
ENERGY: 100000 0.6185 1.9761 1.5420 0.0000 -14156.4514 2427.0324 0.0000 0.0000 173.1377 -11552.1446 29.4397 -11725.2823 -11551.4673 30.9017 -514.1409 -467.1727 28951.7722 5.3971 5.4218
TCL: Running 100000 steps at 60 kelvin.
TCL: Setting parameter langevinTemp to 60
TCL: Running for 100000 steps
ETITLE: TS BOND ANGLE DIHED IMPRP ELECT VDW BOUNDARY MISC KINETIC TOTAL TEMP POTENTIAL TOTAL3 TEMPAVG PRESSURE GPRESSURE VOLUME PRESSAVG GPRESSAVG
ENERGY: 100000 0.6185 1.9761 1.5420 0.0000 -14156.4514 2427.0324 0.0000 0.0000 173.0516 -11552.2307 29.4251 -11725.2823 -11551.8459 29.4251 -520.0121 -466.9474 28951.7722 -520.0121 -466.9474
ENERGY: 200000 1.1465 1.5744 0.9030 0.0000 -14072.6730 2388.5493 0.0000 0.0000 342.5875 -11337.9124 58.2524 -11680.4998 -11337.0881 59.9171 -686.5085 -618.0890 28853.3475 3.7924 3.7920
TCL: Running 100000 steps at 90 kelvin.
TCL: Setting parameter langevinTemp to 90
TCL: Running for 100000 steps
ETITLE: TS BOND ANGLE DIHED IMPRP ELECT VDW BOUNDARY MISC KINETIC TOTAL TEMP POTENTIAL TOTAL3 TEMPAVG PRESSURE GPRESSURE VOLUME PRESSAVG GPRESSAVG
ENERGY: 200000 1.1465 1.5744 0.9030 0.0000 -14072.6730 2388.5493 0.0000 0.0000 342.4040 -11338.0958 58.2212 -11680.4998 -11337.3625 58.2212 -675.4053 -617.8935 28853.3475 -675.4053 -617.8935
ENERGY: 300000 3.8756 2.0177 2.7726 0.0000 -14021.4346 2427.8420 0.0000 0.0000 519.7180 -11065.2087 88.3710 -11584.9267 -11064.0154 90.2044 38.4054 75.6965 28679.9438 3.1989 3.1458
TCL: Running 100000 steps at 120 kelvin.
TCL: Setting parameter langevinTemp to 120
TCL: Running for 100000 steps
ETITLE: TS BOND ANGLE DIHED IMPRP ELECT VDW BOUNDARY MISC KINETIC TOTAL TEMP POTENTIAL TOTAL3 TEMPAVG PRESSURE GPRESSURE VOLUME PRESSAVG GPRESSAVG
ENERGY: 300000 3.8756 2.0177 2.7726 0.0000 -14021.4346 2427.8420 0.0000 0.0000 519.4459 -11065.4809 88.3247 -11584.9267 -11064.6077 88.3247 32.1931 75.3203 28679.9438 32.1931 75.3203
ENERGY: 400000 1.6706 2.5337 2.0011 0.0000 -13805.0089 2308.0878 0.0000 0.0000 707.5156 -10783.2002 120.3035 -11490.7158 -10780.9881 119.9145 -467.6780 -417.9981 28951.3650 3.3354 3.2632
TCL: Running 100000 steps at 150 kelvin.
TCL: Setting parameter langevinTemp to 150
TCL: Running for 100000 steps
ETITLE: TS BOND ANGLE DIHED IMPRP ELECT VDW BOUNDARY MISC KINETIC TOTAL TEMP POTENTIAL TOTAL3 TEMPAVG PRESSURE GPRESSURE VOLUME PRESSAVG GPRESSAVG
ENERGY: 400000 1.6706 2.5337 2.0011 0.0000 -13805.0089 2308.0878 0.0000 0.0000 707.1695 -10783.5463 120.2446 -11490.7158 -10781.9025 120.2446 -466.8895 -417.9315 28951.3650 -466.8895 -417.9315
ENERGY: 500000 0.7340 4.5959 6.2784 0.0000 -13525.9184 2244.0720 0.0000 0.0000 895.1240 -10375.1141 152.2037 -11270.2381 -10372.5634 150.2076 -163.7199 -84.9538 29032.2768 3.9737 4.0911
TCL: Running 100000 steps at 180 kelvin.
TCL: Setting parameter langevinTemp to 180
TCL: Running for 100000 steps
ETITLE: TS BOND ANGLE DIHED IMPRP ELECT VDW BOUNDARY MISC KINETIC TOTAL TEMP POTENTIAL TOTAL3 TEMPAVG PRESSURE GPRESSURE VOLUME PRESSAVG GPRESSAVG
ENERGY: 500000 0.7340 4.5959 6.2784 0.0000 -13525.9184 2244.0720 0.0000 0.0000 894.6965 -10375.5417 152.1310 -11270.2381 -10373.9097 152.1310 -123.5459 -84.5283 29032.2768 -123.5459 -84.5283
ENERGY: 600000 2.0055 4.8793 3.9617 0.0000 -13117.6252 2101.4980 0.0000 0.0000 1059.2889 -9945.9918 180.1177 -11005.2807 -9944.8255 179.8032 -409.7640 -311.0018 29194.5348 3.3537 3.2346
TCL: Running 100000 steps at 210 kelvin.
TCL: Setting parameter langevinTemp to 210
TCL: Running for 100000 steps
ETITLE: TS BOND ANGLE DIHED IMPRP ELECT VDW BOUNDARY MISC KINETIC TOTAL TEMP POTENTIAL TOTAL3 TEMPAVG PRESSURE GPRESSURE VOLUME PRESSAVG GPRESSAVG
ENERGY: 600000 2.0055 4.8793 3.9617 0.0000 -13117.6252 2101.4980 0.0000 0.0000 1058.7452 -9946.5355 180.0253 -11005.2807 -9944.6673 180.0253 -376.9378 -311.4071 29194.5348 -376.9378 -311.4071
ENERGY: 700000 1.9993 3.5756 5.1821 0.0000 -12388.2181 1867.6321 0.0000 0.0000 1178.8674 -9330.9615 200.4504 -10509.8290 -9326.8884 210.1041 -414.5652 -375.7620 29123.1389 3.9944 4.0075
TCL: Running 100000 steps at 240 kelvin.
TCL: Setting parameter langevinTemp to 240
TCL: Running for 100000 steps
ETITLE: TS BOND ANGLE DIHED IMPRP ELECT VDW BOUNDARY MISC KINETIC TOTAL TEMP POTENTIAL TOTAL3 TEMPAVG PRESSURE GPRESSURE VOLUME PRESSAVG GPRESSAVG
ENERGY: 700000 1.9993 3.5756 5.1821 0.0000 -12388.2181 1867.6321 0.0000 0.0000 1178.2487 -9331.5803 200.3452 -10509.8290 -9329.1209 200.3452 -439.7660 -375.5813 29123.1389 -439.7660 -375.5813
ENERGY: 800000 2.3325 3.1385 8.2232 0.0000 -11887.8694 1743.9467 0.0000 0.0000 1440.8779 -8689.3506 245.0018 -10130.2285 -8684.1670 240.6449 -183.1646 -99.0377 29440.1401 3.8056 3.8084
TCL: Running 100000 steps at 270 kelvin.
TCL: Setting parameter langevinTemp to 270
TCL: Running for 100000 steps
ETITLE: TS BOND ANGLE DIHED IMPRP ELECT VDW BOUNDARY MISC KINETIC TOTAL TEMP POTENTIAL TOTAL3 TEMPAVG PRESSURE GPRESSURE VOLUME PRESSAVG GPRESSAVG
ENERGY: 800000 2.3325 3.1385 8.2232 0.0000 -11887.8694 1743.9467 0.0000 0.0000 1440.1886 -8690.0399 244.8846 -10130.2285 -8687.4204 244.8846 -165.9375 -96.7846 29440.1401 -165.9375 -96.7846
ENERGY: 900000 2.7735 5.3146 11.6671 0.0000 -11172.8967 1488.0580 0.0000 0.0000 1544.2615 -8120.8219 262.5808 -9665.0834 -8116.8403 270.3784 -547.1715 -454.0068 29769.2912 3.2068 3.1880
TCL: Running 1000000 steps at 300 kelvin.
TCL: Setting parameter langevinTemp to 300
TCL: Running for 1000000 steps
ETITLE: TS BOND ANGLE DIHED IMPRP ELECT VDW BOUNDARY MISC KINETIC TOTAL TEMP POTENTIAL TOTAL3 TEMPAVG PRESSURE GPRESSURE VOLUME PRESSAVG GPRESSAVG
ENERGY: 900000 2.7735 5.3146 11.6671 0.0000 -11172.8967 1488.0580 0.0000 0.0000 1543.5305 -8121.5530 262.4565 -9665.0834 -8119.8696 262.4565 -537.6542 -452.9268 29769.2912 -537.6542 -452.9268
ENERGY: 1100000 5.8698 4.6313 2.9196 0.0000 -10712.6471 1446.0227 0.0000 0.0000 1776.3187 -7476.8850 302.0389 -9253.2037 -7474.5373 299.8813 14.8245 66.1679 30294.9797 3.9133 3.9881
ENERGY: 1300000 5.9879 7.4399 5.9285 0.0000 -10612.3880 1408.4475 0.0000 0.0000 1775.6184 -7408.9658 301.9199 -9184.5842 -7402.8822 300.4031 -92.8720 21.1274 30600.0794 4.0316 3.9936
ENERGY: 1500000 2.5138 1.9058 7.5700 0.0000 -10692.1570 1365.4105 0.0000 0.0000 1738.3395 -7576.4174 295.5811 -9314.7569 -7571.7200 300.4540 -1153.1754 -1039.0483 31074.9506 3.1141 3.1713
ENERGY: 1700000 3.0401 8.7486 2.4799 0.0000 -10683.0042 1426.9434 0.0000 0.0000 1753.7134 -7488.0789 298.1952 -9241.7923 -7483.0907 300.1032 -366.7540 -287.4301 30665.9544 4.0161 3.8602
ENERGY: 1900000 5.2733 3.4648 3.8900 0.0000 -10718.3322 1431.8027 0.0000 0.0000 1819.6316 -7454.2697 309.4037 -9273.9013 -7449.0342 299.6490 -64.2687 11.5194 30391.8068 2.1862 2.1304
TCL: Exiting due to exit command.
