Info: SIMULATION PARAMETERS:
Info: TIMESTEP               2
Info: NUMBER OF STEPS        0
Info: STEPS PER CYCLE        10
Info: PERIODIC CELL BASIS 1  36.281 0 0
Info: PERIODIC CELL BASIS 2  0 35.411 0
Info: PERIODIC CELL BASIS 3  0 0 34.954
Info: PERIODIC CELL CENTER   0 0 0
Info: WRAPPING WATERS AROUND PERIODIC BOUNDARIES ON OUTPUT.
Info: WRAPPING ALL CLUSTERS AROUND PERIODIC BOUNDARIES ON OUTPUT.
Info: FIRST LDB TIMESTEP     50
Info: LAST LDB TIMESTEP     -1
Info: HOM BACKGROUND SCALING 1
Info: PME BACKGROUND SCALING 1
Info: MIN ATOMS PER PATCH    40
Info: EMPTY PATCH LOAD       40 ATOMS
Info: INITIAL TEMPERATURE    300
Info: CENTER OF MASS MOVING INITIALLY? NO
Info: DIELECTRIC             1
Info: EXCLUDE                SCALED ONE-FOUR
Info: 1-4 ELECTROSTATICS SCALED BY 0.833333
Info: MODIFIED 1-4 VDW PARAMETERS WILL BE USED
Info: DCD FILENAME           mobley_8573194_equil.dcd
Info: DCD FREQUENCY          100000
Info: DCD FIRST STEP         100000
Info: DCD FILE WILL CONTAIN UNIT CELL DATA
Info: XST FILENAME           mobley_8573194_equil.xst
Info: XST FREQUENCY          100000
Info: NO VELOCITY DCD OUTPUT
Info: NO FORCE DCD OUTPUT
Info: OUTPUT FILENAME        mobley_8573194_equil
Info: BINARY OUTPUT FILES WILL BE USED
Info: RESTART FILENAME       mobley_8573194_equil.restart
Info: RESTART FREQUENCY      100000
Info: BINARY RESTART FILES WILL BE USED
Info: CUTOFF                 9
Info: PAIRLIST DISTANCE      11
Info: PAIRLIST SHRINK RATE   0.01
Info: PAIRLIST GROW RATE     0.01
Info: PAIRLIST TRIGGER       0.3
Info: PAIRLISTS PER CYCLE    2
Info: PAIRLISTS ENABLED
Info: MARGIN                 8
Info: HYDROGEN GROUP CUTOFF  2.5
Info: PATCH DIMENSION        21.5
Info: ENERGY OUTPUT STEPS    100000
Info: ENERGY EVALUATION STEPS    100000
Info: OUTPUT ENERGY PRECISION 4
Info: CROSSTERM ENERGY INCLUDED IN DIHEDRAL
Info: TIMING OUTPUT STEPS    1000000
Info: PRESSURE OUTPUT STEPS  100000
Info: LANGEVIN DYNAMICS ACTIVE
Info: LANGEVIN TEMPERATURE   30
Info: LANGEVIN USING BBK INTEGRATOR
Info: LANGEVIN DAMPING COEFFICIENT IS 1 INVERSE PS
Info: LANGEVIN DYNAMICS APPLIED TO HYDROGENS
Info: LANGEVIN PISTON PRESSURE CONTROL ACTIVE
Info:        TARGET PRESSURE IS 1.01325 BAR
Info:     OSCILLATION PERIOD IS 50 FS
Info:             DECAY TIME IS 25 FS
Info:     PISTON TEMPERATURE IS 300 K
Info:       PRESSURE CONTROL IS GROUP-BASED
Info:    INITIAL STRAIN RATE IS 0 0 0
Info:       CELL FLUCTUATION IS ISOTROPIC
Info: PARTICLE MESH EWALD (PME) ACTIVE
Info: PME TOLERANCE               1e-06
Info: PME EWALD COEFFICIENT       0.348832
Info: PME INTERPOLATION ORDER     4
Info: PME GRID DIMENSIONS         40 36 36
Info: PME MAXIMUM GRID SPACING    1
Info: FULL ELECTROSTATIC EVALUATION FREQUENCY      2
Info: USING VERLET I (r-RESPA) MTS SCHEME.
Info: C1 SPLITTING OF LONG RANGE ELECTROSTATICS
Info: PLACING ATOMS IN PATCHES BY HYDROGEN GROUPS
Info: RIGID BONDS TO HYDROGEN : ALL
Info:         ERROR TOLERANCE : 1e-08
Info:          MAX ITERATIONS : 100
Info: RIGID WATER USING SETTLE ALGORITHM
Info: RANDOM NUMBER SEED     1743238689
Info: USE HYDROGEN BONDS?    NO
Info: Using AMBER format force field!
Info: AMBER PARM FILE        mobley_8573194.prmtop
Info: COORDINATE PDB         mobley_8573194.pdb
Info: Exclusions will be read from PARM file!
Info: SCNB (VDW SCALING)     2
Info: USING ARITHMETIC MEAN TO COMBINE L-J SIGMA PARAMETERS
Info: BINARY COORDINATES     mobley_8573194_min.coor
Info: SUMMARY OF PARAMETERS:
Info: 7 BONDS
Info: 8 ANGLES
Info: 8 DIHEDRAL
Info: 0 IMPROPER
Info: 0 CROSSTERM
Info: 0 VDW
Info: 28 VDW_PAIRS
Info: 0 NBTHOLE_PAIRS
Info: STRUCTURE SUMMARY:
Info: 2965 ATOMS
Info: 2964 BONDS
Info: 21 ANGLES
Info: 29 DIHEDRALS
Info: 0 IMPROPERS
Info: 0 CROSSTERMS
Info: 3009 EXCLUSIONS
Info: 2960 RIGID BONDS
Info: 5935 DEGREES OF FREEDOM
Info: 989 HYDROGEN GROUPS
Info: 4 ATOMS IN LARGEST HYDROGEN GROUP
Info: 989 MIGRATION GROUPS
Info: 4 ATOMS IN LARGEST MIGRATION GROUP
Info: TOTAL MASS = 17799.8 amu
Info: TOTAL CHARGE = 9.99738e-05 e
Info: MASS DENSITY = 0.658205 g/cm^3
Info: ATOM DENSITY = 0.0660253 atoms/A^3
Info: ADDED 0 IMPLICIT EXCLUSIONS
Info: NONBONDED TABLE R-SQUARED SPACING: 0.0625
Info: NONBONDED TABLE SIZE: 705 POINTS
Info: REMOVING COM VELOCITY -0.00469322 -0.0486689 0.326745
TCL: Running for 100000 steps
ETITLE: TS BOND ANGLE DIHED IMPRP ELECT VDW BOUNDARY MISC KINETIC TOTAL TEMP POTENTIAL TOTAL3 TEMPAVG PRESSURE GPRESSURE VOLUME PRESSAVG GPRESSAVG
ENERGY: 0 0.0633 0.2495 1.3218 0.0000 -13767.7014 2452.3005 0.0000 0.0000 1737.3031 -9576.4633 294.6085 -11313.7663 -9576.1551 294.6085 672.9854 704.1381 44907.0288 672.9854 704.1381
ENERGY: 100000 0.4145 1.0714 2.0107 0.0000 -14325.4457 2501.0053 0.0000 0.0000 179.1521 -11641.7917 30.3803 -11820.9438 -11641.3068 30.9402 -100.4565 -40.8512 29010.2833 3.8483 3.7965
TCL: Running 100000 steps at 60 kelvin.
TCL: Setting parameter langevinTemp to 60
TCL: Running for 100000 steps
ETITLE: TS BOND ANGLE DIHED IMPRP ELECT VDW BOUNDARY MISC KINETIC TOTAL TEMP POTENTIAL TOTAL3 TEMPAVG PRESSURE GPRESSURE VOLUME PRESSAVG GPRESSAVG
ENERGY: 100000 0.4145 1.0714 2.0107 0.0000 -14325.4457 2501.0053 0.0000 0.0000 179.0622 -11641.8816 30.3650 -11820.9438 -11641.5678 30.3650 -103.6670 -40.7626 29010.2833 -103.6670 -40.7626
ENERGY: 200000 0.4798 1.1654 1.7100 0.0000 -14325.1977 2566.4348 0.0000 0.0000 351.6236 -11403.7841 59.6276 -11755.4077 -11402.9301 59.9121 1008.0537 1044.1396 28643.3419 4.0238 4.0824
TCL: Running 100000 steps at 90 kelvin.
TCL: Setting parameter langevinTemp to 90
TCL: Running for 100000 steps
ETITLE: TS BOND ANGLE DIHED IMPRP ELECT VDW BOUNDARY MISC KINETIC TOTAL TEMP POTENTIAL TOTAL3 TEMPAVG PRESSURE GPRESSURE VOLUME PRESSAVG GPRESSAVG
ENERGY: 200000 0.4798 1.1654 1.7100 0.0000 -14325.1977 2566.4348 0.0000 0.0000 351.4463 -11403.9613 59.5976 -11755.4077 -11403.1759 59.5976 996.7124 1043.8969 28643.3419 996.7124 1043.8969
ENERGY: 300000 0.3745 2.3676 1.6767 0.0000 -14063.3486 2439.0607 0.0000 0.0000 531.7266 -11088.1425 90.1692 -11619.8691 -11086.0612 90.0961 146.4512 172.5050 29093.1678 3.5433 3.5631
TCL: Running 100000 steps at 120 kelvin.
TCL: Setting parameter langevinTemp to 120
TCL: Running for 100000 steps
ETITLE: TS BOND ANGLE DIHED IMPRP ELECT VDW BOUNDARY MISC KINETIC TOTAL TEMP POTENTIAL TOTAL3 TEMPAVG PRESSURE GPRESSURE VOLUME PRESSAVG GPRESSAVG
ENERGY: 300000 0.3745 2.3676 1.6767 0.0000 -14063.3486 2439.0607 0.0000 0.0000 531.4701 -11088.3990 90.1257 -11619.8691 -11087.2763 90.1257 114.4021 173.6776 29093.1678 114.4021 173.6776
ENERGY: 400000 1.6214 1.6025 2.0358 0.0000 -13964.4546 2456.7482 0.0000 0.0000 702.0724 -10800.3743 119.0561 -11502.4467 -10798.5110 119.9132 600.8337 668.4761 29156.9390 3.5915 3.6221
TCL: Running 100000 steps at 150 kelvin.
TCL: Setting parameter langevinTemp to 150
TCL: Running for 100000 steps
ETITLE: TS BOND ANGLE DIHED IMPRP ELECT VDW BOUNDARY MISC KINETIC TOTAL TEMP POTENTIAL TOTAL3 TEMPAVG PRESSURE GPRESSURE VOLUME PRESSAVG GPRESSAVG
ENERGY: 400000 1.6214 1.6025 2.0358 0.0000 -13964.4546 2456.7482 0.0000 0.0000 701.7103 -10800.7364 118.9947 -11502.4467 -10799.5520 118.9947 604.6542 668.5386 29156.9390 604.6542 668.5386
ENERGY: 500000 0.3130 2.9436 1.4747 0.0000 -13481.7214 2152.8154 0.0000 0.0000 860.2946 -10463.8800 145.8871 -11324.1747 -10461.9906 150.0139 -1087.4858 -1011.8988 29523.6990 2.8885 2.8766
TCL: Running 100000 steps at 180 kelvin.
TCL: Setting parameter langevinTemp to 180
TCL: Running for 100000 steps
ETITLE: TS BOND ANGLE DIHED IMPRP ELECT VDW BOUNDARY MISC KINETIC TOTAL TEMP POTENTIAL TOTAL3 TEMPAVG PRESSURE GPRESSURE VOLUME PRESSAVG GPRESSAVG
ENERGY: 500000 0.3130 2.9436 1.4747 0.0000 -13481.7214 2152.8154 0.0000 0.0000 859.8513 -10464.3234 145.8119 -11324.1747 -10462.7728 145.8119 -1060.5779 -1012.0024 29523.6990 -1060.5779 -1012.0024
ENERGY: 600000 0.8736 1.6675 1.8349 0.0000 -13153.7270 2121.6121 0.0000 0.0000 1079.0904 -9948.6485 182.9900 -11027.7388 -9946.4776 180.3405 -26.5003 -15.5467 29131.0277 2.5767 2.6785
TCL: Running 100000 steps at 210 kelvin.
TCL: Setting parameter langevinTemp to 210
TCL: Running for 100000 steps
ETITLE: TS BOND ANGLE DIHED IMPRP ELECT VDW BOUNDARY MISC KINETIC TOTAL TEMP POTENTIAL TOTAL3 TEMPAVG PRESSURE GPRESSURE VOLUME PRESSAVG GPRESSAVG
ENERGY: 600000 0.8736 1.6675 1.8349 0.0000 -13153.7270 2121.6121 0.0000 0.0000 1078.5703 -9949.1685 182.9019 -11027.7388 -9946.9241 182.9019 -84.5005 -15.5259 29131.0277 -84.5005 -15.5259
ENERGY: 700000 1.5977 3.9399 2.1383 0.0000 -12480.9152 1890.4329 0.0000 0.0000 1250.5522 -9332.2541 212.0662 -10582.8063 -9329.8122 210.0772 -329.1905 -267.2753 28991.9640 4.5001 4.3762
TCL: Running 100000 steps at 240 kelvin.
TCL: Setting parameter langevinTemp to 240
TCL: Running for 100000 steps
ETITLE: TS BOND ANGLE DIHED IMPRP ELECT VDW BOUNDARY MISC KINETIC TOTAL TEMP POTENTIAL TOTAL3 TEMPAVG PRESSURE GPRESSURE VOLUME PRESSAVG GPRESSAVG
ENERGY: 700000 1.5977 3.9399 2.1383 0.0000 -12480.9152 1890.4329 0.0000 0.0000 1249.9377 -9332.8687 211.9620 -10582.8063 -9330.6684 211.9620 -349.1996 -267.8096 28991.9640 -349.1996 -267.8096
ENERGY: 800000 1.0028 2.3385 3.0825 0.0000 -11886.2548 1788.8849 0.0000 0.0000 1417.4396 -8673.5065 240.3667 -10090.9461 -8668.4426 239.5976 492.3926 547.5313 29204.7206 3.8690 3.8610
TCL: Running 100000 steps at 270 kelvin.
TCL: Setting parameter langevinTemp to 270
TCL: Running for 100000 steps
ETITLE: TS BOND ANGLE DIHED IMPRP ELECT VDW BOUNDARY MISC KINETIC TOTAL TEMP POTENTIAL TOTAL3 TEMPAVG PRESSURE GPRESSURE VOLUME PRESSAVG GPRESSAVG
ENERGY: 800000 1.0028 2.3385 3.0825 0.0000 -11886.2548 1788.8849 0.0000 0.0000 1416.7231 -8674.2230 240.2452 -10090.9461 -8672.1168 240.2452 477.4264 548.5670 29204.7206 477.4264 548.5670
ENERGY: 900000 1.8873 4.5612 3.2351 0.0000 -11277.0995 1549.8513 0.0000 0.0000 1569.6685 -8147.8961 266.1813 -9717.5647 -8146.7507 270.2084 -281.5550 -165.9237 29716.3254 3.0498 2.9408
TCL: Running 1000000 steps at 300 kelvin.
TCL: Setting parameter langevinTemp to 300
TCL: Running for 1000000 steps
ETITLE: TS BOND ANGLE DIHED IMPRP ELECT VDW BOUNDARY MISC KINETIC TOTAL TEMP POTENTIAL TOTAL3 TEMPAVG PRESSURE GPRESSURE VOLUME PRESSAVG GPRESSAVG
ENERGY: 900000 1.8873 4.5612 3.2351 0.0000 -11277.0995 1549.8513 0.0000 0.0000 1568.8810 -8148.6837 266.0478 -9717.5647 -8146.5766 266.0478 -260.4095 -168.2091 29716.3254 -260.4095 -168.2091
ENERGY: 1100000 2.3393 6.3034 3.5851 0.0000 -10752.6031 1406.1493 0.0000 0.0000 1735.3377 -7598.8882 294.2752 -9334.2259 -7597.5594 300.3634 -336.3723 -264.9871 30613.4072 2.6568 2.8070
ENERGY: 1300000 0.4256 5.1083 2.3375 0.0000 -10833.9145 1495.4131 0.0000 0.0000 1774.0342 -7556.5958 300.8373 -9330.6300 -7552.6200 299.8777 38.7233 188.3351 30869.2152 2.5419 2.5858
ENERGY: 1500000 1.2224 5.3705 1.6249 0.0000 -10819.8164 1515.8569 0.0000 0.0000 1750.9608 -7544.7808 296.9245 -9295.7417 -7540.5165 300.0001 552.9071 618.0579 30277.7406 3.5255 3.5301
ENERGY: 1700000 0.6200 4.1445 1.9566 0.0000 -10839.8842 1506.4763 0.0000 0.0000 1795.4821 -7531.2047 304.4744 -9326.6868 -7526.2715 299.9840 500.2598 595.6162 30289.3623 3.3361 3.2544
ENERGY: 1900000 1.6784 4.9781 2.3313 0.0000 -10645.6747 1386.2446 0.0000 0.0000 1780.3181 -7470.1242 301.9029 -9250.4424 -7465.8271 300.3912 -708.2899 -627.0667 31085.0290 2.8284 3.1571
TCL: Exiting due to exit command.
