Info: SIMULATION PARAMETERS:
Info: TIMESTEP               2
Info: NUMBER OF STEPS        0
Info: STEPS PER CYCLE        10
Info: PERIODIC CELL BASIS 1  35.89 0 0
Info: PERIODIC CELL BASIS 2  0 35.411 0
Info: PERIODIC CELL BASIS 3  0 0 34.954
Info: PERIODIC CELL CENTER   0 0 0
Info: WRAPPING WATERS AROUND PERIODIC BOUNDARIES ON OUTPUT.
Info: WRAPPING ALL CLUSTERS AROUND PERIODIC BOUNDARIES ON OUTPUT.
Info: FIRST LDB TIMESTEP     50
Info: LAST LDB TIMESTEP     -1
Info: HOM BACKGROUND SCALING 1
Info: PME BACKGROUND SCALING 1
Info: MIN ATOMS PER PATCH    40
Info: EMPTY PATCH LOAD       40 ATOMS
Info: INITIAL TEMPERATURE    300
Info: CENTER OF MASS MOVING INITIALLY? NO
Info: DIELECTRIC             1
Info: EXCLUDE                SCALED ONE-FOUR
Info: 1-4 ELECTROSTATICS SCALED BY 0.833333
Info: MODIFIED 1-4 VDW PARAMETERS WILL BE USED
Info: DCD FILENAME           mobley_7769613_equil.dcd
Info: DCD FREQUENCY          100000
Info: DCD FIRST STEP         100000
Info: DCD FILE WILL CONTAIN UNIT CELL DATA
Info: XST FILENAME           mobley_7769613_equil.xst
Info: XST FREQUENCY          100000
Info: NO VELOCITY DCD OUTPUT
Info: NO FORCE DCD OUTPUT
Info: OUTPUT FILENAME        mobley_7769613_equil
Info: BINARY OUTPUT FILES WILL BE USED
Info: RESTART FILENAME       mobley_7769613_equil.restart
Info: RESTART FREQUENCY      100000
Info: BINARY RESTART FILES WILL BE USED
Info: CUTOFF                 9
Info: PAIRLIST DISTANCE      11
Info: PAIRLIST SHRINK RATE   0.01
Info: PAIRLIST GROW RATE     0.01
Info: PAIRLIST TRIGGER       0.3
Info: PAIRLISTS PER CYCLE    2
Info: PAIRLISTS ENABLED
Info: MARGIN                 8
Info: HYDROGEN GROUP CUTOFF  2.5
Info: PATCH DIMENSION        21.5
Info: ENERGY OUTPUT STEPS    100000
Info: ENERGY EVALUATION STEPS    100000
Info: OUTPUT ENERGY PRECISION 4
Info: CROSSTERM ENERGY INCLUDED IN DIHEDRAL
Info: TIMING OUTPUT STEPS    1000000
Info: PRESSURE OUTPUT STEPS  100000
Info: LANGEVIN DYNAMICS ACTIVE
Info: LANGEVIN TEMPERATURE   30
Info: LANGEVIN USING BBK INTEGRATOR
Info: LANGEVIN DAMPING COEFFICIENT IS 1 INVERSE PS
Info: LANGEVIN DYNAMICS APPLIED TO HYDROGENS
Info: LANGEVIN PISTON PRESSURE CONTROL ACTIVE
Info:        TARGET PRESSURE IS 1.01325 BAR
Info:     OSCILLATION PERIOD IS 50 FS
Info:             DECAY TIME IS 25 FS
Info:     PISTON TEMPERATURE IS 300 K
Info:       PRESSURE CONTROL IS GROUP-BASED
Info:    INITIAL STRAIN RATE IS 0 0 0
Info:       CELL FLUCTUATION IS ISOTROPIC
Info: PARTICLE MESH EWALD (PME) ACTIVE
Info: PME TOLERANCE               1e-06
Info: PME EWALD COEFFICIENT       0.348832
Info: PME INTERPOLATION ORDER     4
Info: PME GRID DIMENSIONS         36 36 36
Info: PME MAXIMUM GRID SPACING    1
Info: FULL ELECTROSTATIC EVALUATION FREQUENCY      2
Info: USING VERLET I (r-RESPA) MTS SCHEME.
Info: C1 SPLITTING OF LONG RANGE ELECTROSTATICS
Info: PLACING ATOMS IN PATCHES BY HYDROGEN GROUPS
Info: RIGID BONDS TO HYDROGEN : ALL
Info:         ERROR TOLERANCE : 1e-08
Info:          MAX ITERATIONS : 100
Info: RIGID WATER USING SETTLE ALGORITHM
Info: RANDOM NUMBER SEED     1743210974
Info: USE HYDROGEN BONDS?    NO
Info: Using AMBER format force field!
Info: AMBER PARM FILE        mobley_7769613.prmtop
Info: COORDINATE PDB         mobley_7769613.pdb
Info: Exclusions will be read from PARM file!
Info: SCNB (VDW SCALING)     2
Info: USING ARITHMETIC MEAN TO COMBINE L-J SIGMA PARAMETERS
Info: BINARY COORDINATES     mobley_7769613_min.coor
Info: SUMMARY OF PARAMETERS:
Info: 5 BONDS
Info: 4 ANGLES
Info:   4 HARMONIC
Info:   0 COSINE-BASED
Info: 3 DIHEDRAL
Info: 0 IMPROPER
Info: 0 CROSSTERM
Info: 0 VDW
Info: 15 VDW_PAIRS
Info: 0 NBTHOLE_PAIRS
Info: STRUCTURE SUMMARY:
Info: 2942 ATOMS
Info: 2941 BONDS
Info: 24 ANGLES
Info: 36 DIHEDRALS
Info: 0 IMPROPERS
Info: 0 CROSSTERMS
Info: 2992 EXCLUSIONS
Info: 2937 RIGID BONDS
Info: 5889 DEGREES OF FREEDOM
Info: 981 HYDROGEN GROUPS
Info: 4 ATOMS IN LARGEST HYDROGEN GROUP
Info: 981 MIGRATION GROUPS
Info: 4 ATOMS IN LARGEST MIGRATION GROUP
Info: TOTAL MASS = 17720.6 amu
Info: TOTAL CHARGE = 0.00040001 e
Info: MASS DENSITY = 0.662414 g/cm^3
Info: ATOM DENSITY = 0.0662269 atoms/A^3
Info: ADDED 0 IMPLICIT EXCLUSIONS
Info: NONBONDED TABLE R-SQUARED SPACING: 0.0625
Info: NONBONDED TABLE SIZE: 705 POINTS
Info: REMOVING COM VELOCITY 0.0959593 -0.119983 -0.0610178
TCL: Running for 100000 steps
ETITLE: TS BOND ANGLE DIHED IMPRP ELECT VDW BOUNDARY MISC KINETIC TOTAL TEMP POTENTIAL TOTAL3 TEMPAVG PRESSURE GPRESSURE VOLUME PRESSAVG GPRESSAVG
ENERGY: 0 0.0550 0.3976 4.9583 0.0000 -13591.0342 2428.6281 0.0000 0.0000 1751.4036 -9405.5917 299.3195 -11156.9953 -9405.2647 299.3195 617.7354 649.9861 44423.0662 617.7354 649.9861
ENERGY: 100000 0.1213 1.4937 5.0127 0.0000 -14135.1397 2407.7592 0.0000 0.0000 173.0747 -11547.6781 29.5789 -11720.7528 -11547.2080 30.9073 -500.4839 -459.3677 28626.2556 3.0907 3.1457
TCL: Running 100000 steps at 60 kelvin.
TCL: Setting parameter langevinTemp to 60
TCL: Running for 100000 steps
ETITLE: TS BOND ANGLE DIHED IMPRP ELECT VDW BOUNDARY MISC KINETIC TOTAL TEMP POTENTIAL TOTAL3 TEMPAVG PRESSURE GPRESSURE VOLUME PRESSAVG GPRESSAVG
ENERGY: 100000 0.1213 1.4937 5.0127 0.0000 -14135.1397 2407.7592 0.0000 0.0000 172.9847 -11547.7681 29.5635 -11720.7528 -11547.3924 29.5635 -497.7757 -459.3024 28626.2556 -497.7757 -459.3024
ENERGY: 200000 0.4139 1.5954 4.9898 0.0000 -14027.7592 2381.5313 0.0000 0.0000 360.0729 -11279.1560 61.5374 -11639.2288 -11278.0066 59.8718 -344.0210 -279.0752 28419.4079 3.4350 3.4828
TCL: Running 100000 steps at 90 kelvin.
TCL: Setting parameter langevinTemp to 90
TCL: Running for 100000 steps
ETITLE: TS BOND ANGLE DIHED IMPRP ELECT VDW BOUNDARY MISC KINETIC TOTAL TEMP POTENTIAL TOTAL3 TEMPAVG PRESSURE GPRESSURE VOLUME PRESSAVG GPRESSAVG
ENERGY: 200000 0.4139 1.5954 4.9898 0.0000 -14027.7592 2381.5313 0.0000 0.0000 359.9007 -11279.3282 61.5080 -11639.2288 -11278.4499 61.5080 -337.6874 -278.5756 28419.4079 -337.6874 -278.5756
ENERGY: 300000 0.2430 1.3576 5.1260 0.0000 -13966.9505 2416.9657 0.0000 0.0000 526.7741 -11016.4841 90.0271 -11543.2582 -11014.8921 89.9202 354.2414 398.9070 28499.7195 3.7072 3.7913
TCL: Running 100000 steps at 120 kelvin.
TCL: Setting parameter langevinTemp to 120
TCL: Running for 100000 steps
ETITLE: TS BOND ANGLE DIHED IMPRP ELECT VDW BOUNDARY MISC KINETIC TOTAL TEMP POTENTIAL TOTAL3 TEMPAVG PRESSURE GPRESSURE VOLUME PRESSAVG GPRESSAVG
ENERGY: 300000 0.2430 1.3576 5.1260 0.0000 -13966.9505 2416.9657 0.0000 0.0000 526.5137 -11016.7445 89.9826 -11543.2582 -11015.6216 89.9826 351.8730 399.0994 28499.7195 351.8730 399.0994
ENERGY: 400000 0.3193 3.9229 5.2549 0.0000 -13678.4075 2275.5930 0.0000 0.0000 693.3912 -10699.9261 118.5024 -11393.3173 -10698.7712 120.5034 -275.3389 -220.8964 28779.0953 4.6573 4.7422
TCL: Running 100000 steps at 150 kelvin.
TCL: Setting parameter langevinTemp to 150
TCL: Running for 100000 steps
ETITLE: TS BOND ANGLE DIHED IMPRP ELECT VDW BOUNDARY MISC KINETIC TOTAL TEMP POTENTIAL TOTAL3 TEMPAVG PRESSURE GPRESSURE VOLUME PRESSAVG GPRESSAVG
ENERGY: 400000 0.3193 3.9229 5.2549 0.0000 -13678.4075 2275.5930 0.0000 0.0000 693.0507 -10700.2667 118.4442 -11393.3173 -10699.1229 118.4442 -283.1931 -220.9024 28779.0953 -283.1931 -220.9024
ENERGY: 500000 0.7978 3.2270 5.7312 0.0000 -13591.8139 2326.7828 0.0000 0.0000 855.6423 -10399.6327 146.2315 -11255.2750 -10396.2623 150.0253 657.6732 676.5265 28683.8251 1.7058 1.6443
TCL: Running 100000 steps at 180 kelvin.
TCL: Setting parameter langevinTemp to 180
TCL: Running for 100000 steps
ETITLE: TS BOND ANGLE DIHED IMPRP ELECT VDW BOUNDARY MISC KINETIC TOTAL TEMP POTENTIAL TOTAL3 TEMPAVG PRESSURE GPRESSURE VOLUME PRESSAVG GPRESSAVG
ENERGY: 500000 0.7978 3.2270 5.7312 0.0000 -13591.8139 2326.7828 0.0000 0.0000 855.1860 -10400.0890 146.1536 -11255.2750 -10398.5006 146.1536 631.9193 677.1081 28683.8251 631.9193 677.1081
ENERGY: 600000 1.0466 2.7313 5.0255 0.0000 -13199.4141 2196.5842 0.0000 0.0000 1058.7618 -9935.2648 180.9452 -10994.0266 -9932.0126 179.6884 445.7160 527.6319 28758.8359 2.9504 2.9431
TCL: Running 100000 steps at 210 kelvin.
TCL: Setting parameter langevinTemp to 210
TCL: Running for 100000 steps
ETITLE: TS BOND ANGLE DIHED IMPRP ELECT VDW BOUNDARY MISC KINETIC TOTAL TEMP POTENTIAL TOTAL3 TEMPAVG PRESSURE GPRESSURE VOLUME PRESSAVG GPRESSAVG
ENERGY: 600000 1.0466 2.7313 5.0255 0.0000 -13199.4141 2196.5842 0.0000 0.0000 1058.2144 -9935.8121 180.8517 -10994.0266 -9933.9428 180.8517 478.7951 528.8774 28758.8359 478.7951 528.8774
ENERGY: 700000 0.0168 4.4706 5.1080 0.0000 -12219.3885 1729.3581 0.0000 0.0000 1240.9217 -9239.5133 212.0768 -10480.4350 -9238.0613 209.8949 -1398.9799 -1346.0076 29078.7007 3.7804 3.8042
TCL: Running 100000 steps at 240 kelvin.
TCL: Setting parameter langevinTemp to 240
TCL: Running for 100000 steps
ETITLE: TS BOND ANGLE DIHED IMPRP ELECT VDW BOUNDARY MISC KINETIC TOTAL TEMP POTENTIAL TOTAL3 TEMPAVG PRESSURE GPRESSURE VOLUME PRESSAVG GPRESSAVG
ENERGY: 700000 0.0168 4.4706 5.1080 0.0000 -12219.3885 1729.3581 0.0000 0.0000 1240.3184 -9240.1166 211.9737 -10480.4350 -9237.6014 211.9737 -1427.5374 -1349.6094 29078.7007 -1427.5374 -1349.6094
ENERGY: 800000 0.8969 5.7986 4.9766 0.0000 -11719.3861 1640.6886 0.0000 0.0000 1384.9628 -8682.0626 236.6938 -10067.0254 -8676.6733 239.5795 -607.0738 -544.8016 28889.5281 3.9981 3.9377
TCL: Running 100000 steps at 270 kelvin.
TCL: Setting parameter langevinTemp to 270
TCL: Running for 100000 steps
ETITLE: TS BOND ANGLE DIHED IMPRP ELECT VDW BOUNDARY MISC KINETIC TOTAL TEMP POTENTIAL TOTAL3 TEMPAVG PRESSURE GPRESSURE VOLUME PRESSAVG GPRESSAVG
ENERGY: 800000 0.8969 5.7986 4.9766 0.0000 -11719.3861 1640.6886 0.0000 0.0000 1384.2515 -8682.7739 236.5723 -10067.0254 -8680.4532 236.5723 -621.3362 -542.6449 28889.5281 -621.3362 -542.6449
ENERGY: 900000 2.2521 4.9745 5.0381 0.0000 -11290.4728 1615.8072 0.0000 0.0000 1603.4144 -8058.9866 274.0278 -9662.4010 -8056.7504 269.7539 627.4774 670.4890 29101.5206 2.9379 2.9457
TCL: Running 1000000 steps at 300 kelvin.
TCL: Setting parameter langevinTemp to 300
TCL: Running for 1000000 steps
ETITLE: TS BOND ANGLE DIHED IMPRP ELECT VDW BOUNDARY MISC KINETIC TOTAL TEMP POTENTIAL TOTAL3 TEMPAVG PRESSURE GPRESSURE VOLUME PRESSAVG GPRESSAVG
ENERGY: 900000 2.2521 4.9745 5.0381 0.0000 -11290.4728 1615.8072 0.0000 0.0000 1602.6163 -8059.7847 273.8914 -9662.4010 -8057.1250 273.8914 579.9331 667.9195 29101.5206 579.9331 667.9195
ENERGY: 1100000 0.9810 5.5060 6.2149 0.0000 -10786.8387 1523.9708 0.0000 0.0000 1739.1997 -7510.9663 297.2339 -9250.1660 -7509.1367 299.8927 295.8700 372.1391 30785.2131 3.5373 3.5475
ENERGY: 1300000 4.0779 5.1881 6.1577 0.0000 -10536.3979 1347.1241 0.0000 0.0000 1779.7264 -7394.1237 304.1600 -9173.8501 -7390.7371 300.1427 -813.9307 -659.7458 30946.1860 1.9389 2.0967
ENERGY: 1500000 0.5514 6.7390 5.3886 0.0000 -10627.0099 1392.1358 0.0000 0.0000 1762.6364 -7459.5588 301.2393 -9222.1952 -7457.1218 300.3641 -265.6978 -179.1547 30200.6872 2.5819 2.7119
ENERGY: 1700000 0.3054 8.3948 5.2791 0.0000 -10641.5027 1401.4683 0.0000 0.0000 1752.2724 -7473.7827 299.4680 -9226.0551 -7469.8682 300.0270 -187.1399 -130.1513 30656.1693 3.1756 3.0646
ENERGY: 1900000 1.4935 5.1100 5.8017 0.0000 -10658.1338 1429.2378 0.0000 0.0000 1810.4156 -7406.0753 309.4048 -9216.4909 -7400.0009 299.5329 51.8908 131.1588 30335.8457 5.1616 5.2295
TCL: Exiting due to exit command.
