Info: SIMULATION PARAMETERS:
Info: TIMESTEP               2
Info: NUMBER OF STEPS        0
Info: STEPS PER CYCLE        10
Info: PERIODIC CELL BASIS 1  36.281 0 0
Info: PERIODIC CELL BASIS 2  0 34.1 0
Info: PERIODIC CELL BASIS 3  0 0 35.723
Info: PERIODIC CELL CENTER   0 0 0
Info: WRAPPING WATERS AROUND PERIODIC BOUNDARIES ON OUTPUT.
Info: WRAPPING ALL CLUSTERS AROUND PERIODIC BOUNDARIES ON OUTPUT.
Info: FIRST LDB TIMESTEP     50
Info: LAST LDB TIMESTEP     -1
Info: HOM BACKGROUND SCALING 1
Info: PME BACKGROUND SCALING 1
Info: MIN ATOMS PER PATCH    40
Info: EMPTY PATCH LOAD       40 ATOMS
Info: INITIAL TEMPERATURE    300
Info: CENTER OF MASS MOVING INITIALLY? NO
Info: DIELECTRIC             1
Info: EXCLUDE                SCALED ONE-FOUR
Info: 1-4 ELECTROSTATICS SCALED BY 0.833333
Info: MODIFIED 1-4 VDW PARAMETERS WILL BE USED
Info: DCD FILENAME           mobley_3777264_equil.dcd
Info: DCD FREQUENCY          100000
Info: DCD FIRST STEP         100000
Info: DCD FILE WILL CONTAIN UNIT CELL DATA
Info: XST FILENAME           mobley_3777264_equil.xst
Info: XST FREQUENCY          100000
Info: NO VELOCITY DCD OUTPUT
Info: NO FORCE DCD OUTPUT
Info: OUTPUT FILENAME        mobley_3777264_equil
Info: BINARY OUTPUT FILES WILL BE USED
Info: RESTART FILENAME       mobley_3777264_equil.restart
Info: RESTART FREQUENCY      100000
Info: BINARY RESTART FILES WILL BE USED
Info: CUTOFF                 9
Info: PAIRLIST DISTANCE      11
Info: PAIRLIST SHRINK RATE   0.01
Info: PAIRLIST GROW RATE     0.01
Info: PAIRLIST TRIGGER       0.3
Info: PAIRLISTS PER CYCLE    2
Info: PAIRLISTS ENABLED
Info: MARGIN                 8
Info: HYDROGEN GROUP CUTOFF  2.5
Info: PATCH DIMENSION        21.5
Info: ENERGY OUTPUT STEPS    100000
Info: ENERGY EVALUATION STEPS    100000
Info: OUTPUT ENERGY PRECISION 4
Info: CROSSTERM ENERGY INCLUDED IN DIHEDRAL
Info: TIMING OUTPUT STEPS    1000000
Info: PRESSURE OUTPUT STEPS  100000
Info: LANGEVIN DYNAMICS ACTIVE
Info: LANGEVIN TEMPERATURE   30
Info: LANGEVIN USING BBK INTEGRATOR
Info: LANGEVIN DAMPING COEFFICIENT IS 1 INVERSE PS
Info: LANGEVIN DYNAMICS APPLIED TO HYDROGENS
Info: LANGEVIN PISTON PRESSURE CONTROL ACTIVE
Info:        TARGET PRESSURE IS 1.01325 BAR
Info:     OSCILLATION PERIOD IS 50 FS
Info:             DECAY TIME IS 25 FS
Info:     PISTON TEMPERATURE IS 300 K
Info:       PRESSURE CONTROL IS GROUP-BASED
Info:    INITIAL STRAIN RATE IS 0 0 0
Info:       CELL FLUCTUATION IS ISOTROPIC
Info: PARTICLE MESH EWALD (PME) ACTIVE
Info: PME TOLERANCE               1e-06
Info: PME EWALD COEFFICIENT       0.348832
Info: PME INTERPOLATION ORDER     4
Info: PME GRID DIMENSIONS         40 36 36
Info: PME MAXIMUM GRID SPACING    1
Info: FULL ELECTROSTATIC EVALUATION FREQUENCY      2
Info: USING VERLET I (r-RESPA) MTS SCHEME.
Info: C1 SPLITTING OF LONG RANGE ELECTROSTATICS
Info: PLACING ATOMS IN PATCHES BY HYDROGEN GROUPS
Info: RIGID BONDS TO HYDROGEN : ALL
Info:         ERROR TOLERANCE : 1e-08
Info:          MAX ITERATIONS : 100
Info: RIGID WATER USING SETTLE ALGORITHM
Info: RANDOM NUMBER SEED     1743229705
Info: USE HYDROGEN BONDS?    NO
Info: Using AMBER format force field!
Info: AMBER PARM FILE        mobley_3777264.prmtop
Info: COORDINATE PDB         mobley_3777264.pdb
Info: Exclusions will be read from PARM file!
Info: SCNB (VDW SCALING)     2
Info: USING ARITHMETIC MEAN TO COMBINE L-J SIGMA PARAMETERS
Info: BINARY COORDINATES     mobley_3777264_min.coor
Info: SUMMARY OF PARAMETERS:
Info: 8 BONDS
Info: 8 ANGLES
Info:   8 HARMONIC
Info:   0 COSINE-BASED
Info: 4 DIHEDRAL
Info: 0 IMPROPER
Info: 0 CROSSTERM
Info: 0 VDW
Info: 28 VDW_PAIRS
Info: 0 NBTHOLE_PAIRS
Info: STRUCTURE SUMMARY:
Info: 2902 ATOMS
Info: 2902 BONDS
Info: 24 ANGLES
Info: 39 DIHEDRALS
Info: 0 IMPROPERS
Info: 0 CROSSTERMS
Info: 2955 EXCLUSIONS
Info: 2892 RIGID BONDS
Info: 5814 DEGREES OF FREEDOM
Info: 972 HYDROGEN GROUPS
Info: 3 ATOMS IN LARGEST HYDROGEN GROUP
Info: 972 MIGRATION GROUPS
Info: 3 ATOMS IN LARGEST MIGRATION GROUP
Info: TOTAL MASS = 17469.5 amu
Info: TOTAL CHARGE = 0.000200003 e
Info: MASS DENSITY = 0.656385 g/cm^3
Info: ATOM DENSITY = 0.0656623 atoms/A^3
Info: ADDED 0 IMPLICIT EXCLUSIONS
Info: NONBONDED TABLE R-SQUARED SPACING: 0.0625
Info: NONBONDED TABLE SIZE: 705 POINTS
Info: REMOVING COM VELOCITY -0.0426098 -0.0223408 -0.177052
TCL: Running for 100000 steps
ETITLE: TS BOND ANGLE DIHED IMPRP ELECT VDW BOUNDARY MISC KINETIC TOTAL TEMP POTENTIAL TOTAL3 TEMPAVG PRESSURE GPRESSURE VOLUME PRESSAVG GPRESSAVG
ENERGY: 0 0.3485 0.7348 1.4508 0.0000 -13449.9448 2393.0598 0.0000 0.0000 1695.4879 -9358.8631 293.5013 -11054.3510 -9358.5439 293.5013 521.5666 554.0701 44195.8562 521.5666 554.0701
ENERGY: 100000 0.7040 0.7159 1.8534 0.0000 -13864.1600 2325.5938 0.0000 0.0000 182.1586 -11353.1342 31.5330 -11535.2929 -11352.7625 30.8765 -1086.0025 -1009.8390 29327.5133 4.0732 4.0658
TCL: Running 100000 steps at 60 kelvin.
TCL: Setting parameter langevinTemp to 60
TCL: Running for 100000 steps
ETITLE: TS BOND ANGLE DIHED IMPRP ELECT VDW BOUNDARY MISC KINETIC TOTAL TEMP POTENTIAL TOTAL3 TEMPAVG PRESSURE GPRESSURE VOLUME PRESSAVG GPRESSAVG
ENERGY: 100000 0.7040 0.7159 1.8534 0.0000 -13864.1600 2325.5938 0.0000 0.0000 182.0766 -11353.2163 31.5188 -11535.2929 -11352.8134 31.5188 -1073.3630 -1009.9074 29327.5133 -1073.3630 -1009.9074
ENERGY: 200000 0.9731 0.9936 3.1607 0.0000 -13819.1773 2384.8322 0.0000 0.0000 346.4536 -11082.7640 59.9736 -11429.2176 -11081.5200 59.8763 -111.7527 -39.3877 29378.0530 2.3001 2.2191
TCL: Running 100000 steps at 90 kelvin.
TCL: Setting parameter langevinTemp to 90
TCL: Running for 100000 steps
ETITLE: TS BOND ANGLE DIHED IMPRP ELECT VDW BOUNDARY MISC KINETIC TOTAL TEMP POTENTIAL TOTAL3 TEMPAVG PRESSURE GPRESSURE VOLUME PRESSAVG GPRESSAVG
ENERGY: 200000 0.9731 0.9936 3.1607 0.0000 -13819.1773 2384.8322 0.0000 0.0000 346.2795 -11082.9381 59.9435 -11429.2176 -11082.1014 59.9435 -102.1591 -39.1678 29378.0530 -102.1591 -39.1678
ENERGY: 300000 1.0979 0.8483 2.0567 0.0000 -13853.0113 2498.6471 0.0000 0.0000 501.7369 -10848.6244 86.8543 -11350.3613 -10847.1502 90.1233 1192.7705 1203.9629 29063.7068 4.3058 4.2756
TCL: Running 100000 steps at 120 kelvin.
TCL: Setting parameter langevinTemp to 120
TCL: Running for 100000 steps
ETITLE: TS BOND ANGLE DIHED IMPRP ELECT VDW BOUNDARY MISC KINETIC TOTAL TEMP POTENTIAL TOTAL3 TEMPAVG PRESSURE GPRESSURE VOLUME PRESSAVG GPRESSAVG
ENERGY: 300000 1.0979 0.8483 2.0567 0.0000 -13853.0113 2498.6471 0.0000 0.0000 501.4775 -10848.8838 86.8094 -11350.3613 -10847.9785 86.8094 1166.2611 1204.3946 29063.7068 1166.2611 1204.3946
ENERGY: 400000 1.2788 2.3199 4.2930 0.0000 -13614.3766 2356.7076 0.0000 0.0000 699.4685 -10550.3087 121.0831 -11249.7772 -10549.3103 120.0761 497.1307 529.1539 28998.1259 3.4306 3.4985
TCL: Running 100000 steps at 150 kelvin.
TCL: Setting parameter langevinTemp to 150
TCL: Running for 100000 steps
ETITLE: TS BOND ANGLE DIHED IMPRP ELECT VDW BOUNDARY MISC KINETIC TOTAL TEMP POTENTIAL TOTAL3 TEMPAVG PRESSURE GPRESSURE VOLUME PRESSAVG GPRESSAVG
ENERGY: 400000 1.2788 2.3199 4.2930 0.0000 -13614.3766 2356.7076 0.0000 0.0000 699.1240 -10550.6532 121.0235 -11249.7772 -10549.6047 121.0235 492.7871 528.3806 28998.1259 492.7871 528.3806
ENERGY: 500000 2.3262 3.5350 4.5773 0.0000 -13298.6700 2212.8273 0.0000 0.0000 876.8548 -10198.5495 151.7900 -11075.4042 -10195.8371 149.8501 5.6877 58.6406 28521.3908 5.0844 5.0631
TCL: Running 100000 steps at 180 kelvin.
TCL: Setting parameter langevinTemp to 180
TCL: Running for 100000 steps
ETITLE: TS BOND ANGLE DIHED IMPRP ELECT VDW BOUNDARY MISC KINETIC TOTAL TEMP POTENTIAL TOTAL3 TEMPAVG PRESSURE GPRESSURE VOLUME PRESSAVG GPRESSAVG
ENERGY: 500000 2.3262 3.5350 4.5773 0.0000 -13298.6700 2212.8273 0.0000 0.0000 876.4304 -10198.9739 151.7165 -11075.4042 -10197.1020 151.7165 11.9016 58.3307 28521.3908 11.9016 58.3307
ENERGY: 600000 0.9513 4.5739 3.8142 0.0000 -12928.7639 2131.3174 0.0000 0.0000 1026.6099 -9761.4972 177.7136 -10788.1071 -9759.7693 180.1125 615.3869 684.6189 28169.4495 3.3576 3.4011
TCL: Running 100000 steps at 210 kelvin.
TCL: Setting parameter langevinTemp to 210
TCL: Running for 100000 steps
ETITLE: TS BOND ANGLE DIHED IMPRP ELECT VDW BOUNDARY MISC KINETIC TOTAL TEMP POTENTIAL TOTAL3 TEMPAVG PRESSURE GPRESSURE VOLUME PRESSAVG GPRESSAVG
ENERGY: 600000 0.9513 4.5739 3.8142 0.0000 -12928.7639 2131.3174 0.0000 0.0000 1026.1024 -9762.0047 177.6258 -10788.1071 -9760.3014 177.6258 611.3239 684.3248 28169.4495 611.3239 684.3248
ENERGY: 700000 3.2771 4.4010 1.6518 0.0000 -12259.6197 1874.3868 0.0000 0.0000 1189.8420 -9186.0610 205.9703 -10375.9029 -9183.7214 209.9607 -323.1385 -260.4724 28633.7613 3.3797 3.3203
TCL: Running 100000 steps at 240 kelvin.
TCL: Setting parameter langevinTemp to 240
TCL: Running for 100000 steps
ETITLE: TS BOND ANGLE DIHED IMPRP ELECT VDW BOUNDARY MISC KINETIC TOTAL TEMP POTENTIAL TOTAL3 TEMPAVG PRESSURE GPRESSURE VOLUME PRESSAVG GPRESSAVG
ENERGY: 700000 3.2771 4.4010 1.6518 0.0000 -12259.6197 1874.3868 0.0000 0.0000 1189.2518 -9186.6511 205.8682 -10375.9029 -9183.7888 205.8682 -330.7382 -261.4623 28633.7613 -330.7382 -261.4623
ENERGY: 800000 1.3209 3.7838 2.6399 0.0000 -11682.6839 1691.7828 0.0000 0.0000 1384.0723 -8599.0841 239.5930 -9983.1564 -8597.8113 239.9332 -233.0590 -66.5544 28502.2348 4.7141 4.5844
TCL: Running 100000 steps at 270 kelvin.
TCL: Setting parameter langevinTemp to 270
TCL: Running for 100000 steps
ETITLE: TS BOND ANGLE DIHED IMPRP ELECT VDW BOUNDARY MISC KINETIC TOTAL TEMP POTENTIAL TOTAL3 TEMPAVG PRESSURE GPRESSURE VOLUME PRESSAVG GPRESSAVG
ENERGY: 800000 1.3209 3.7838 2.6399 0.0000 -11682.6839 1691.7828 0.0000 0.0000 1383.3536 -8599.8028 239.4686 -9983.1564 -8598.0797 239.4686 -143.6478 -66.6310 28502.2348 -143.6478 -66.6310
ENERGY: 900000 2.6927 3.0558 7.1940 0.0000 -11023.5348 1475.0586 0.0000 0.0000 1514.8791 -8020.6548 262.2366 -9535.5338 -8017.1449 269.4187 -852.0923 -688.7300 29571.7226 4.3512 4.2434
TCL: Running 1000000 steps at 300 kelvin.
TCL: Setting parameter langevinTemp to 300
TCL: Running for 1000000 steps
ETITLE: TS BOND ANGLE DIHED IMPRP ELECT VDW BOUNDARY MISC KINETIC TOTAL TEMP POTENTIAL TOTAL3 TEMPAVG PRESSURE GPRESSURE VOLUME PRESSAVG GPRESSAVG
ENERGY: 900000 2.6927 3.0558 7.1940 0.0000 -11023.5348 1475.0586 0.0000 0.0000 1514.1028 -8021.4311 262.1022 -9535.5338 -8019.2240 262.1022 -782.8217 -686.5453 29571.7226 -782.8217 -686.5453
ENERGY: 1100000 4.7987 6.2335 2.0282 0.0000 -10544.4953 1409.8944 0.0000 0.0000 1734.5383 -7387.0023 300.2612 -9121.5406 -7385.0298 300.3177 -139.6812 -79.9550 29998.4328 4.1618 4.1404
ENERGY: 1300000 3.3158 7.3358 4.6215 0.0000 -10505.9898 1340.7366 0.0000 0.0000 1768.1514 -7381.8287 306.0799 -9149.9801 -7378.1021 300.4977 -654.8165 -606.4539 29590.0958 2.5976 2.6129
ENERGY: 1500000 2.1165 2.8371 6.6379 0.0000 -10617.5699 1374.2035 0.0000 0.0000 1757.7513 -7474.0236 304.2796 -9231.7750 -7473.3141 300.7052 -667.3407 -619.4224 30083.9135 2.3735 2.3602
ENERGY: 1700000 4.7553 3.7609 8.5626 0.0000 -10591.1056 1420.6650 0.0000 0.0000 1608.6434 -7544.7183 278.4679 -9153.3618 -7541.2689 300.0026 -260.9803 -222.6621 29912.2649 4.7365 4.7858
ENERGY: 1900000 3.0590 3.5396 6.3951 0.0000 -10395.1048 1365.4851 0.0000 0.0000 1712.8232 -7303.8027 296.5022 -9016.6259 -7299.2389 300.3190 -429.5347 -273.5682 30126.2652 2.2871 2.1496
TCL: Exiting due to exit command.
