Info: SIMULATION PARAMETERS:
Info: TIMESTEP               2
Info: NUMBER OF STEPS        0
Info: STEPS PER CYCLE        10
Info: PERIODIC CELL BASIS 1  34.986 0 0
Info: PERIODIC CELL BASIS 2  0 33.404 0
Info: PERIODIC CELL BASIS 3  0 0 37.195
Info: PERIODIC CELL CENTER   0 0 0
Info: WRAPPING WATERS AROUND PERIODIC BOUNDARIES ON OUTPUT.
Info: WRAPPING ALL CLUSTERS AROUND PERIODIC BOUNDARIES ON OUTPUT.
Info: FIRST LDB TIMESTEP     50
Info: LAST LDB TIMESTEP     -1
Info: HOM BACKGROUND SCALING 1
Info: PME BACKGROUND SCALING 1
Info: MIN ATOMS PER PATCH    40
Info: EMPTY PATCH LOAD       40 ATOMS
Info: INITIAL TEMPERATURE    300
Info: CENTER OF MASS MOVING INITIALLY? NO
Info: DIELECTRIC             1
Info: EXCLUDE                SCALED ONE-FOUR
Info: 1-4 ELECTROSTATICS SCALED BY 0.833333
Info: MODIFIED 1-4 VDW PARAMETERS WILL BE USED
Info: DCD FILENAME           mobley_5948990_equil.dcd
Info: DCD FREQUENCY          100000
Info: DCD FIRST STEP         100000
Info: DCD FILE WILL CONTAIN UNIT CELL DATA
Info: XST FILENAME           mobley_5948990_equil.xst
Info: XST FREQUENCY          100000
Info: NO VELOCITY DCD OUTPUT
Info: NO FORCE DCD OUTPUT
Info: OUTPUT FILENAME        mobley_5948990_equil
Info: BINARY OUTPUT FILES WILL BE USED
Info: RESTART FILENAME       mobley_5948990_equil.restart
Info: RESTART FREQUENCY      100000
Info: BINARY RESTART FILES WILL BE USED
Info: CUTOFF                 9
Info: PAIRLIST DISTANCE      11
Info: PAIRLIST SHRINK RATE   0.01
Info: PAIRLIST GROW RATE     0.01
Info: PAIRLIST TRIGGER       0.3
Info: PAIRLISTS PER CYCLE    2
Info: PAIRLISTS ENABLED
Info: MARGIN                 8
Info: HYDROGEN GROUP CUTOFF  2.5
Info: PATCH DIMENSION        21.5
Info: ENERGY OUTPUT STEPS    100000
Info: ENERGY EVALUATION STEPS    100000
Info: OUTPUT ENERGY PRECISION 4
Info: CROSSTERM ENERGY INCLUDED IN DIHEDRAL
Info: TIMING OUTPUT STEPS    1000000
Info: PRESSURE OUTPUT STEPS  100000
Info: LANGEVIN DYNAMICS ACTIVE
Info: LANGEVIN TEMPERATURE   30
Info: LANGEVIN USING BBK INTEGRATOR
Info: LANGEVIN DAMPING COEFFICIENT IS 1 INVERSE PS
Info: LANGEVIN DYNAMICS APPLIED TO HYDROGENS
Info: LANGEVIN PISTON PRESSURE CONTROL ACTIVE
Info:        TARGET PRESSURE IS 1.01325 BAR
Info:     OSCILLATION PERIOD IS 50 FS
Info:             DECAY TIME IS 25 FS
Info:     PISTON TEMPERATURE IS 300 K
Info:       PRESSURE CONTROL IS GROUP-BASED
Info:    INITIAL STRAIN RATE IS 0 0 0
Info:       CELL FLUCTUATION IS ISOTROPIC
Info: PARTICLE MESH EWALD (PME) ACTIVE
Info: PME TOLERANCE               1e-06
Info: PME EWALD COEFFICIENT       0.348832
Info: PME INTERPOLATION ORDER     4
Info: PME GRID DIMENSIONS         36 36 40
Info: PME MAXIMUM GRID SPACING    1
Info: FULL ELECTROSTATIC EVALUATION FREQUENCY      2
Info: USING VERLET I (r-RESPA) MTS SCHEME.
Info: C1 SPLITTING OF LONG RANGE ELECTROSTATICS
Info: PLACING ATOMS IN PATCHES BY HYDROGEN GROUPS
Info: RIGID BONDS TO HYDROGEN : ALL
Info:         ERROR TOLERANCE : 1e-08
Info:          MAX ITERATIONS : 100
Info: RIGID WATER USING SETTLE ALGORITHM
Info: RANDOM NUMBER SEED     1743230036
Info: USE HYDROGEN BONDS?    NO
Info: Using AMBER format force field!
Info: AMBER PARM FILE        mobley_5948990.prmtop
Info: COORDINATE PDB         mobley_5948990.pdb
Info: Exclusions will be read from PARM file!
Info: SCNB (VDW SCALING)     2
Info: USING ARITHMETIC MEAN TO COMBINE L-J SIGMA PARAMETERS
Info: BINARY COORDINATES     mobley_5948990_min.coor
Info: SUMMARY OF PARAMETERS:
Info: 8 BONDS
Info: 8 ANGLES
Info:   8 HARMONIC
Info:   0 COSINE-BASED
Info: 4 DIHEDRAL
Info: 0 IMPROPER
Info: 0 CROSSTERM
Info: 0 VDW
Info: 28 VDW_PAIRS
Info: 0 NBTHOLE_PAIRS
Info: STRUCTURE SUMMARY:
Info: 2950 ATOMS
Info: 2950 BONDS
Info: 24 ANGLES
Info: 39 DIHEDRALS
Info: 0 IMPROPERS
Info: 0 CROSSTERMS
Info: 3003 EXCLUSIONS
Info: 2940 RIGID BONDS
Info: 5910 DEGREES OF FREEDOM
Info: 988 HYDROGEN GROUPS
Info: 3 ATOMS IN LARGEST HYDROGEN GROUP
Info: 988 MIGRATION GROUPS
Info: 3 ATOMS IN LARGEST MIGRATION GROUP
Info: TOTAL MASS = 17757.8 amu
Info: TOTAL CHARGE = -0.000100024 e
Info: MASS DENSITY = 0.678376 g/cm^3
Info: ATOM DENSITY = 0.0678648 atoms/A^3
Info: ADDED 0 IMPLICIT EXCLUSIONS
Info: NONBONDED TABLE R-SQUARED SPACING: 0.0625
Info: NONBONDED TABLE SIZE: 705 POINTS
Info: REMOVING COM VELOCITY 0.0492659 -0.164769 0.11693
TCL: Running for 100000 steps
ETITLE: TS BOND ANGLE DIHED IMPRP ELECT VDW BOUNDARY MISC KINETIC TOTAL TEMP POTENTIAL TOTAL3 TEMPAVG PRESSURE GPRESSURE VOLUME PRESSAVG GPRESSAVG
ENERGY: 0 0.3326 1.1578 1.8306 0.0000 -13710.9024 2447.8964 0.0000 0.0000 1796.6173 -9463.0677 305.9556 -11259.6850 -9462.7219 305.9556 788.6654 827.2059 43468.7678 788.6654 827.2059
ENERGY: 100000 0.6411 1.7051 1.8865 0.0000 -14281.7771 2516.4026 0.0000 0.0000 175.5570 -11585.5847 29.8966 -11761.1418 -11585.1682 30.9597 492.1526 525.7115 28550.8136 3.8089 3.8267
TCL: Running 100000 steps at 60 kelvin.
TCL: Setting parameter langevinTemp to 60
TCL: Running for 100000 steps
ETITLE: TS BOND ANGLE DIHED IMPRP ELECT VDW BOUNDARY MISC KINETIC TOTAL TEMP POTENTIAL TOTAL3 TEMPAVG PRESSURE GPRESSURE VOLUME PRESSAVG GPRESSAVG
ENERGY: 100000 0.6411 1.7051 1.8865 0.0000 -14281.7771 2516.4026 0.0000 0.0000 175.4702 -11585.6716 29.8818 -11761.1418 -11585.2654 29.8818 463.4785 525.7370 28550.8136 463.4785 525.7370
ENERGY: 200000 1.3044 1.3695 3.9547 0.0000 -14085.1092 2362.1632 0.0000 0.0000 353.9878 -11362.3296 60.2825 -11716.3174 -11361.0640 59.9392 -621.2896 -576.5215 28746.8650 4.8761 4.9356
TCL: Running 100000 steps at 90 kelvin.
TCL: Setting parameter langevinTemp to 90
TCL: Running for 100000 steps
ETITLE: TS BOND ANGLE DIHED IMPRP ELECT VDW BOUNDARY MISC KINETIC TOTAL TEMP POTENTIAL TOTAL3 TEMPAVG PRESSURE GPRESSURE VOLUME PRESSAVG GPRESSAVG
ENERGY: 200000 1.3044 1.3695 3.9547 0.0000 -14085.1092 2362.1632 0.0000 0.0000 353.8179 -11362.4995 60.2536 -11716.3174 -11361.8190 60.2536 -624.2926 -576.3438 28746.8650 -624.2926 -576.3438
ENERGY: 300000 1.4331 0.7554 4.9708 0.0000 -14067.2145 2429.7359 0.0000 0.0000 546.5484 -11083.7709 93.0747 -11630.3193 -11082.6496 89.8456 287.6326 370.4875 28506.8478 3.3626 3.2518
TCL: Running 100000 steps at 120 kelvin.
TCL: Setting parameter langevinTemp to 120
TCL: Running for 100000 steps
ETITLE: TS BOND ANGLE DIHED IMPRP ELECT VDW BOUNDARY MISC KINETIC TOTAL TEMP POTENTIAL TOTAL3 TEMPAVG PRESSURE GPRESSURE VOLUME PRESSAVG GPRESSAVG
ENERGY: 300000 1.4331 0.7554 4.9708 0.0000 -14067.2145 2429.7359 0.0000 0.0000 546.2831 -11084.0362 93.0295 -11630.3193 -11083.1016 93.0295 326.4439 370.8028 28506.8478 326.4439 370.8028
ENERGY: 400000 1.2651 1.3072 4.5903 0.0000 -13910.3753 2404.7416 0.0000 0.0000 714.3928 -10784.0783 121.6578 -11498.4711 -10781.9409 119.8065 592.1074 632.6907 28577.4050 3.8187 3.8614
TCL: Running 100000 steps at 150 kelvin.
TCL: Setting parameter langevinTemp to 150
TCL: Running for 100000 steps
ETITLE: TS BOND ANGLE DIHED IMPRP ELECT VDW BOUNDARY MISC KINETIC TOTAL TEMP POTENTIAL TOTAL3 TEMPAVG PRESSURE GPRESSURE VOLUME PRESSAVG GPRESSAVG
ENERGY: 400000 1.2651 1.3072 4.5903 0.0000 -13910.3753 2404.7416 0.0000 0.0000 714.0307 -10784.4404 121.5961 -11498.4711 -10783.2661 121.5961 576.4928 632.5348 28577.4050 576.4928 632.5348
ENERGY: 500000 3.0862 3.6428 4.8882 0.0000 -13425.7652 2089.4583 0.0000 0.0000 875.9356 -10448.7542 149.1678 -11324.6897 -10446.4053 149.5636 -1554.4149 -1515.3972 29005.8678 2.4965 2.5132
TCL: Running 100000 steps at 180 kelvin.
TCL: Setting parameter langevinTemp to 180
TCL: Running for 100000 steps
ETITLE: TS BOND ANGLE DIHED IMPRP ELECT VDW BOUNDARY MISC KINETIC TOTAL TEMP POTENTIAL TOTAL3 TEMPAVG PRESSURE GPRESSURE VOLUME PRESSAVG GPRESSAVG
ENERGY: 500000 3.0862 3.6428 4.8882 0.0000 -13425.7652 2089.4583 0.0000 0.0000 875.4877 -10449.2020 149.0915 -11324.6897 -10447.4191 149.0915 -1574.8765 -1514.9940 29005.8678 -1574.8765 -1514.9940
ENERGY: 600000 1.4600 4.1721 9.7351 0.0000 -13144.9472 2140.1211 0.0000 0.0000 1039.3987 -9950.0602 177.0048 -10989.4589 -9947.4551 179.9639 293.8863 276.3533 28934.4014 3.9986 3.9959
TCL: Running 100000 steps at 210 kelvin.
TCL: Setting parameter langevinTemp to 210
TCL: Running for 100000 steps
ETITLE: TS BOND ANGLE DIHED IMPRP ELECT VDW BOUNDARY MISC KINETIC TOTAL TEMP POTENTIAL TOTAL3 TEMPAVG PRESSURE GPRESSURE VOLUME PRESSAVG GPRESSAVG
ENERGY: 600000 1.4600 4.1721 9.7351 0.0000 -13144.9472 2140.1211 0.0000 0.0000 1038.8821 -9950.5768 176.9168 -10989.4589 -9948.5709 176.9168 215.5932 275.8025 28934.4014 215.5932 275.8025
ENERGY: 700000 0.7091 4.1073 4.7355 0.0000 -12358.3568 1814.9423 0.0000 0.0000 1248.5164 -9285.3462 212.6166 -10533.8626 -9280.6570 209.2966 -505.4606 -424.0641 28547.1221 3.8595 3.8706
TCL: Running 100000 steps at 240 kelvin.
TCL: Setting parameter langevinTemp to 240
TCL: Running for 100000 steps
ETITLE: TS BOND ANGLE DIHED IMPRP ELECT VDW BOUNDARY MISC KINETIC TOTAL TEMP POTENTIAL TOTAL3 TEMPAVG PRESSURE GPRESSURE VOLUME PRESSAVG GPRESSAVG
ENERGY: 700000 0.7091 4.1073 4.7355 0.0000 -12358.3568 1814.9423 0.0000 0.0000 1247.9271 -9285.9355 212.5162 -10533.8626 -9283.7281 212.5162 -516.7202 -421.9618 28547.1221 -516.7202 -421.9618
ENERGY: 800000 3.5247 3.1545 10.7341 0.0000 -11679.3979 1584.4922 0.0000 0.0000 1407.5542 -8669.9382 239.7000 -10077.4924 -8666.2132 239.8499 -1116.2997 -1008.5120 29415.7176 3.9857 3.9367
TCL: Running 100000 steps at 270 kelvin.
TCL: Setting parameter langevinTemp to 270
TCL: Running for 100000 steps
ETITLE: TS BOND ANGLE DIHED IMPRP ELECT VDW BOUNDARY MISC KINETIC TOTAL TEMP POTENTIAL TOTAL3 TEMPAVG PRESSURE GPRESSURE VOLUME PRESSAVG GPRESSAVG
ENERGY: 800000 3.5247 3.1545 10.7341 0.0000 -11679.3979 1584.4922 0.0000 0.0000 1406.8721 -8670.6203 239.5838 -10077.4924 -8668.0305 239.5838 -1101.9760 -1006.3537 29415.7176 -1101.9760 -1006.3537
ENERGY: 900000 2.9339 5.1965 7.6965 0.0000 -11157.7048 1476.1601 0.0000 0.0000 1602.1147 -8063.6030 272.8328 -9665.7178 -8060.0020 269.9333 -739.5914 -696.8188 29708.1694 3.7603 3.7376
TCL: Running 1000000 steps at 300 kelvin.
TCL: Setting parameter langevinTemp to 300
TCL: Running for 1000000 steps
ETITLE: TS BOND ANGLE DIHED IMPRP ELECT VDW BOUNDARY MISC KINETIC TOTAL TEMP POTENTIAL TOTAL3 TEMPAVG PRESSURE GPRESSURE VOLUME PRESSAVG GPRESSAVG
ENERGY: 900000 2.9339 5.1965 7.6965 0.0000 -11157.7048 1476.1601 0.0000 0.0000 1601.3190 -8064.3988 272.6972 -9665.7178 -8061.7223 272.6972 -769.5006 -694.8764 29708.1694 -769.5006 -694.8764
ENERGY: 1100000 7.9587 4.6648 5.2495 0.0000 -10684.1103 1453.5776 0.0000 0.0000 1743.7374 -7468.9224 296.9504 -9212.6597 -7463.7665 300.0001 285.9092 308.2780 30610.7366 4.3497 4.1103
ENERGY: 1300000 3.2586 3.8156 7.9684 0.0000 -10859.2888 1447.6124 0.0000 0.0000 1750.1304 -7646.5034 298.0392 -9396.6338 -7644.5344 301.0924 -370.0167 -305.3817 30321.3075 3.5570 3.4869
ENERGY: 1500000 1.4468 5.0099 6.9364 0.0000 -10792.9147 1494.6231 0.0000 0.0000 1740.6872 -7544.2113 296.4310 -9284.8985 -7542.2082 300.4040 702.1894 794.8896 30023.7065 3.0704 3.1355
ENERGY: 1700000 3.5153 4.6845 5.4483 0.0000 -10723.0627 1411.7740 0.0000 0.0000 1758.8752 -7538.7654 299.5283 -9297.6406 -7534.2769 300.1375 -189.4105 -81.1229 30473.6864 2.5480 2.5179
ENERGY: 1900000 4.1508 3.4713 9.3675 0.0000 -10746.0521 1438.1953 0.0000 0.0000 1796.8630 -7494.0042 305.9975 -9290.8672 -7490.4768 300.6462 50.4641 118.5755 30249.3224 2.1696 2.1680
TCL: Exiting due to exit command.
