Info: SIMULATION PARAMETERS:
Info: TIMESTEP               2
Info: NUMBER OF STEPS        0
Info: STEPS PER CYCLE        10
Info: PERIODIC CELL BASIS 1  41.123 0 0
Info: PERIODIC CELL BASIS 2  0 33.314 0
Info: PERIODIC CELL BASIS 3  0 0 32.492
Info: PERIODIC CELL CENTER   0 0 0
Info: WRAPPING WATERS AROUND PERIODIC BOUNDARIES ON OUTPUT.
Info: WRAPPING ALL CLUSTERS AROUND PERIODIC BOUNDARIES ON OUTPUT.
Info: FIRST LDB TIMESTEP     50
Info: LAST LDB TIMESTEP     -1
Info: HOM BACKGROUND SCALING 1
Info: PME BACKGROUND SCALING 1
Info: MIN ATOMS PER PATCH    40
Info: EMPTY PATCH LOAD       40 ATOMS
Info: INITIAL TEMPERATURE    300
Info: CENTER OF MASS MOVING INITIALLY? NO
Info: DIELECTRIC             1
Info: EXCLUDE                SCALED ONE-FOUR
Info: 1-4 ELECTROSTATICS SCALED BY 0.833333
Info: MODIFIED 1-4 VDW PARAMETERS WILL BE USED
Info: DCD FILENAME           mobley_129464_equil.dcd
Info: DCD FREQUENCY          100000
Info: DCD FIRST STEP         100000
Info: DCD FILE WILL CONTAIN UNIT CELL DATA
Info: XST FILENAME           mobley_129464_equil.xst
Info: XST FREQUENCY          100000
Info: NO VELOCITY DCD OUTPUT
Info: NO FORCE DCD OUTPUT
Info: OUTPUT FILENAME        mobley_129464_equil
Info: BINARY OUTPUT FILES WILL BE USED
Info: RESTART FILENAME       mobley_129464_equil.restart
Info: RESTART FREQUENCY      100000
Info: BINARY RESTART FILES WILL BE USED
Info: CUTOFF                 9
Info: PAIRLIST DISTANCE      11
Info: PAIRLIST SHRINK RATE   0.01
Info: PAIRLIST GROW RATE     0.01
Info: PAIRLIST TRIGGER       0.3
Info: PAIRLISTS PER CYCLE    2
Info: PAIRLISTS ENABLED
Info: MARGIN                 8
Info: HYDROGEN GROUP CUTOFF  2.5
Info: PATCH DIMENSION        21.5
Info: ENERGY OUTPUT STEPS    100000
Info: ENERGY EVALUATION STEPS    100000
Info: OUTPUT ENERGY PRECISION 4
Info: CROSSTERM ENERGY INCLUDED IN DIHEDRAL
Info: TIMING OUTPUT STEPS    1000000
Info: PRESSURE OUTPUT STEPS  100000
Info: LANGEVIN DYNAMICS ACTIVE
Info: LANGEVIN TEMPERATURE   30
Info: LANGEVIN USING BBK INTEGRATOR
Info: LANGEVIN DAMPING COEFFICIENT IS 1 INVERSE PS
Info: LANGEVIN DYNAMICS APPLIED TO HYDROGENS
Info: LANGEVIN PISTON PRESSURE CONTROL ACTIVE
Info:        TARGET PRESSURE IS 1.01325 BAR
Info:     OSCILLATION PERIOD IS 50 FS
Info:             DECAY TIME IS 25 FS
Info:     PISTON TEMPERATURE IS 300 K
Info:       PRESSURE CONTROL IS GROUP-BASED
Info:    INITIAL STRAIN RATE IS 0 0 0
Info:       CELL FLUCTUATION IS ISOTROPIC
Info: PARTICLE MESH EWALD (PME) ACTIVE
Info: PME TOLERANCE               1e-06
Info: PME EWALD COEFFICIENT       0.348832
Info: PME INTERPOLATION ORDER     4
Info: PME GRID DIMENSIONS         44 36 36
Info: PME MAXIMUM GRID SPACING    1
Info: FULL ELECTROSTATIC EVALUATION FREQUENCY      2
Info: USING VERLET I (r-RESPA) MTS SCHEME.
Info: C1 SPLITTING OF LONG RANGE ELECTROSTATICS
Info: PLACING ATOMS IN PATCHES BY HYDROGEN GROUPS
Info: RIGID BONDS TO HYDROGEN : ALL
Info:         ERROR TOLERANCE : 1e-08
Info:          MAX ITERATIONS : 100
Info: RIGID WATER USING SETTLE ALGORITHM
Info: RANDOM NUMBER SEED     1743261707
Info: USE HYDROGEN BONDS?    NO
Info: Using AMBER format force field!
Info: AMBER PARM FILE        mobley_129464.prmtop
Info: COORDINATE PDB         mobley_129464.pdb
Info: Exclusions will be read from PARM file!
Info: SCNB (VDW SCALING)     2
Info: USING ARITHMETIC MEAN TO COMBINE L-J SIGMA PARAMETERS
Info: BINARY COORDINATES     mobley_129464_min.coor
Info: SUMMARY OF PARAMETERS:
Info: 6 BONDS
Info: 8 ANGLES
Info:   8 HARMONIC
Info:   0 COSINE-BASED
Info: 11 DIHEDRAL
Info: 0 IMPROPER
Info: 0 CROSSTERM
Info: 0 VDW
Info: 21 VDW_PAIRS
Info: 0 NBTHOLE_PAIRS
Info: STRUCTURE SUMMARY:
Info: 2958 ATOMS
Info: 2957 BONDS
Info: 49 ANGLES
Info: 70 DIHEDRALS
Info: 0 IMPROPERS
Info: 0 CROSSTERMS
Info: 3066 EXCLUSIONS
Info: 2949 RIGID BONDS
Info: 5925 DEGREES OF FREEDOM
Info: 986 HYDROGEN GROUPS
Info: 4 ATOMS IN LARGEST HYDROGEN GROUP
Info: 986 MIGRATION GROUPS
Info: 4 ATOMS IN LARGEST MIGRATION GROUP
Info: TOTAL MASS = 17731.9 amu
Info: TOTAL CHARGE = -0.000399999 e
Info: MASS DENSITY = 0.661493 g/cm^3
Info: ATOM DENSITY = 0.0664523 atoms/A^3
Info: ADDED 0 IMPLICIT EXCLUSIONS
Info: NONBONDED TABLE R-SQUARED SPACING: 0.0625
Info: NONBONDED TABLE SIZE: 705 POINTS
Info: REMOVING COM VELOCITY -0.0255731 -0.0183526 -0.0488827
TCL: Running for 100000 steps
ETITLE: TS BOND ANGLE DIHED IMPRP ELECT VDW BOUNDARY MISC KINETIC TOTAL TEMP POTENTIAL TOTAL3 TEMPAVG PRESSURE GPRESSURE VOLUME PRESSAVG GPRESSAVG
ENERGY: 0 0.1185 0.2258 2.3696 0.0000 -13637.0521 2432.1558 0.0000 0.0000 1697.1971 -9504.9852 288.2931 -11202.1823 -9504.6413 288.2931 587.8123 623.1787 44513.1179 587.8123 623.1787
ENERGY: 100000 0.2105 1.9607 2.6434 0.0000 -14177.7500 2476.9424 0.0000 0.0000 183.3849 -11512.6082 31.1505 -11695.9931 -11511.8906 30.8476 107.1636 151.2083 28757.8768 3.8868 3.8696
TCL: Running 100000 steps at 60 kelvin.
TCL: Setting parameter langevinTemp to 60
TCL: Running for 100000 steps
ETITLE: TS BOND ANGLE DIHED IMPRP ELECT VDW BOUNDARY MISC KINETIC TOTAL TEMP POTENTIAL TOTAL3 TEMPAVG PRESSURE GPRESSURE VOLUME PRESSAVG GPRESSAVG
ENERGY: 100000 0.2105 1.9607 2.6434 0.0000 -14177.7500 2476.9424 0.0000 0.0000 183.3010 -11512.6921 31.1363 -11695.9931 -11512.2529 31.1363 101.5841 151.4117 28757.8768 101.5841 151.4117
ENERGY: 200000 0.2195 2.8082 3.0442 0.0000 -14162.6236 2490.2574 0.0000 0.0000 353.7093 -11312.5851 60.0826 -11666.2943 -11312.1021 59.9819 520.0801 549.4583 28631.7625 5.0589 5.0249
TCL: Running 100000 steps at 90 kelvin.
TCL: Setting parameter langevinTemp to 90
TCL: Running for 100000 steps
ETITLE: TS BOND ANGLE DIHED IMPRP ELECT VDW BOUNDARY MISC KINETIC TOTAL TEMP POTENTIAL TOTAL3 TEMPAVG PRESSURE GPRESSURE VOLUME PRESSAVG GPRESSAVG
ENERGY: 200000 0.2195 2.8082 3.0442 0.0000 -14162.6236 2490.2574 0.0000 0.0000 353.5367 -11312.7576 60.0532 -11666.2943 -11312.1265 60.0532 503.3153 549.1472 28631.7625 503.3153 549.1472
ENERGY: 300000 1.0157 4.0262 3.2201 0.0000 -14042.9000 2462.0899 0.0000 0.0000 532.3341 -11040.2140 90.4245 -11572.5481 -11038.7736 90.0008 474.2938 537.5361 28864.1760 5.1981 5.2174
TCL: Running 100000 steps at 120 kelvin.
TCL: Setting parameter langevinTemp to 120
TCL: Running for 100000 steps
ETITLE: TS BOND ANGLE DIHED IMPRP ELECT VDW BOUNDARY MISC KINETIC TOTAL TEMP POTENTIAL TOTAL3 TEMPAVG PRESSURE GPRESSURE VOLUME PRESSAVG GPRESSAVG
ENERGY: 300000 1.0157 4.0262 3.2201 0.0000 -14042.9000 2462.0899 0.0000 0.0000 532.0707 -11040.4774 90.3798 -11572.5481 -11039.2287 90.3798 497.5504 538.1866 28864.1760 497.5504 538.1866
ENERGY: 400000 2.2736 6.0666 3.4721 0.0000 -13778.0770 2324.9189 0.0000 0.0000 687.6165 -10753.7293 116.8015 -11441.3458 -10751.6690 120.1303 -354.4005 -252.6965 28980.1134 4.1915 4.1951
TCL: Running 100000 steps at 150 kelvin.
TCL: Setting parameter langevinTemp to 150
TCL: Running for 100000 steps
ETITLE: TS BOND ANGLE DIHED IMPRP ELECT VDW BOUNDARY MISC KINETIC TOTAL TEMP POTENTIAL TOTAL3 TEMPAVG PRESSURE GPRESSURE VOLUME PRESSAVG GPRESSAVG
ENERGY: 400000 2.2736 6.0666 3.4721 0.0000 -13778.0771 2324.9189 0.0000 0.0000 687.2759 -10754.0699 116.7436 -11441.3458 -10752.5941 116.7436 -309.7080 -251.7300 28980.1134 -309.7080 -251.7300
ENERGY: 500000 1.2218 4.5069 3.8601 0.0000 -13538.8363 2262.2994 0.0000 0.0000 894.6550 -10372.2932 151.9699 -11266.9482 -10372.1164 149.9203 28.9749 88.4730 28989.3197 3.2024 3.2388
TCL: Running 100000 steps at 180 kelvin.
TCL: Setting parameter langevinTemp to 180
TCL: Running for 100000 steps
ETITLE: TS BOND ANGLE DIHED IMPRP ELECT VDW BOUNDARY MISC KINETIC TOTAL TEMP POTENTIAL TOTAL3 TEMPAVG PRESSURE GPRESSURE VOLUME PRESSAVG GPRESSAVG
ENERGY: 500000 1.2218 4.5069 3.8601 0.0000 -13538.8363 2262.2994 0.0000 0.0000 894.2118 -10372.7363 151.8946 -11266.9482 -10370.8371 151.8946 23.7342 86.2613 28989.3197 23.7342 86.2613
ENERGY: 600000 4.0842 5.0836 3.5720 0.0000 -12968.0050 2029.7850 0.0000 0.0000 1105.7536 -9819.7266 187.8280 -10925.4802 -9814.7831 179.8282 -321.7547 -251.5049 28623.0186 3.6909 3.8986
TCL: Running 100000 steps at 210 kelvin.
TCL: Setting parameter langevinTemp to 210
TCL: Running for 100000 steps
ETITLE: TS BOND ANGLE DIHED IMPRP ELECT VDW BOUNDARY MISC KINETIC TOTAL TEMP POTENTIAL TOTAL3 TEMPAVG PRESSURE GPRESSURE VOLUME PRESSAVG GPRESSAVG
ENERGY: 600000 4.0842 5.0836 3.5720 0.0000 -12968.0050 2029.7850 0.0000 0.0000 1105.2403 -9820.2398 187.7408 -10925.4802 -9818.0324 187.7408 -321.6288 -249.3668 28623.0186 -321.6288 -249.3668
ENERGY: 700000 1.8534 6.8926 4.2010 0.0000 -12388.2809 1860.6986 0.0000 0.0000 1262.6965 -9251.9388 214.4870 -10514.6354 -9248.7238 210.2812 -307.2773 -283.0032 29196.6474 4.8156 4.7439
TCL: Running 100000 steps at 240 kelvin.
TCL: Setting parameter langevinTemp to 240
TCL: Running for 100000 steps
ETITLE: TS BOND ANGLE DIHED IMPRP ELECT VDW BOUNDARY MISC KINETIC TOTAL TEMP POTENTIAL TOTAL3 TEMPAVG PRESSURE GPRESSURE VOLUME PRESSAVG GPRESSAVG
ENERGY: 700000 1.8534 6.8926 4.2010 0.0000 -12388.2809 1860.6986 0.0000 0.0000 1262.0880 -9252.5474 214.3836 -10514.6354 -9249.8504 214.3836 -365.1219 -283.6167 29196.6474 -365.1219 -283.6167
ENERGY: 800000 1.4065 8.4961 3.6059 0.0000 -11733.2133 1670.9366 0.0000 0.0000 1406.2537 -8642.5145 238.8722 -10048.7682 -8638.7661 240.1080 -226.6116 -157.8410 29129.5148 3.7250 3.6570
TCL: Running 100000 steps at 270 kelvin.
TCL: Setting parameter langevinTemp to 270
TCL: Running for 100000 steps
ETITLE: TS BOND ANGLE DIHED IMPRP ELECT VDW BOUNDARY MISC KINETIC TOTAL TEMP POTENTIAL TOTAL3 TEMPAVG PRESSURE GPRESSURE VOLUME PRESSAVG GPRESSAVG
ENERGY: 800000 1.4065 8.4961 3.6059 0.0000 -11733.2133 1670.9366 0.0000 0.0000 1405.5406 -8643.2276 238.7511 -10048.7682 -8641.2686 238.7511 -230.9116 -157.3414 29129.5148 -230.9116 -157.3414
ENERGY: 900000 2.8334 17.0431 5.0663 0.0000 -11267.3580 1565.8712 0.0000 0.0000 1597.6184 -8078.9255 271.3783 -9676.5439 -8078.3653 269.9860 14.3161 89.3457 29442.8256 3.3704 3.2834
TCL: Running 1000000 steps at 300 kelvin.
TCL: Setting parameter langevinTemp to 300
TCL: Running for 1000000 steps
ETITLE: TS BOND ANGLE DIHED IMPRP ELECT VDW BOUNDARY MISC KINETIC TOTAL TEMP POTENTIAL TOTAL3 TEMPAVG PRESSURE GPRESSURE VOLUME PRESSAVG GPRESSAVG
ENERGY: 900000 2.8334 17.0431 5.0663 0.0000 -11267.3580 1565.8712 0.0000 0.0000 1596.8156 -8079.7283 271.2419 -9676.5439 -8077.3166 271.2419 5.4318 86.4694 29442.8256 5.4318 86.4694
ENERGY: 1100000 5.1496 10.7922 4.2642 0.0000 -10635.8107 1416.8412 0.0000 0.0000 1783.0860 -7415.6775 302.8826 -9198.7635 -7409.7858 300.1664 -178.6821 -88.8513 30597.9472 3.5870 3.5987
ENERGY: 1300000 1.7416 13.0996 4.2368 0.0000 -10728.5828 1419.2506 0.0000 0.0000 1791.3749 -7498.8792 304.2906 -9290.2541 -7497.8835 300.1076 -373.0432 -238.4462 30362.5877 2.3928 2.2348
ENERGY: 1500000 2.5238 10.1800 5.4617 0.0000 -10569.6941 1350.5498 0.0000 0.0000 1754.1079 -7446.8709 297.9603 -9200.9788 -7445.6523 300.9794 -668.8827 -623.5216 30841.4402 3.9673 3.9432
ENERGY: 1700000 3.7553 13.6484 4.1001 0.0000 -10586.0596 1372.0760 0.0000 0.0000 1731.2502 -7461.2297 294.0775 -9192.4799 -7458.1466 300.2618 -305.4723 -269.7916 30385.8245 3.6976 3.5722
ENERGY: 1900000 3.9851 16.0477 4.9281 0.0000 -10633.5414 1374.2387 0.0000 0.0000 1734.7121 -7499.6297 294.6656 -9234.3418 -7495.5986 300.3351 -788.7843 -676.5905 30812.5426 3.3218 3.2452
TCL: Exiting due to exit command.
