Info: SIMULATION PARAMETERS:
Info: TIMESTEP               2
Info: NUMBER OF STEPS        0
Info: STEPS PER CYCLE        10
Info: PERIODIC CELL BASIS 1  32.955 0 0
Info: PERIODIC CELL BASIS 2  0 34.1 0
Info: PERIODIC CELL BASIS 3  0 0 39.119
Info: PERIODIC CELL CENTER   0 0 0
Info: WRAPPING WATERS AROUND PERIODIC BOUNDARIES ON OUTPUT.
Info: WRAPPING ALL CLUSTERS AROUND PERIODIC BOUNDARIES ON OUTPUT.
Info: FIRST LDB TIMESTEP     50
Info: LAST LDB TIMESTEP     -1
Info: HOM BACKGROUND SCALING 1
Info: PME BACKGROUND SCALING 1
Info: MIN ATOMS PER PATCH    40
Info: EMPTY PATCH LOAD       40 ATOMS
Info: INITIAL TEMPERATURE    300
Info: CENTER OF MASS MOVING INITIALLY? NO
Info: DIELECTRIC             1
Info: EXCLUDE                SCALED ONE-FOUR
Info: 1-4 ELECTROSTATICS SCALED BY 0.833333
Info: MODIFIED 1-4 VDW PARAMETERS WILL BE USED
Info: DCD FILENAME           mobley_49274_equil.dcd
Info: DCD FREQUENCY          100000
Info: DCD FIRST STEP         100000
Info: DCD FILE WILL CONTAIN UNIT CELL DATA
Info: XST FILENAME           mobley_49274_equil.xst
Info: XST FREQUENCY          100000
Info: NO VELOCITY DCD OUTPUT
Info: NO FORCE DCD OUTPUT
Info: OUTPUT FILENAME        mobley_49274_equil
Info: BINARY OUTPUT FILES WILL BE USED
Info: RESTART FILENAME       mobley_49274_equil.restart
Info: RESTART FREQUENCY      100000
Info: BINARY RESTART FILES WILL BE USED
Info: CUTOFF                 9
Info: PAIRLIST DISTANCE      11
Info: PAIRLIST SHRINK RATE   0.01
Info: PAIRLIST GROW RATE     0.01
Info: PAIRLIST TRIGGER       0.3
Info: PAIRLISTS PER CYCLE    2
Info: PAIRLISTS ENABLED
Info: MARGIN                 8
Info: HYDROGEN GROUP CUTOFF  2.5
Info: PATCH DIMENSION        21.5
Info: ENERGY OUTPUT STEPS    100000
Info: ENERGY EVALUATION STEPS    100000
Info: OUTPUT ENERGY PRECISION 4
Info: CROSSTERM ENERGY INCLUDED IN DIHEDRAL
Info: TIMING OUTPUT STEPS    1000000
Info: PRESSURE OUTPUT STEPS  100000
Info: LANGEVIN DYNAMICS ACTIVE
Info: LANGEVIN TEMPERATURE   30
Info: LANGEVIN USING BBK INTEGRATOR
Info: LANGEVIN DAMPING COEFFICIENT IS 1 INVERSE PS
Info: LANGEVIN DYNAMICS APPLIED TO HYDROGENS
Info: LANGEVIN PISTON PRESSURE CONTROL ACTIVE
Info:        TARGET PRESSURE IS 1.01325 BAR
Info:     OSCILLATION PERIOD IS 50 FS
Info:             DECAY TIME IS 25 FS
Info:     PISTON TEMPERATURE IS 300 K
Info:       PRESSURE CONTROL IS GROUP-BASED
Info:    INITIAL STRAIN RATE IS 0 0 0
Info:       CELL FLUCTUATION IS ISOTROPIC
Info: PARTICLE MESH EWALD (PME) ACTIVE
Info: PME TOLERANCE               1e-06
Info: PME EWALD COEFFICIENT       0.348832
Info: PME INTERPOLATION ORDER     4
Info: PME GRID DIMENSIONS         36 36 40
Info: PME MAXIMUM GRID SPACING    1
Info: FULL ELECTROSTATIC EVALUATION FREQUENCY      2
Info: USING VERLET I (r-RESPA) MTS SCHEME.
Info: C1 SPLITTING OF LONG RANGE ELECTROSTATICS
Info: PLACING ATOMS IN PATCHES BY HYDROGEN GROUPS
Info: RIGID BONDS TO HYDROGEN : ALL
Info:         ERROR TOLERANCE : 1e-08
Info:          MAX ITERATIONS : 100
Info: RIGID WATER USING SETTLE ALGORITHM
Info: RANDOM NUMBER SEED     1743250003
Info: USE HYDROGEN BONDS?    NO
Info: Using AMBER format force field!
Info: AMBER PARM FILE        mobley_49274.prmtop
Info: COORDINATE PDB         mobley_49274.pdb
Info: Exclusions will be read from PARM file!
Info: SCNB (VDW SCALING)     2
Info: USING ARITHMETIC MEAN TO COMBINE L-J SIGMA PARAMETERS
Info: BINARY COORDINATES     mobley_49274_min.coor
Info: SUMMARY OF PARAMETERS:
Info: 7 BONDS
Info: 7 ANGLES
Info: 7 DIHEDRAL
Info: 0 IMPROPER
Info: 0 CROSSTERM
Info: 0 VDW
Info: 21 VDW_PAIRS
Info: 0 NBTHOLE_PAIRS
Info: STRUCTURE SUMMARY:
Info: 2986 ATOMS
Info: 2985 BONDS
Info: 32 ANGLES
Info: 44 DIHEDRALS
Info: 0 IMPROPERS
Info: 0 CROSSTERMS
Info: 3057 EXCLUSIONS
Info: 2979 RIGID BONDS
Info: 5979 DEGREES OF FREEDOM
Info: 996 HYDROGEN GROUPS
Info: 4 ATOMS IN LARGEST HYDROGEN GROUP
Info: 996 MIGRATION GROUPS
Info: 4 ATOMS IN LARGEST MIGRATION GROUP
Info: TOTAL MASS = 17914 amu
Info: TOTAL CHARGE = 9.99961e-05 e
Info: MASS DENSITY = 0.676687 g/cm^3
Info: ATOM DENSITY = 0.0679245 atoms/A^3
Info: ADDED 0 IMPLICIT EXCLUSIONS
Info: NONBONDED TABLE R-SQUARED SPACING: 0.0625
Info: NONBONDED TABLE SIZE: 705 POINTS
Info: REMOVING COM VELOCITY 0.0267482 -0.0851542 0.00182756
TCL: Running for 100000 steps
ETITLE: TS BOND ANGLE DIHED IMPRP ELECT VDW BOUNDARY MISC KINETIC TOTAL TEMP POTENTIAL TOTAL3 TEMPAVG PRESSURE GPRESSURE VOLUME PRESSAVG GPRESSAVG
ENERGY: 0 0.0605 0.1461 0.8271 0.0000 -13709.6145 2406.0116 0.0000 0.0000 1807.2802 -9495.2890 304.2197 -11302.5692 -9494.9236 304.2197 412.7994 446.5105 43960.5826 412.7994 446.5105
ENERGY: 100000 0.3332 1.9742 1.4785 0.0000 -14363.2417 2474.1564 0.0000 0.0000 180.7975 -11704.5019 30.4337 -11885.2994 -11704.0246 30.9996 -170.2418 -129.1690 28907.5147 5.0662 4.9958
TCL: Running 100000 steps at 60 kelvin.
TCL: Setting parameter langevinTemp to 60
TCL: Running for 100000 steps
ETITLE: TS BOND ANGLE DIHED IMPRP ELECT VDW BOUNDARY MISC KINETIC TOTAL TEMP POTENTIAL TOTAL3 TEMPAVG PRESSURE GPRESSURE VOLUME PRESSAVG GPRESSAVG
ENERGY: 100000 0.3332 1.9742 1.4785 0.0000 -14363.2417 2474.1564 0.0000 0.0000 180.7088 -11704.5906 30.4187 -11885.2994 -11704.1368 30.4187 -186.1590 -129.2177 28907.5147 -186.1590 -129.2177
ENERGY: 200000 0.3367 1.8642 1.1680 0.0000 -14307.9811 2488.8830 0.0000 0.0000 356.8380 -11458.8912 60.0666 -11815.7292 -11457.7871 60.0089 151.7048 211.0208 29088.3997 4.3330 4.2577
TCL: Running 100000 steps at 90 kelvin.
TCL: Setting parameter langevinTemp to 90
TCL: Running for 100000 steps
ETITLE: TS BOND ANGLE DIHED IMPRP ELECT VDW BOUNDARY MISC KINETIC TOTAL TEMP POTENTIAL TOTAL3 TEMPAVG PRESSURE GPRESSURE VOLUME PRESSAVG GPRESSAVG
ENERGY: 200000 0.3367 1.8642 1.1680 0.0000 -14307.9811 2488.8830 0.0000 0.0000 356.6593 -11459.0698 60.0365 -11815.7292 -11458.2750 60.0365 152.2888 211.4299 29088.3997 152.2888 211.4299
ENERGY: 300000 0.5764 3.0253 1.2546 0.0000 -14111.4743 2428.7686 0.0000 0.0000 555.0254 -11122.8240 93.4275 -11677.8494 -11121.5145 90.0633 120.1826 185.9263 29213.1953 3.9830 4.0409
TCL: Running 100000 steps at 120 kelvin.
TCL: Setting parameter langevinTemp to 120
TCL: Running for 100000 steps
ETITLE: TS BOND ANGLE DIHED IMPRP ELECT VDW BOUNDARY MISC KINETIC TOTAL TEMP POTENTIAL TOTAL3 TEMPAVG PRESSURE GPRESSURE VOLUME PRESSAVG GPRESSAVG
ENERGY: 300000 0.5764 3.0253 1.2546 0.0000 -14111.4743 2428.7686 0.0000 0.0000 554.7549 -11123.0946 93.3820 -11677.8494 -11121.9634 93.3820 133.2332 185.5090 29213.1953 133.2332 185.5090
ENERGY: 400000 1.9018 2.5632 1.2525 0.0000 -13829.7116 2285.2919 0.0000 0.0000 686.6667 -10852.0356 115.5867 -11538.7023 -10850.5372 119.9087 -547.0378 -463.8350 29280.6480 3.8682 3.8553
TCL: Running 100000 steps at 150 kelvin.
TCL: Setting parameter langevinTemp to 150
TCL: Running for 100000 steps
ETITLE: TS BOND ANGLE DIHED IMPRP ELECT VDW BOUNDARY MISC KINETIC TOTAL TEMP POTENTIAL TOTAL3 TEMPAVG PRESSURE GPRESSURE VOLUME PRESSAVG GPRESSAVG
ENERGY: 400000 1.9018 2.5632 1.2525 0.0000 -13829.7116 2285.2919 0.0000 0.0000 686.3111 -10852.3912 115.5268 -11538.7023 -10850.6094 115.5268 -520.5879 -464.8403 29280.6480 -520.5879 -464.8403
ENERGY: 500000 1.2729 5.8426 1.8669 0.0000 -13793.2554 2381.5451 0.0000 0.0000 889.3352 -10513.3927 149.7019 -11402.7279 -10511.0697 149.8878 845.4800 813.2404 29055.8084 3.5828 3.6354
TCL: Running 100000 steps at 180 kelvin.
TCL: Setting parameter langevinTemp to 180
TCL: Running for 100000 steps
ETITLE: TS BOND ANGLE DIHED IMPRP ELECT VDW BOUNDARY MISC KINETIC TOTAL TEMP POTENTIAL TOTAL3 TEMPAVG PRESSURE GPRESSURE VOLUME PRESSAVG GPRESSAVG
ENERGY: 500000 1.2729 5.8426 1.8669 0.0000 -13793.2554 2381.5451 0.0000 0.0000 888.8968 -10513.8311 149.6281 -11402.7279 -10512.4407 149.6281 774.1601 813.7464 29055.8084 774.1601 813.7464
ENERGY: 600000 2.3356 4.5754 1.1476 0.0000 -13153.7012 2043.7673 0.0000 0.0000 1111.8150 -9990.0603 187.1520 -11101.8754 -9986.4457 180.0885 -739.1229 -669.8682 29296.8921 2.8772 2.9219
TCL: Running 100000 steps at 210 kelvin.
TCL: Setting parameter langevinTemp to 210
TCL: Running for 100000 steps
ETITLE: TS BOND ANGLE DIHED IMPRP ELECT VDW BOUNDARY MISC KINETIC TOTAL TEMP POTENTIAL TOTAL3 TEMPAVG PRESSURE GPRESSURE VOLUME PRESSAVG GPRESSAVG
ENERGY: 600000 2.3356 4.5754 1.1476 0.0000 -13153.7012 2043.7673 0.0000 0.0000 1111.2820 -9990.5934 187.0622 -11101.8754 -9987.8490 187.0622 -729.9361 -670.7969 29296.8921 -729.9361 -670.7969
ENERGY: 700000 3.0578 8.0052 1.2081 0.0000 -12790.9892 2049.1946 0.0000 0.0000 1255.7435 -9473.7800 211.3794 -10729.5235 -9471.3192 209.6769 563.8382 662.9177 29213.3269 2.3753 2.5220
TCL: Running 100000 steps at 240 kelvin.
TCL: Setting parameter langevinTemp to 240
TCL: Running for 100000 steps
ETITLE: TS BOND ANGLE DIHED IMPRP ELECT VDW BOUNDARY MISC KINETIC TOTAL TEMP POTENTIAL TOTAL3 TEMPAVG PRESSURE GPRESSURE VOLUME PRESSAVG GPRESSAVG
ENERGY: 700000 3.0578 8.0052 1.2081 0.0000 -12790.9892 2049.1946 0.0000 0.0000 1255.1331 -9474.3903 211.2767 -10729.5235 -9472.2254 211.2767 597.2385 661.9812 29213.3269 597.2385 661.9812
ENERGY: 800000 0.9225 6.8780 1.3051 0.0000 -11818.1599 1614.1995 0.0000 0.0000 1417.5223 -8777.3325 238.6117 -10194.8548 -8773.1638 239.7533 -753.8200 -729.7654 29434.6532 3.4127 3.4902
TCL: Running 100000 steps at 270 kelvin.
TCL: Setting parameter langevinTemp to 270
TCL: Running for 100000 steps
ETITLE: TS BOND ANGLE DIHED IMPRP ELECT VDW BOUNDARY MISC KINETIC TOTAL TEMP POTENTIAL TOTAL3 TEMPAVG PRESSURE GPRESSURE VOLUME PRESSAVG GPRESSAVG
ENERGY: 800000 0.9225 6.8780 1.3051 0.0000 -11818.1599 1614.1995 0.0000 0.0000 1416.8281 -8778.0266 238.4948 -10194.8548 -8775.1655 238.4948 -807.7162 -729.0615 29434.6532 -807.7162 -729.0615
ENERGY: 900000 2.3459 8.3810 2.8210 0.0000 -11291.2530 1579.8881 0.0000 0.0000 1587.4832 -8110.3338 267.2212 -9697.8170 -8106.9721 270.1525 54.4656 110.9501 30203.4221 3.8949 3.7271
TCL: Running 1000000 steps at 300 kelvin.
TCL: Setting parameter langevinTemp to 300
TCL: Running for 1000000 steps
ETITLE: TS BOND ANGLE DIHED IMPRP ELECT VDW BOUNDARY MISC KINETIC TOTAL TEMP POTENTIAL TOTAL3 TEMPAVG PRESSURE GPRESSURE VOLUME PRESSAVG GPRESSAVG
ENERGY: 900000 2.3459 8.3810 2.8210 0.0000 -11291.2530 1579.8881 0.0000 0.0000 1586.6855 -8111.1315 267.0870 -9697.8170 -8108.3086 267.0870 42.3394 110.6742 30203.4221 42.3394 110.6742
ENERGY: 1100000 3.3895 5.4433 2.0149 0.0000 -10925.6167 1480.1085 0.0000 0.0000 1741.7898 -7692.8707 293.1957 -9434.6604 -7689.1991 300.1095 88.8000 191.8560 30659.0903 4.7698 4.8108
ENERGY: 1300000 2.4354 10.2144 3.1495 0.0000 -10884.0841 1533.4201 0.0000 0.0000 1767.6036 -7567.2611 297.5409 -9334.8648 -7562.9115 299.4128 902.6310 1037.0644 30362.9661 3.0436 3.0155
ENERGY: 1500000 1.0418 6.9528 1.7666 0.0000 -10706.7600 1351.9973 0.0000 0.0000 1849.8686 -7495.1329 311.3886 -9345.0015 -7492.8481 300.0251 -925.3317 -766.2355 30849.5742 3.7386 3.5163
ENERGY: 1700000 2.6945 6.0431 1.4841 0.0000 -10918.7695 1452.5374 0.0000 0.0000 1739.6297 -7716.3807 292.8321 -9456.0104 -7713.8967 299.6723 -317.1332 -259.4137 30540.2090 2.5299 2.4963
ENERGY: 1900000 1.6735 8.4441 1.9251 0.0000 -10725.5766 1399.1474 0.0000 0.0000 1798.7122 -7515.6744 302.7774 -9314.3866 -7511.1511 300.7438 -214.5130 -182.1313 30720.3444 3.4971 3.4124
TCL: Exiting due to exit command.
