Info: SIMULATION PARAMETERS:
Info: TIMESTEP               2
Info: NUMBER OF STEPS        0
Info: STEPS PER CYCLE        10
Info: PERIODIC CELL BASIS 1  35.01 0 0
Info: PERIODIC CELL BASIS 2  0 35.779 0
Info: PERIODIC CELL BASIS 3  0 0 35.516
Info: PERIODIC CELL CENTER   0 0 0
Info: WRAPPING WATERS AROUND PERIODIC BOUNDARIES ON OUTPUT.
Info: WRAPPING ALL CLUSTERS AROUND PERIODIC BOUNDARIES ON OUTPUT.
Info: FIRST LDB TIMESTEP     50
Info: LAST LDB TIMESTEP     -1
Info: HOM BACKGROUND SCALING 1
Info: PME BACKGROUND SCALING 1
Info: MIN ATOMS PER PATCH    40
Info: EMPTY PATCH LOAD       40 ATOMS
Info: INITIAL TEMPERATURE    300
Info: CENTER OF MASS MOVING INITIALLY? NO
Info: DIELECTRIC             1
Info: EXCLUDE                SCALED ONE-FOUR
Info: 1-4 ELECTROSTATICS SCALED BY 0.833333
Info: MODIFIED 1-4 VDW PARAMETERS WILL BE USED
Info: DCD FILENAME           mobley_7532833_equil.dcd
Info: DCD FREQUENCY          100000
Info: DCD FIRST STEP         100000
Info: DCD FILE WILL CONTAIN UNIT CELL DATA
Info: XST FILENAME           mobley_7532833_equil.xst
Info: XST FREQUENCY          100000
Info: NO VELOCITY DCD OUTPUT
Info: NO FORCE DCD OUTPUT
Info: OUTPUT FILENAME        mobley_7532833_equil
Info: BINARY OUTPUT FILES WILL BE USED
Info: RESTART FILENAME       mobley_7532833_equil.restart
Info: RESTART FREQUENCY      100000
Info: BINARY RESTART FILES WILL BE USED
Info: CUTOFF                 9
Info: PAIRLIST DISTANCE      11
Info: PAIRLIST SHRINK RATE   0.01
Info: PAIRLIST GROW RATE     0.01
Info: PAIRLIST TRIGGER       0.3
Info: PAIRLISTS PER CYCLE    2
Info: PAIRLISTS ENABLED
Info: MARGIN                 8
Info: HYDROGEN GROUP CUTOFF  2.5
Info: PATCH DIMENSION        21.5
Info: ENERGY OUTPUT STEPS    100000
Info: ENERGY EVALUATION STEPS    100000
Info: OUTPUT ENERGY PRECISION 4
Info: CROSSTERM ENERGY INCLUDED IN DIHEDRAL
Info: TIMING OUTPUT STEPS    1000000
Info: PRESSURE OUTPUT STEPS  100000
Info: LANGEVIN DYNAMICS ACTIVE
Info: LANGEVIN TEMPERATURE   30
Info: LANGEVIN USING BBK INTEGRATOR
Info: LANGEVIN DAMPING COEFFICIENT IS 1 INVERSE PS
Info: LANGEVIN DYNAMICS APPLIED TO HYDROGENS
Info: LANGEVIN PISTON PRESSURE CONTROL ACTIVE
Info:        TARGET PRESSURE IS 1.01325 BAR
Info:     OSCILLATION PERIOD IS 50 FS
Info:             DECAY TIME IS 25 FS
Info:     PISTON TEMPERATURE IS 300 K
Info:       PRESSURE CONTROL IS GROUP-BASED
Info:    INITIAL STRAIN RATE IS 0 0 0
Info:       CELL FLUCTUATION IS ISOTROPIC
Info: PARTICLE MESH EWALD (PME) ACTIVE
Info: PME TOLERANCE               1e-06
Info: PME EWALD COEFFICIENT       0.348832
Info: PME INTERPOLATION ORDER     4
Info: PME GRID DIMENSIONS         36 36 36
Info: PME MAXIMUM GRID SPACING    1
Info: FULL ELECTROSTATIC EVALUATION FREQUENCY      2
Info: USING VERLET I (r-RESPA) MTS SCHEME.
Info: C1 SPLITTING OF LONG RANGE ELECTROSTATICS
Info: PLACING ATOMS IN PATCHES BY HYDROGEN GROUPS
Info: RIGID BONDS TO HYDROGEN : ALL
Info:         ERROR TOLERANCE : 1e-08
Info:          MAX ITERATIONS : 100
Info: RIGID WATER USING SETTLE ALGORITHM
Info: RANDOM NUMBER SEED     1743156311
Info: USE HYDROGEN BONDS?    NO
Info: Using AMBER format force field!
Info: AMBER PARM FILE        mobley_7532833.prmtop
Info: COORDINATE PDB         mobley_7532833.pdb
Info: Exclusions will be read from PARM file!
Info: SCNB (VDW SCALING)     2
Info: USING ARITHMETIC MEAN TO COMBINE L-J SIGMA PARAMETERS
Info: BINARY COORDINATES     mobley_7532833_min.coor
Info: SUMMARY OF PARAMETERS:
Info: 5 BONDS
Info: 3 ANGLES
Info:   3 HARMONIC
Info:   0 COSINE-BASED
Info: 1 DIHEDRAL
Info: 0 IMPROPER
Info: 0 CROSSTERM
Info: 0 VDW
Info: 21 VDW_PAIRS
Info: 0 NBTHOLE_PAIRS
Info: STRUCTURE SUMMARY:
Info: 2958 ATOMS
Info: 2957 BONDS
Info: 7 ANGLES
Info: 3 DIHEDRALS
Info: 0 IMPROPERS
Info: 0 CROSSTERMS
Info: 2967 EXCLUSIONS
Info: 2955 RIGID BONDS
Info: 5919 DEGREES OF FREEDOM
Info: 987 HYDROGEN GROUPS
Info: 4 ATOMS IN LARGEST HYDROGEN GROUP
Info: 987 MIGRATION GROUPS
Info: 4 ATOMS IN LARGEST MIGRATION GROUP
Info: TOTAL MASS = 17768.8 amu
Info: TOTAL CHARGE = 0.000100002 e
Info: MASS DENSITY = 0.663243 g/cm^3
Info: ATOM DENSITY = 0.0664896 atoms/A^3
Info: ADDED 0 IMPLICIT EXCLUSIONS
Info: NONBONDED TABLE R-SQUARED SPACING: 0.0625
Info: NONBONDED TABLE SIZE: 705 POINTS
Info: REMOVING COM VELOCITY -0.117026 -0.121057 -0.286369
TCL: Running for 100000 steps
ETITLE: TS BOND ANGLE DIHED IMPRP ELECT VDW BOUNDARY MISC KINETIC TOTAL TEMP POTENTIAL TOTAL3 TEMPAVG PRESSURE GPRESSURE VOLUME PRESSAVG GPRESSAVG
ENERGY: 0 0.0017 0.0889 0.0000 0.0000 -13728.0228 2435.1798 0.0000 0.0000 1801.8023 -9490.9502 306.3721 -11292.7525 -9490.5903 306.3721 577.8233 611.7052 44488.1510 577.8233 611.7052
ENERGY: 100000 0.0481 0.3322 0.0000 0.0000 -14359.4006 2518.1037 0.0000 0.0000 172.6196 -11668.2971 29.3516 -11840.9167 -11668.2671 30.9845 145.1852 196.1548 28959.8730 4.0247 4.0460
TCL: Running 100000 steps at 60 kelvin.
TCL: Setting parameter langevinTemp to 60
TCL: Running for 100000 steps
ETITLE: TS BOND ANGLE DIHED IMPRP ELECT VDW BOUNDARY MISC KINETIC TOTAL TEMP POTENTIAL TOTAL3 TEMPAVG PRESSURE GPRESSURE VOLUME PRESSAVG GPRESSAVG
ENERGY: 100000 0.0481 0.3322 0.0000 0.0000 -14359.4006 2518.1037 0.0000 0.0000 172.5326 -11668.3841 29.3368 -11840.9167 -11668.0023 29.3368 152.2845 195.5904 28959.8730 152.2845 195.5904
ENERGY: 200000 1.7857 0.7274 0.0000 0.0000 -14216.7566 2471.2316 0.0000 0.0000 354.5590 -11388.4530 60.2879 -11743.0119 -11387.6652 60.0041 143.2251 195.4345 28744.9792 4.5308 4.5572
TCL: Running 100000 steps at 90 kelvin.
TCL: Setting parameter langevinTemp to 90
TCL: Running for 100000 steps
ETITLE: TS BOND ANGLE DIHED IMPRP ELECT VDW BOUNDARY MISC KINETIC TOTAL TEMP POTENTIAL TOTAL3 TEMPAVG PRESSURE GPRESSURE VOLUME PRESSAVG GPRESSAVG
ENERGY: 200000 1.7857 0.7274 0.0000 0.0000 -14216.7566 2471.2316 0.0000 0.0000 354.3753 -11388.6367 60.2567 -11743.0119 -11387.9650 60.2567 144.8728 195.5219 28744.9792 144.8728 195.5219
ENERGY: 300000 1.8873 0.9575 0.0000 0.0000 -13958.5887 2309.0457 0.0000 0.0000 519.7539 -11126.9443 88.3771 -11646.6982 -11126.0044 89.8432 -554.0002 -540.8063 28658.6823 3.6157 3.6442
TCL: Running 100000 steps at 120 kelvin.
TCL: Setting parameter langevinTemp to 120
TCL: Running for 100000 steps
ETITLE: TS BOND ANGLE DIHED IMPRP ELECT VDW BOUNDARY MISC KINETIC TOTAL TEMP POTENTIAL TOTAL3 TEMPAVG PRESSURE GPRESSURE VOLUME PRESSAVG GPRESSAVG
ENERGY: 300000 1.8873 0.9575 0.0000 0.0000 -13958.5887 2309.0457 0.0000 0.0000 519.4991 -11127.1991 88.3338 -11646.6982 -11126.2076 88.3338 -576.8126 -540.9926 28658.6823 -576.8126 -540.9926
ENERGY: 400000 0.7080 2.6567 0.0000 0.0000 -13772.3824 2257.1106 0.0000 0.0000 709.1822 -10802.7249 120.5868 -11511.9071 -10801.0136 119.9685 -603.3719 -563.7335 28900.9073 3.0553 2.9764
TCL: Running 100000 steps at 150 kelvin.
TCL: Setting parameter langevinTemp to 150
TCL: Running for 100000 steps
ETITLE: TS BOND ANGLE DIHED IMPRP ELECT VDW BOUNDARY MISC KINETIC TOTAL TEMP POTENTIAL TOTAL3 TEMPAVG PRESSURE GPRESSURE VOLUME PRESSAVG GPRESSAVG
ENERGY: 400000 0.7080 2.6567 0.0000 0.0000 -13772.3824 2257.1106 0.0000 0.0000 708.8232 -10803.0839 120.5258 -11511.9071 -10801.5573 120.5258 -625.9534 -563.2687 28900.9073 -625.9534 -563.2687
ENERGY: 500000 0.6300 1.3899 0.0000 0.0000 -13557.9255 2197.3115 0.0000 0.0000 889.5608 -10469.0332 151.2578 -11358.5940 -10466.5992 150.2027 -654.0260 -576.3179 28965.3369 4.9473 4.9485
TCL: Running 100000 steps at 180 kelvin.
TCL: Setting parameter langevinTemp to 180
TCL: Running for 100000 steps
ETITLE: TS BOND ANGLE DIHED IMPRP ELECT VDW BOUNDARY MISC KINETIC TOTAL TEMP POTENTIAL TOTAL3 TEMPAVG PRESSURE GPRESSURE VOLUME PRESSAVG GPRESSAVG
ENERGY: 500000 0.6300 1.3899 0.0000 0.0000 -13557.9255 2197.3115 0.0000 0.0000 889.1259 -10469.4681 151.1838 -11358.5940 -10467.8620 151.1838 -637.3005 -575.5988 28965.3369 -637.3005 -575.5988
ENERGY: 600000 0.4212 1.5248 0.0000 0.0000 -13117.2651 2056.7281 0.0000 0.0000 1031.3573 -10027.2337 175.3683 -11058.5910 -10024.0462 180.0440 -667.9923 -592.1482 29045.0712 4.2401 4.2461
TCL: Running 100000 steps at 210 kelvin.
TCL: Setting parameter langevinTemp to 210
TCL: Running for 100000 steps
ETITLE: TS BOND ANGLE DIHED IMPRP ELECT VDW BOUNDARY MISC KINETIC TOTAL TEMP POTENTIAL TOTAL3 TEMPAVG PRESSURE GPRESSURE VOLUME PRESSAVG GPRESSAVG
ENERGY: 600000 0.4212 1.5248 0.0000 0.0000 -13117.2651 2056.7281 0.0000 0.0000 1030.8261 -10027.7649 175.2780 -11058.5910 -10025.5293 175.2780 -663.0778 -592.0668 29045.0712 -663.0778 -592.0668
ENERGY: 700000 0.2454 1.3857 0.0000 0.0000 -12358.5076 1815.4554 0.0000 0.0000 1224.4995 -9316.9217 208.2096 -10541.4212 -9313.9170 209.9415 -416.1395 -391.0370 28555.4559 4.1952 4.1070
TCL: Running 100000 steps at 240 kelvin.
TCL: Setting parameter langevinTemp to 240
TCL: Running for 100000 steps
ETITLE: TS BOND ANGLE DIHED IMPRP ELECT VDW BOUNDARY MISC KINETIC TOTAL TEMP POTENTIAL TOTAL3 TEMPAVG PRESSURE GPRESSURE VOLUME PRESSAVG GPRESSAVG
ENERGY: 700000 0.2454 1.3857 0.0000 0.0000 -12358.5076 1815.4554 0.0000 0.0000 1223.9037 -9317.5175 208.1082 -10541.4212 -9315.6875 208.1082 -452.0189 -390.2513 28555.4559 -452.0189 -390.2513
ENERGY: 800000 0.4569 1.3184 0.0000 0.0000 -11826.1137 1657.3608 0.0000 0.0000 1327.1513 -8839.8262 225.6641 -10166.9775 -8838.3083 240.0514 -1005.8302 -894.5508 29579.9969 3.7540 3.7315
TCL: Running 100000 steps at 270 kelvin.
TCL: Setting parameter langevinTemp to 270
TCL: Running for 100000 steps
ETITLE: TS BOND ANGLE DIHED IMPRP ELECT VDW BOUNDARY MISC KINETIC TOTAL TEMP POTENTIAL TOTAL3 TEMPAVG PRESSURE GPRESSURE VOLUME PRESSAVG GPRESSAVG
ENERGY: 800000 0.4569 1.3184 0.0000 0.0000 -11826.1137 1657.3608 0.0000 0.0000 1326.4351 -8840.5423 225.5423 -10166.9775 -8838.0395 225.5423 -990.8890 -897.0676 29579.9969 -990.8890 -897.0676
ENERGY: 900000 0.4429 1.6812 0.0000 0.0000 -11265.5683 1564.1170 0.0000 0.0000 1624.5986 -8074.7286 276.2410 -9699.3272 -8070.3076 269.7723 339.6195 358.6156 29074.4850 3.1012 3.1791
TCL: Running 1000000 steps at 300 kelvin.
TCL: Setting parameter langevinTemp to 300
TCL: Running for 1000000 steps
ETITLE: TS BOND ANGLE DIHED IMPRP ELECT VDW BOUNDARY MISC KINETIC TOTAL TEMP POTENTIAL TOTAL3 TEMPAVG PRESSURE GPRESSURE VOLUME PRESSAVG GPRESSAVG
ENERGY: 900000 0.4429 1.6812 0.0000 0.0000 -11265.5683 1564.1170 0.0000 0.0000 1623.8153 -8075.5119 276.1078 -9699.3272 -8072.9132 276.1078 274.2471 357.8896 29074.4850 274.2471 357.8896
ENERGY: 1100000 0.6511 4.1165 0.0000 0.0000 -10723.0988 1437.1066 0.0000 0.0000 1741.1452 -7540.0793 296.0582 -9281.2246 -7540.1796 300.3433 -129.1672 -106.8086 30778.7306 2.1995 2.2876
ENERGY: 1300000 0.8611 2.2783 0.0000 0.0000 -10903.1509 1548.7918 0.0000 0.0000 1751.5195 -7599.7003 297.8222 -9351.2198 -7599.5049 300.0757 483.8463 584.6171 30608.6378 3.8534 3.8471
ENERGY: 1500000 0.0197 2.1627 0.0000 0.0000 -10658.4247 1396.7602 0.0000 0.0000 1732.5828 -7526.8993 294.6022 -9259.4821 -7525.3416 300.3076 -230.0641 -181.9304 30508.3380 1.6032 1.7643
ENERGY: 1700000 0.0036 4.4452 0.0000 0.0000 -10841.9513 1469.7013 0.0000 0.0000 1731.4502 -7636.3510 294.4097 -9367.8012 -7632.5150 299.9190 85.7574 108.3935 30574.3597 2.5614 2.5957
ENERGY: 1900000 1.5196 1.2841 0.0000 0.0000 -10702.2018 1399.9719 0.0000 0.0000 1757.1050 -7542.3211 298.7719 -9299.4262 -7540.4926 300.7347 -482.7189 -392.7591 30554.7171 2.4192 2.3925
TCL: Exiting due to exit command.
