Info: SIMULATION PARAMETERS:
Info: TIMESTEP               2
Info: NUMBER OF STEPS        0
Info: STEPS PER CYCLE        10
Info: PERIODIC CELL BASIS 1  34.986 0 0
Info: PERIODIC CELL BASIS 2  0 34.26 0
Info: PERIODIC CELL BASIS 3  0 0 37.195
Info: PERIODIC CELL CENTER   0 0 0
Info: WRAPPING WATERS AROUND PERIODIC BOUNDARIES ON OUTPUT.
Info: WRAPPING ALL CLUSTERS AROUND PERIODIC BOUNDARIES ON OUTPUT.
Info: FIRST LDB TIMESTEP     50
Info: LAST LDB TIMESTEP     -1
Info: HOM BACKGROUND SCALING 1
Info: PME BACKGROUND SCALING 1
Info: MIN ATOMS PER PATCH    40
Info: EMPTY PATCH LOAD       40 ATOMS
Info: INITIAL TEMPERATURE    300
Info: CENTER OF MASS MOVING INITIALLY? NO
Info: DIELECTRIC             1
Info: EXCLUDE                SCALED ONE-FOUR
Info: 1-4 ELECTROSTATICS SCALED BY 0.833333
Info: MODIFIED 1-4 VDW PARAMETERS WILL BE USED
Info: DCD FILENAME           mobley_2693089_equil.dcd
Info: DCD FREQUENCY          100000
Info: DCD FIRST STEP         100000
Info: DCD FILE WILL CONTAIN UNIT CELL DATA
Info: XST FILENAME           mobley_2693089_equil.xst
Info: XST FREQUENCY          100000
Info: NO VELOCITY DCD OUTPUT
Info: NO FORCE DCD OUTPUT
Info: OUTPUT FILENAME        mobley_2693089_equil
Info: BINARY OUTPUT FILES WILL BE USED
Info: RESTART FILENAME       mobley_2693089_equil.restart
Info: RESTART FREQUENCY      100000
Info: BINARY RESTART FILES WILL BE USED
Info: CUTOFF                 9
Info: PAIRLIST DISTANCE      11
Info: PAIRLIST SHRINK RATE   0.01
Info: PAIRLIST GROW RATE     0.01
Info: PAIRLIST TRIGGER       0.3
Info: PAIRLISTS PER CYCLE    2
Info: PAIRLISTS ENABLED
Info: MARGIN                 8
Info: HYDROGEN GROUP CUTOFF  2.5
Info: PATCH DIMENSION        21.5
Info: ENERGY OUTPUT STEPS    100000
Info: ENERGY EVALUATION STEPS    100000
Info: OUTPUT ENERGY PRECISION 4
Info: CROSSTERM ENERGY INCLUDED IN DIHEDRAL
Info: TIMING OUTPUT STEPS    1000000
Info: PRESSURE OUTPUT STEPS  100000
Info: LANGEVIN DYNAMICS ACTIVE
Info: LANGEVIN TEMPERATURE   30
Info: LANGEVIN USING BBK INTEGRATOR
Info: LANGEVIN DAMPING COEFFICIENT IS 1 INVERSE PS
Info: LANGEVIN DYNAMICS APPLIED TO HYDROGENS
Info: LANGEVIN PISTON PRESSURE CONTROL ACTIVE
Info:        TARGET PRESSURE IS 1.01325 BAR
Info:     OSCILLATION PERIOD IS 50 FS
Info:             DECAY TIME IS 25 FS
Info:     PISTON TEMPERATURE IS 300 K
Info:       PRESSURE CONTROL IS GROUP-BASED
Info:    INITIAL STRAIN RATE IS 0 0 0
Info:       CELL FLUCTUATION IS ISOTROPIC
Info: PARTICLE MESH EWALD (PME) ACTIVE
Info: PME TOLERANCE               1e-06
Info: PME EWALD COEFFICIENT       0.348832
Info: PME INTERPOLATION ORDER     4
Info: PME GRID DIMENSIONS         36 36 40
Info: PME MAXIMUM GRID SPACING    1
Info: FULL ELECTROSTATIC EVALUATION FREQUENCY      2
Info: USING VERLET I (r-RESPA) MTS SCHEME.
Info: C1 SPLITTING OF LONG RANGE ELECTROSTATICS
Info: PLACING ATOMS IN PATCHES BY HYDROGEN GROUPS
Info: RIGID BONDS TO HYDROGEN : ALL
Info:         ERROR TOLERANCE : 1e-08
Info:          MAX ITERATIONS : 100
Info: RIGID WATER USING SETTLE ALGORITHM
Info: RANDOM NUMBER SEED     1743244473
Info: USE HYDROGEN BONDS?    NO
Info: Using AMBER format force field!
Info: AMBER PARM FILE        mobley_2693089.prmtop
Info: COORDINATE PDB         mobley_2693089.pdb
Info: Exclusions will be read from PARM file!
Info: SCNB (VDW SCALING)     2
Info: USING ARITHMETIC MEAN TO COMBINE L-J SIGMA PARAMETERS
Info: BINARY COORDINATES     mobley_2693089_min.coor
Info: SUMMARY OF PARAMETERS:
Info: 8 BONDS
Info: 11 ANGLES
Info:   11 HARMONIC
Info:   0 COSINE-BASED
Info: 7 DIHEDRAL
Info: 0 IMPROPER
Info: 0 CROSSTERM
Info: 0 VDW
Info: 28 VDW_PAIRS
Info: 0 NBTHOLE_PAIRS
Info: STRUCTURE SUMMARY:
Info: 2962 ATOMS
Info: 2962 BONDS
Info: 38 ANGLES
Info: 53 DIHEDRALS
Info: 0 IMPROPERS
Info: 0 CROSSTERMS
Info: 3046 EXCLUSIONS
Info: 2952 RIGID BONDS
Info: 5934 DEGREES OF FREEDOM
Info: 990 HYDROGEN GROUPS
Info: 4 ATOMS IN LARGEST HYDROGEN GROUP
Info: 990 MIGRATION GROUPS
Info: 4 ATOMS IN LARGEST MIGRATION GROUP
Info: TOTAL MASS = 17791.9 amu
Info: TOTAL CHARGE = -9.99868e-05 e
Info: MASS DENSITY = 0.662697 g/cm^3
Info: ATOM DENSITY = 0.0664384 atoms/A^3
Info: ADDED 0 IMPLICIT EXCLUSIONS
Info: NONBONDED TABLE R-SQUARED SPACING: 0.0625
Info: NONBONDED TABLE SIZE: 705 POINTS
Info: REMOVING COM VELOCITY -0.0500883 0.0646249 -0.0135241
TCL: Running for 100000 steps
ETITLE: TS BOND ANGLE DIHED IMPRP ELECT VDW BOUNDARY MISC KINETIC TOTAL TEMP POTENTIAL TOTAL3 TEMPAVG PRESSURE GPRESSURE VOLUME PRESSAVG GPRESSAVG
ENERGY: 0 1.2092 0.8919 0.1301 0.0000 -13624.0503 2422.2569 0.0000 0.0000 1783.1677 -9416.3945 302.4371 -11199.5622 -9416.0503 302.4371 617.0774 650.8451 44582.6843 617.0774 650.8451
ENERGY: 100000 1.0825 1.8115 0.2996 0.0000 -14181.7861 2501.2779 0.0000 0.0000 183.2138 -11494.1008 31.0743 -11677.3146 -11493.6942 30.9436 436.2140 474.1097 28806.3849 4.0018 4.0751
TCL: Running 100000 steps at 60 kelvin.
TCL: Setting parameter langevinTemp to 60
TCL: Running for 100000 steps
ETITLE: TS BOND ANGLE DIHED IMPRP ELECT VDW BOUNDARY MISC KINETIC TOTAL TEMP POTENTIAL TOTAL3 TEMPAVG PRESSURE GPRESSURE VOLUME PRESSAVG GPRESSAVG
ENERGY: 100000 1.0825 1.8115 0.2996 0.0000 -14181.7861 2501.2779 0.0000 0.0000 183.1214 -11494.1932 31.0586 -11677.3146 -11493.8108 31.0586 424.7761 474.1712 28806.3849 424.7761 474.1712
ENERGY: 200000 1.3757 2.8258 0.3148 0.0000 -14025.3469 2388.6720 0.0000 0.0000 354.0982 -11278.0603 60.0574 -11632.1585 -11276.8674 59.9122 -327.4261 -287.0145 28670.9255 4.9593 4.9131
TCL: Running 100000 steps at 90 kelvin.
TCL: Setting parameter langevinTemp to 90
TCL: Running for 100000 steps
ETITLE: TS BOND ANGLE DIHED IMPRP ELECT VDW BOUNDARY MISC KINETIC TOTAL TEMP POTENTIAL TOTAL3 TEMPAVG PRESSURE GPRESSURE VOLUME PRESSAVG GPRESSAVG
ENERGY: 200000 1.3757 2.8258 0.3148 0.0000 -14025.3469 2388.6720 0.0000 0.0000 353.9245 -11278.2340 60.0279 -11632.1585 -11277.4349 60.0279 -321.8718 -286.8976 28670.9255 -321.8718 -286.8976
ENERGY: 300000 2.5666 3.0111 1.1819 0.0000 -13723.0404 2165.7243 0.0000 0.0000 540.1072 -11010.4493 91.6058 -11550.5564 -11008.8683 89.8787 -1930.1853 -1844.1688 28841.8806 4.5264 4.5198
TCL: Running 100000 steps at 120 kelvin.
TCL: Setting parameter langevinTemp to 120
TCL: Running for 100000 steps
ETITLE: TS BOND ANGLE DIHED IMPRP ELECT VDW BOUNDARY MISC KINETIC TOTAL TEMP POTENTIAL TOTAL3 TEMPAVG PRESSURE GPRESSURE VOLUME PRESSAVG GPRESSAVG
ENERGY: 300000 2.5666 3.0111 1.1819 0.0000 -13723.0404 2165.7243 0.0000 0.0000 539.8358 -11010.7206 91.5597 -11550.5564 -11009.4355 91.5597 -1912.9706 -1843.5467 28841.8806 -1912.9706 -1843.5467
ENERGY: 400000 1.4404 4.1077 1.4603 0.0000 -13758.7859 2353.2772 0.0000 0.0000 713.6834 -10684.8168 121.0454 -11398.5003 -10683.3378 119.8891 465.5265 506.5263 28645.7844 2.6661 2.7218
TCL: Running 100000 steps at 150 kelvin.
TCL: Setting parameter langevinTemp to 150
TCL: Running for 100000 steps
ETITLE: TS BOND ANGLE DIHED IMPRP ELECT VDW BOUNDARY MISC KINETIC TOTAL TEMP POTENTIAL TOTAL3 TEMPAVG PRESSURE GPRESSURE VOLUME PRESSAVG GPRESSAVG
ENERGY: 400000 1.4404 4.1077 1.4603 0.0000 -13758.7859 2353.2772 0.0000 0.0000 713.3443 -10685.1559 120.9879 -11398.5003 -10683.8769 120.9879 445.3554 506.7161 28645.7844 445.3554 506.7161
ENERGY: 500000 1.3527 5.0404 0.7922 0.0000 -13597.8258 2328.8625 0.0000 0.0000 884.8331 -10376.9450 150.0736 -11261.7781 -10374.6476 149.7363 571.6375 677.1112 28818.4906 4.3373 4.2788
TCL: Running 100000 steps at 180 kelvin.
TCL: Setting parameter langevinTemp to 180
TCL: Running for 100000 steps
ETITLE: TS BOND ANGLE DIHED IMPRP ELECT VDW BOUNDARY MISC KINETIC TOTAL TEMP POTENTIAL TOTAL3 TEMPAVG PRESSURE GPRESSURE VOLUME PRESSAVG GPRESSAVG
ENERGY: 500000 1.3527 5.0404 0.7922 0.0000 -13597.8258 2328.8625 0.0000 0.0000 884.3757 -10377.4024 149.9960 -11261.7781 -10375.6482 149.9960 614.1860 677.5631 28818.4906 614.1860 677.5631
ENERGY: 600000 2.9073 5.2440 2.8773 0.0000 -13149.6895 2240.3506 0.0000 0.0000 1061.7099 -9836.6005 180.0730 -10898.3104 -9834.6670 180.0540 1001.3794 1079.5824 28911.9854 4.1165 4.2012
TCL: Running 100000 steps at 210 kelvin.
TCL: Setting parameter langevinTemp to 210
TCL: Running for 100000 steps
ETITLE: TS BOND ANGLE DIHED IMPRP ELECT VDW BOUNDARY MISC KINETIC TOTAL TEMP POTENTIAL TOTAL3 TEMPAVG PRESSURE GPRESSURE VOLUME PRESSAVG GPRESSAVG
ENERGY: 600000 2.9073 5.2440 2.8773 0.0000 -13149.6895 2240.3506 0.0000 0.0000 1061.1852 -9837.1252 179.9841 -10898.3104 -9835.7702 179.9841 1018.5674 1080.0359 28911.9854 1018.5674 1080.0359
ENERGY: 700000 2.5032 7.7625 1.9819 0.0000 -12379.7653 1928.6192 0.0000 0.0000 1245.6953 -9193.2032 211.2782 -10438.8985 -9190.3993 209.8808 444.5796 513.6857 28620.8421 3.2872 3.2375
TCL: Running 100000 steps at 240 kelvin.
TCL: Setting parameter langevinTemp to 240
TCL: Running for 100000 steps
ETITLE: TS BOND ANGLE DIHED IMPRP ELECT VDW BOUNDARY MISC KINETIC TOTAL TEMP POTENTIAL TOTAL3 TEMPAVG PRESSURE GPRESSURE VOLUME PRESSAVG GPRESSAVG
ENERGY: 700000 2.5032 7.7625 1.9819 0.0000 -12379.7653 1928.6192 0.0000 0.0000 1245.0846 -9193.8139 211.1746 -10438.8985 -9191.3562 211.1746 438.2208 512.7707 28620.8421 438.2208 512.7707
ENERGY: 800000 4.1054 10.1599 1.7458 0.0000 -11619.9622 1604.6663 0.0000 0.0000 1457.3364 -8541.9484 247.1739 -9999.2848 -8537.2953 240.0279 -979.0694 -954.2785 29393.2534 4.1109 3.8394
TCL: Running 100000 steps at 270 kelvin.
TCL: Setting parameter langevinTemp to 270
TCL: Running for 100000 steps
ETITLE: TS BOND ANGLE DIHED IMPRP ELECT VDW BOUNDARY MISC KINETIC TOTAL TEMP POTENTIAL TOTAL3 TEMPAVG PRESSURE GPRESSURE VOLUME PRESSAVG GPRESSAVG
ENERGY: 800000 4.1054 10.1599 1.7458 0.0000 -11619.9622 1604.6663 0.0000 0.0000 1456.6469 -8542.6380 247.0570 -9999.2848 -8540.1648 247.0570 -1023.0886 -951.1647 29393.2534 -1023.0886 -951.1647
ENERGY: 900000 2.7926 5.9558 2.6576 0.0000 -11164.6635 1559.8843 0.0000 0.0000 1613.3223 -7980.0509 273.6302 -9593.3732 -7976.4065 270.3566 182.0881 250.2635 29684.4901 4.0012 4.1487
TCL: Running 1000000 steps at 300 kelvin.
TCL: Setting parameter langevinTemp to 300
TCL: Running for 1000000 steps
ETITLE: TS BOND ANGLE DIHED IMPRP ELECT VDW BOUNDARY MISC KINETIC TOTAL TEMP POTENTIAL TOTAL3 TEMPAVG PRESSURE GPRESSURE VOLUME PRESSAVG GPRESSAVG
ENERGY: 900000 2.7926 5.9558 2.6576 0.0000 -11164.6635 1559.8843 0.0000 0.0000 1612.5227 -7980.8506 273.4945 -9593.3732 -7978.1726 273.4945 167.5274 247.7062 29684.4901 167.5274 247.7062
ENERGY: 1100000 3.8611 10.7814 2.0121 0.0000 -10626.5815 1430.4019 0.0000 0.0000 1787.8581 -7391.6669 303.2326 -9179.5250 -7388.1423 301.3430 371.8068 411.7561 30044.8252 3.7201 3.7484
ENERGY: 1300000 4.4771 11.7641 4.0579 0.0000 -10655.9604 1412.5322 0.0000 0.0000 1818.1519 -7404.9773 308.3706 -9223.1292 -7401.1284 300.0908 -299.7932 -238.9917 30674.1924 2.8172 2.7778
ENERGY: 1500000 2.2242 8.1382 1.2862 0.0000 -10687.0644 1497.6544 0.0000 0.0000 1762.2206 -7415.5408 298.8843 -9177.7614 -7411.5798 299.9011 761.3103 885.6242 30029.6428 3.5706 3.4923
ENERGY: 1700000 10.2262 8.1020 3.6529 0.0000 -10560.1481 1367.6707 0.0000 0.0000 1797.9051 -7372.5912 304.9366 -9170.4963 -7369.6950 300.3984 -782.8788 -716.6867 30865.7007 4.4344 4.4060
ENERGY: 1900000 5.9399 7.2236 4.0626 0.0000 -10756.5943 1498.9878 0.0000 0.0000 1758.4383 -7481.9420 298.2428 -9240.3803 -7481.9412 300.9049 355.5948 477.3923 30259.8140 2.6391 2.8197
TCL: Exiting due to exit command.
