Info: SIMULATION PARAMETERS:
Info: TIMESTEP               2
Info: NUMBER OF STEPS        0
Info: STEPS PER CYCLE        10
Info: PERIODIC CELL BASIS 1  34.986 0 0
Info: PERIODIC CELL BASIS 2  0 35.779 0
Info: PERIODIC CELL BASIS 3  0 0 35.723
Info: PERIODIC CELL CENTER   0 0 0
Info: WRAPPING WATERS AROUND PERIODIC BOUNDARIES ON OUTPUT.
Info: WRAPPING ALL CLUSTERS AROUND PERIODIC BOUNDARIES ON OUTPUT.
Info: FIRST LDB TIMESTEP     50
Info: LAST LDB TIMESTEP     -1
Info: HOM BACKGROUND SCALING 1
Info: PME BACKGROUND SCALING 1
Info: MIN ATOMS PER PATCH    40
Info: EMPTY PATCH LOAD       40 ATOMS
Info: INITIAL TEMPERATURE    300
Info: CENTER OF MASS MOVING INITIALLY? NO
Info: DIELECTRIC             1
Info: EXCLUDE                SCALED ONE-FOUR
Info: 1-4 ELECTROSTATICS SCALED BY 0.833333
Info: MODIFIED 1-4 VDW PARAMETERS WILL BE USED
Info: DCD FILENAME           mobley_4690963_equil.dcd
Info: DCD FREQUENCY          100000
Info: DCD FIRST STEP         100000
Info: DCD FILE WILL CONTAIN UNIT CELL DATA
Info: XST FILENAME           mobley_4690963_equil.xst
Info: XST FREQUENCY          100000
Info: NO VELOCITY DCD OUTPUT
Info: NO FORCE DCD OUTPUT
Info: OUTPUT FILENAME        mobley_4690963_equil
Info: BINARY OUTPUT FILES WILL BE USED
Info: RESTART FILENAME       mobley_4690963_equil.restart
Info: RESTART FREQUENCY      100000
Info: BINARY RESTART FILES WILL BE USED
Info: CUTOFF                 9
Info: PAIRLIST DISTANCE      11
Info: PAIRLIST SHRINK RATE   0.01
Info: PAIRLIST GROW RATE     0.01
Info: PAIRLIST TRIGGER       0.3
Info: PAIRLISTS PER CYCLE    2
Info: PAIRLISTS ENABLED
Info: MARGIN                 8
Info: HYDROGEN GROUP CUTOFF  2.5
Info: PATCH DIMENSION        21.5
Info: ENERGY OUTPUT STEPS    100000
Info: ENERGY EVALUATION STEPS    100000
Info: OUTPUT ENERGY PRECISION 4
Info: CROSSTERM ENERGY INCLUDED IN DIHEDRAL
Info: TIMING OUTPUT STEPS    1000000
Info: PRESSURE OUTPUT STEPS  100000
Info: LANGEVIN DYNAMICS ACTIVE
Info: LANGEVIN TEMPERATURE   30
Info: LANGEVIN USING BBK INTEGRATOR
Info: LANGEVIN DAMPING COEFFICIENT IS 1 INVERSE PS
Info: LANGEVIN DYNAMICS APPLIED TO HYDROGENS
Info: LANGEVIN PISTON PRESSURE CONTROL ACTIVE
Info:        TARGET PRESSURE IS 1.01325 BAR
Info:     OSCILLATION PERIOD IS 50 FS
Info:             DECAY TIME IS 25 FS
Info:     PISTON TEMPERATURE IS 300 K
Info:       PRESSURE CONTROL IS GROUP-BASED
Info:    INITIAL STRAIN RATE IS 0 0 0
Info:       CELL FLUCTUATION IS ISOTROPIC
Info: PARTICLE MESH EWALD (PME) ACTIVE
Info: PME TOLERANCE               1e-06
Info: PME EWALD COEFFICIENT       0.348832
Info: PME INTERPOLATION ORDER     4
Info: PME GRID DIMENSIONS         36 36 36
Info: PME MAXIMUM GRID SPACING    1
Info: FULL ELECTROSTATIC EVALUATION FREQUENCY      2
Info: USING VERLET I (r-RESPA) MTS SCHEME.
Info: C1 SPLITTING OF LONG RANGE ELECTROSTATICS
Info: PLACING ATOMS IN PATCHES BY HYDROGEN GROUPS
Info: RIGID BONDS TO HYDROGEN : ALL
Info:         ERROR TOLERANCE : 1e-08
Info:          MAX ITERATIONS : 100
Info: RIGID WATER USING SETTLE ALGORITHM
Info: RANDOM NUMBER SEED     1743258075
Info: USE HYDROGEN BONDS?    NO
Info: Using AMBER format force field!
Info: AMBER PARM FILE        mobley_4690963.prmtop
Info: COORDINATE PDB         mobley_4690963.pdb
Info: Exclusions will be read from PARM file!
Info: SCNB (VDW SCALING)     2
Info: USING ARITHMETIC MEAN TO COMBINE L-J SIGMA PARAMETERS
Info: BINARY COORDINATES     mobley_4690963_min.coor
Info: SUMMARY OF PARAMETERS:
Info: 6 BONDS
Info: 7 ANGLES
Info:   7 HARMONIC
Info:   0 COSINE-BASED
Info: 8 DIHEDRAL
Info: 0 IMPROPER
Info: 0 CROSSTERM
Info: 0 VDW
Info: 21 VDW_PAIRS
Info: 0 NBTHOLE_PAIRS
Info: STRUCTURE SUMMARY:
Info: 2953 ATOMS
Info: 2952 BONDS
Info: 38 ANGLES
Info: 54 DIHEDRALS
Info: 0 IMPROPERS
Info: 0 CROSSTERMS
Info: 3029 EXCLUSIONS
Info: 2945 RIGID BONDS
Info: 5914 DEGREES OF FREEDOM
Info: 985 HYDROGEN GROUPS
Info: 4 ATOMS IN LARGEST HYDROGEN GROUP
Info: 985 MIGRATION GROUPS
Info: 4 ATOMS IN LARGEST MIGRATION GROUP
Info: TOTAL MASS = 17719.8 amu
Info: TOTAL CHARGE = -0.000399999 e
Info: MASS DENSITY = 0.658033 g/cm^3
Info: ATOM DENSITY = 0.0660379 atoms/A^3
Info: ADDED 0 IMPLICIT EXCLUSIONS
Info: NONBONDED TABLE R-SQUARED SPACING: 0.0625
Info: NONBONDED TABLE SIZE: 705 POINTS
Info: REMOVING COM VELOCITY -0.0994149 -0.0014236 -0.0611289
TCL: Running for 100000 steps
ETITLE: TS BOND ANGLE DIHED IMPRP ELECT VDW BOUNDARY MISC KINETIC TOTAL TEMP POTENTIAL TOTAL3 TEMPAVG PRESSURE GPRESSURE VOLUME PRESSAVG GPRESSAVG
ENERGY: 0 0.1677 0.3587 2.6989 0.0000 -13684.9345 2415.8679 0.0000 0.0000 1733.0082 -9532.8331 294.9237 -11265.8413 -9532.4728 294.9237 445.9779 483.5260 44716.7687 445.9779 483.5260
ENERGY: 100000 0.6821 1.0362 2.9430 0.0000 -14095.2026 2330.8340 0.0000 0.0000 174.7025 -11585.0048 29.7309 -11759.7073 -11584.3014 30.9159 -1203.6052 -1135.7859 28452.7459 3.4482 3.4286
TCL: Running 100000 steps at 60 kelvin.
TCL: Setting parameter langevinTemp to 60
TCL: Running for 100000 steps
ETITLE: TS BOND ANGLE DIHED IMPRP ELECT VDW BOUNDARY MISC KINETIC TOTAL TEMP POTENTIAL TOTAL3 TEMPAVG PRESSURE GPRESSURE VOLUME PRESSAVG GPRESSAVG
ENERGY: 100000 0.6821 1.0362 2.9430 0.0000 -14095.2026 2330.8340 0.0000 0.0000 174.6134 -11585.0940 29.7157 -11759.7073 -11584.6408 29.7157 -1204.0325 -1135.7420 28452.7459 -1204.0325 -1135.7420
ENERGY: 200000 0.1593 2.4746 3.3658 0.0000 -14071.5569 2361.7075 0.0000 0.0000 351.7246 -11352.1250 59.8566 -11703.8496 -11350.8779 60.0650 -618.0520 -548.6970 28518.4194 4.6204 4.5520
TCL: Running 100000 steps at 90 kelvin.
TCL: Setting parameter langevinTemp to 90
TCL: Running for 100000 steps
ETITLE: TS BOND ANGLE DIHED IMPRP ELECT VDW BOUNDARY MISC KINETIC TOTAL TEMP POTENTIAL TOTAL3 TEMPAVG PRESSURE GPRESSURE VOLUME PRESSAVG GPRESSAVG
ENERGY: 200000 0.1593 2.4746 3.3658 0.0000 -14071.5569 2361.7075 0.0000 0.0000 351.5531 -11352.2965 59.8274 -11703.8496 -11351.4946 59.8274 -599.4804 -548.1353 28518.4194 -599.4804 -548.1353
ENERGY: 300000 0.3765 3.3786 3.1967 0.0000 -14039.7854 2462.8876 0.0000 0.0000 528.6556 -11041.2903 89.9667 -11569.9460 -11040.0449 89.8597 827.2098 874.3951 28320.7167 2.6241 2.5552
TCL: Running 100000 steps at 120 kelvin.
TCL: Setting parameter langevinTemp to 120
TCL: Running for 100000 steps
ETITLE: TS BOND ANGLE DIHED IMPRP ELECT VDW BOUNDARY MISC KINETIC TOTAL TEMP POTENTIAL TOTAL3 TEMPAVG PRESSURE GPRESSURE VOLUME PRESSAVG GPRESSAVG
ENERGY: 300000 0.3765 3.3786 3.1967 0.0000 -14039.7854 2462.8876 0.0000 0.0000 528.3995 -11041.5465 89.9231 -11569.9460 -11040.2463 89.9231 820.9911 874.8430 28320.7167 820.9911 874.8430
ENERGY: 400000 1.2392 3.7535 4.0147 0.0000 -13604.7527 2158.8002 0.0000 0.0000 734.9109 -10702.0340 125.0673 -11436.9449 -10700.4948 119.9069 -1298.9850 -1207.0553 28524.2146 2.9724 2.9315
TCL: Running 100000 steps at 150 kelvin.
TCL: Setting parameter langevinTemp to 150
TCL: Running for 100000 steps
ETITLE: TS BOND ANGLE DIHED IMPRP ELECT VDW BOUNDARY MISC KINETIC TOTAL TEMP POTENTIAL TOTAL3 TEMPAVG PRESSURE GPRESSURE VOLUME PRESSAVG GPRESSAVG
ENERGY: 400000 1.2392 3.7535 4.0147 0.0000 -13604.7527 2158.8002 0.0000 0.0000 734.5610 -10702.3839 125.0077 -11436.9449 -10700.6153 125.0077 -1262.2732 -1206.7582 28524.2146 -1262.2732 -1206.7582
ENERGY: 500000 1.3463 4.0047 3.6781 0.0000 -13635.8000 2365.5817 0.0000 0.0000 866.2036 -10394.9857 147.4107 -11261.1893 -10392.5559 149.9007 1124.2422 1164.9641 28353.8563 2.9005 2.9520
TCL: Running 100000 steps at 180 kelvin.
TCL: Setting parameter langevinTemp to 180
TCL: Running for 100000 steps
ETITLE: TS BOND ANGLE DIHED IMPRP ELECT VDW BOUNDARY MISC KINETIC TOTAL TEMP POTENTIAL TOTAL3 TEMPAVG PRESSURE GPRESSURE VOLUME PRESSAVG GPRESSAVG
ENERGY: 500000 1.3463 4.0047 3.6781 0.0000 -13635.8000 2365.5817 0.0000 0.0000 865.7835 -10395.4058 147.3392 -11261.1893 -10393.5498 147.3392 1114.9346 1164.3187 28353.8563 1114.9346 1164.3187
ENERGY: 600000 0.6165 6.8973 4.2386 0.0000 -13098.0185 2076.9829 0.0000 0.0000 1041.8299 -9967.4533 177.2988 -11009.2832 -9964.8101 180.0896 -505.0532 -483.6602 28974.6766 2.1409 2.1794
TCL: Running 100000 steps at 210 kelvin.
TCL: Setting parameter langevinTemp to 210
TCL: Running for 100000 steps
ETITLE: TS BOND ANGLE DIHED IMPRP ELECT VDW BOUNDARY MISC KINETIC TOTAL TEMP POTENTIAL TOTAL3 TEMPAVG PRESSURE GPRESSURE VOLUME PRESSAVG GPRESSAVG
ENERGY: 600000 0.6165 6.8973 4.2386 0.0000 -13098.0185 2076.9829 0.0000 0.0000 1041.3085 -9967.9747 177.2101 -11009.2832 -9965.9776 177.2101 -543.8405 -483.6198 28974.6766 -543.8405 -483.6198
ENERGY: 700000 0.3781 6.9250 3.3482 0.0000 -12338.7910 1839.8780 0.0000 0.0000 1266.7245 -9221.5372 215.5714 -10488.2617 -9218.9065 210.0208 -224.9315 -87.2431 28560.6502 3.4995 3.4896
TCL: Running 100000 steps at 240 kelvin.
TCL: Setting parameter langevinTemp to 240
TCL: Running for 100000 steps
ETITLE: TS BOND ANGLE DIHED IMPRP ELECT VDW BOUNDARY MISC KINETIC TOTAL TEMP POTENTIAL TOTAL3 TEMPAVG PRESSURE GPRESSURE VOLUME PRESSAVG GPRESSAVG
ENERGY: 700000 0.3781 6.9250 3.3482 0.0000 -12338.7910 1839.8780 0.0000 0.0000 1266.0804 -9222.1813 215.4618 -10488.2617 -9220.1266 215.4618 -181.4124 -87.0742 28560.6502 -181.4124 -87.0742
ENERGY: 800000 2.4788 7.8774 4.6437 0.0000 -11896.1187 1795.1704 0.0000 0.0000 1393.9871 -8691.9614 237.2290 -10085.9485 -8689.8093 239.2963 348.0299 472.3586 29028.2131 1.5148 1.5425
TCL: Running 100000 steps at 270 kelvin.
TCL: Setting parameter langevinTemp to 270
TCL: Running for 100000 steps
ETITLE: TS BOND ANGLE DIHED IMPRP ELECT VDW BOUNDARY MISC KINETIC TOTAL TEMP POTENTIAL TOTAL3 TEMPAVG PRESSURE GPRESSURE VOLUME PRESSAVG GPRESSAVG
ENERGY: 800000 2.4788 7.8774 4.6437 0.0000 -11896.1187 1795.1704 0.0000 0.0000 1393.2731 -8692.6754 237.1075 -10085.9485 -8690.3147 237.1075 391.3795 469.8020 29028.2131 391.3795 469.8020
ENERGY: 900000 1.8411 8.0742 4.0774 0.0000 -11335.6040 1616.3637 0.0000 0.0000 1541.0768 -8164.1708 262.2608 -9705.2475 -8160.4862 269.4576 -12.7702 39.6550 29971.7490 5.1387 5.1985
TCL: Running 1000000 steps at 300 kelvin.
TCL: Setting parameter langevinTemp to 300
TCL: Running for 1000000 steps
ETITLE: TS BOND ANGLE DIHED IMPRP ELECT VDW BOUNDARY MISC KINETIC TOTAL TEMP POTENTIAL TOTAL3 TEMPAVG PRESSURE GPRESSURE VOLUME PRESSAVG GPRESSAVG
ENERGY: 900000 1.8411 8.0742 4.0774 0.0000 -11335.6040 1616.3637 0.0000 0.0000 1540.2630 -8164.9845 262.1223 -9705.2476 -8162.1832 262.1223 -40.0034 40.4639 29971.7490 -40.0034 40.4639
ENERGY: 1100000 2.8767 9.8375 7.1535 0.0000 -10683.8596 1430.8128 0.0000 0.0000 1756.8769 -7476.3024 298.9857 -9233.1792 -7473.6614 300.0924 79.8494 142.4307 30429.8147 3.7979 3.7890
ENERGY: 1300000 3.7729 13.1601 6.7966 0.0000 -10614.2301 1389.7341 0.0000 0.0000 1788.3118 -7412.4547 304.3353 -9200.7665 -7408.4208 300.5854 -152.0917 -82.0937 30349.0412 3.6846 3.5309
ENERGY: 1500000 4.4497 7.6706 4.5458 0.0000 -10680.7171 1461.6672 0.0000 0.0000 1809.9598 -7392.4239 308.0194 -9202.3837 -7385.6439 299.9072 209.5576 294.0010 30342.8614 1.8315 1.9466
ENERGY: 1700000 3.2061 11.0540 10.9041 0.0000 -10677.2173 1445.5694 0.0000 0.0000 1782.2832 -7424.2005 303.3093 -9206.4837 -7421.1016 300.2940 107.7215 204.5960 30436.1643 2.4698 2.3928
ENERGY: 1900000 2.5846 8.0962 5.4953 0.0000 -10623.3563 1373.1444 0.0000 0.0000 1771.1651 -7462.8706 301.4173 -9234.0357 -7458.2377 299.3106 -388.8090 -349.8882 30213.5282 4.0504 4.0004
TCL: Exiting due to exit command.
