Info: SIMULATION PARAMETERS:
Info: TIMESTEP               2
Info: NUMBER OF STEPS        0
Info: STEPS PER CYCLE        10
Info: PERIODIC CELL BASIS 1  36.592 0 0
Info: PERIODIC CELL BASIS 2  0 36.451 0
Info: PERIODIC CELL BASIS 3  0 0 34.229
Info: PERIODIC CELL CENTER   0 0 0
Info: WRAPPING WATERS AROUND PERIODIC BOUNDARIES ON OUTPUT.
Info: WRAPPING ALL CLUSTERS AROUND PERIODIC BOUNDARIES ON OUTPUT.
Info: FIRST LDB TIMESTEP     50
Info: LAST LDB TIMESTEP     -1
Info: HOM BACKGROUND SCALING 1
Info: PME BACKGROUND SCALING 1
Info: MIN ATOMS PER PATCH    40
Info: EMPTY PATCH LOAD       40 ATOMS
Info: INITIAL TEMPERATURE    300
Info: CENTER OF MASS MOVING INITIALLY? NO
Info: DIELECTRIC             1
Info: EXCLUDE                SCALED ONE-FOUR
Info: 1-4 ELECTROSTATICS SCALED BY 0.833333
Info: MODIFIED 1-4 VDW PARAMETERS WILL BE USED
Info: DCD FILENAME           mobley_4013838_equil.dcd
Info: DCD FREQUENCY          100000
Info: DCD FIRST STEP         100000
Info: DCD FILE WILL CONTAIN UNIT CELL DATA
Info: XST FILENAME           mobley_4013838_equil.xst
Info: XST FREQUENCY          100000
Info: NO VELOCITY DCD OUTPUT
Info: NO FORCE DCD OUTPUT
Info: OUTPUT FILENAME        mobley_4013838_equil
Info: BINARY OUTPUT FILES WILL BE USED
Info: RESTART FILENAME       mobley_4013838_equil.restart
Info: RESTART FREQUENCY      100000
Info: BINARY RESTART FILES WILL BE USED
Info: CUTOFF                 9
Info: PAIRLIST DISTANCE      11
Info: PAIRLIST SHRINK RATE   0.01
Info: PAIRLIST GROW RATE     0.01
Info: PAIRLIST TRIGGER       0.3
Info: PAIRLISTS PER CYCLE    2
Info: PAIRLISTS ENABLED
Info: MARGIN                 8
Info: HYDROGEN GROUP CUTOFF  2.5
Info: PATCH DIMENSION        21.5
Info: ENERGY OUTPUT STEPS    100000
Info: ENERGY EVALUATION STEPS    100000
Info: OUTPUT ENERGY PRECISION 4
Info: CROSSTERM ENERGY INCLUDED IN DIHEDRAL
Info: TIMING OUTPUT STEPS    1000000
Info: PRESSURE OUTPUT STEPS  100000
Info: LANGEVIN DYNAMICS ACTIVE
Info: LANGEVIN TEMPERATURE   30
Info: LANGEVIN USING BBK INTEGRATOR
Info: LANGEVIN DAMPING COEFFICIENT IS 1 INVERSE PS
Info: LANGEVIN DYNAMICS APPLIED TO HYDROGENS
Info: LANGEVIN PISTON PRESSURE CONTROL ACTIVE
Info:        TARGET PRESSURE IS 1.01325 BAR
Info:     OSCILLATION PERIOD IS 50 FS
Info:             DECAY TIME IS 25 FS
Info:     PISTON TEMPERATURE IS 300 K
Info:       PRESSURE CONTROL IS GROUP-BASED
Info:    INITIAL STRAIN RATE IS 0 0 0
Info:       CELL FLUCTUATION IS ISOTROPIC
Info: PARTICLE MESH EWALD (PME) ACTIVE
Info: PME TOLERANCE               1e-06
Info: PME EWALD COEFFICIENT       0.348832
Info: PME INTERPOLATION ORDER     4
Info: PME GRID DIMENSIONS         40 40 36
Info: PME MAXIMUM GRID SPACING    1
Info: FULL ELECTROSTATIC EVALUATION FREQUENCY      2
Info: USING VERLET I (r-RESPA) MTS SCHEME.
Info: C1 SPLITTING OF LONG RANGE ELECTROSTATICS
Info: PLACING ATOMS IN PATCHES BY HYDROGEN GROUPS
Info: RIGID BONDS TO HYDROGEN : ALL
Info:         ERROR TOLERANCE : 1e-08
Info:          MAX ITERATIONS : 100
Info: RIGID WATER USING SETTLE ALGORITHM
Info: RANDOM NUMBER SEED     1743244709
Info: USE HYDROGEN BONDS?    NO
Info: Using AMBER format force field!
Info: AMBER PARM FILE        mobley_4013838.prmtop
Info: COORDINATE PDB         mobley_4013838.pdb
Info: Exclusions will be read from PARM file!
Info: SCNB (VDW SCALING)     2
Info: USING ARITHMETIC MEAN TO COMBINE L-J SIGMA PARAMETERS
Info: BINARY COORDINATES     mobley_4013838_min.coor
Info: SUMMARY OF PARAMETERS:
Info: 6 BONDS
Info: 7 ANGLES
Info: 8 DIHEDRAL
Info: 0 IMPROPER
Info: 0 CROSSTERM
Info: 0 VDW
Info: 21 VDW_PAIRS
Info: 0 NBTHOLE_PAIRS
Info: STRUCTURE SUMMARY:
Info: 2980 ATOMS
Info: 2979 BONDS
Info: 39 ANGLES
Info: 53 DIHEDRALS
Info: 0 IMPROPERS
Info: 0 CROSSTERMS
Info: 3066 EXCLUSIONS
Info: 2972 RIGID BONDS
Info: 5968 DEGREES OF FREEDOM
Info: 994 HYDROGEN GROUPS
Info: 4 ATOMS IN LARGEST HYDROGEN GROUP
Info: 994 MIGRATION GROUPS
Info: 4 ATOMS IN LARGEST MIGRATION GROUP
Info: TOTAL MASS = 17878 amu
Info: TOTAL CHARGE = -0.000599995 e
Info: MASS DENSITY = 0.65026 g/cm^3
Info: ATOM DENSITY = 0.0652719 atoms/A^3
Info: ADDED 0 IMPLICIT EXCLUSIONS
Info: NONBONDED TABLE R-SQUARED SPACING: 0.0625
Info: NONBONDED TABLE SIZE: 705 POINTS
Info: REMOVING COM VELOCITY 0.127758 0.0867375 -0.103394
TCL: Running for 100000 steps
ETITLE: TS BOND ANGLE DIHED IMPRP ELECT VDW BOUNDARY MISC KINETIC TOTAL TEMP POTENTIAL TOTAL3 TEMPAVG PRESSURE GPRESSURE VOLUME PRESSAVG GPRESSAVG
ENERGY: 0 0.2286 0.6602 0.4479 0.0000 -13766.8839 2461.4639 0.0000 0.0000 1787.0116 -9517.0716 301.3623 -11304.0832 -9516.7304 301.3623 715.3498 744.9473 45655.1534 715.3498 744.9473
ENERGY: 100000 0.2774 1.9629 0.8906 0.0000 -14372.2285 2578.4080 0.0000 0.0000 180.3549 -11610.3347 30.4151 -11790.6895 -11609.4336 30.9148 890.7666 966.8605 28917.7467 3.6970 3.6642
TCL: Running 100000 steps at 60 kelvin.
TCL: Setting parameter langevinTemp to 60
TCL: Running for 100000 steps
ETITLE: TS BOND ANGLE DIHED IMPRP ELECT VDW BOUNDARY MISC KINETIC TOTAL TEMP POTENTIAL TOTAL3 TEMPAVG PRESSURE GPRESSURE VOLUME PRESSAVG GPRESSAVG
ENERGY: 100000 0.2774 1.9629 0.8906 0.0000 -14372.2285 2578.4080 0.0000 0.0000 180.2648 -11610.4247 30.3999 -11790.6895 -11610.1034 30.3999 906.5358 967.2319 28917.7467 906.5358 967.2319
ENERGY: 200000 1.8571 2.4022 0.6651 0.0000 -14083.0668 2333.5090 0.0000 0.0000 354.8317 -11389.8016 59.8390 -11744.6333 -11388.7041 59.9115 -1069.1367 -995.6478 29049.4947 4.4174 4.4311
TCL: Running 100000 steps at 90 kelvin.
TCL: Setting parameter langevinTemp to 90
TCL: Running for 100000 steps
ETITLE: TS BOND ANGLE DIHED IMPRP ELECT VDW BOUNDARY MISC KINETIC TOTAL TEMP POTENTIAL TOTAL3 TEMPAVG PRESSURE GPRESSURE VOLUME PRESSAVG GPRESSAVG
ENERGY: 200000 1.8571 2.4022 0.6651 0.0000 -14083.0668 2333.5090 0.0000 0.0000 354.6525 -11389.9809 59.8087 -11744.6333 -11389.1634 59.8087 -1059.2178 -995.3656 29049.4947 -1059.2178 -995.3656
ENERGY: 300000 1.0145 3.9552 0.6194 0.0000 -13934.0165 2273.1485 0.0000 0.0000 543.2993 -11111.9796 91.6222 -11655.2789 -11111.0207 89.9324 -1131.1840 -1091.6701 29112.0207 3.4827 3.4453
TCL: Running 100000 steps at 120 kelvin.
TCL: Setting parameter langevinTemp to 120
TCL: Running for 100000 steps
ETITLE: TS BOND ANGLE DIHED IMPRP ELECT VDW BOUNDARY MISC KINETIC TOTAL TEMP POTENTIAL TOTAL3 TEMPAVG PRESSURE GPRESSURE VOLUME PRESSAVG GPRESSAVG
ENERGY: 300000 1.0145 3.9552 0.6194 0.0000 -13934.0165 2273.1485 0.0000 0.0000 543.0491 -11112.2298 91.5800 -11655.2789 -11110.7573 91.5800 -1154.2609 -1092.1436 29112.0207 -1154.2609 -1092.1436
ENERGY: 400000 0.5050 4.4648 1.0557 0.0000 -13965.2154 2423.6323 0.0000 0.0000 729.4384 -10806.1192 123.0128 -11535.5576 -10804.5920 119.5502 538.8366 598.2029 29113.0611 5.0037 4.8481
TCL: Running 100000 steps at 150 kelvin.
TCL: Setting parameter langevinTemp to 150
TCL: Running for 100000 steps
ETITLE: TS BOND ANGLE DIHED IMPRP ELECT VDW BOUNDARY MISC KINETIC TOTAL TEMP POTENTIAL TOTAL3 TEMPAVG PRESSURE GPRESSURE VOLUME PRESSAVG GPRESSAVG
ENERGY: 400000 0.5050 4.4648 1.0557 0.0000 -13965.2154 2423.6323 0.0000 0.0000 729.0819 -10806.4757 122.9526 -11535.5576 -10804.8243 122.9526 540.3818 598.2553 29113.0611 540.3818 598.2553
ENERGY: 500000 2.6430 4.4005 1.1380 0.0000 -13627.9129 2285.1756 0.0000 0.0000 903.2162 -10431.3395 152.3187 -11334.5558 -10428.7080 149.9352 28.9243 161.1600 29138.3299 3.9662 4.0821
TCL: Running 100000 steps at 180 kelvin.
TCL: Setting parameter langevinTemp to 180
TCL: Running for 100000 steps
ETITLE: TS BOND ANGLE DIHED IMPRP ELECT VDW BOUNDARY MISC KINETIC TOTAL TEMP POTENTIAL TOTAL3 TEMPAVG PRESSURE GPRESSURE VOLUME PRESSAVG GPRESSAVG
ENERGY: 500000 2.6430 4.4005 1.1380 0.0000 -13627.9129 2285.1756 0.0000 0.0000 902.7789 -10431.7769 152.2450 -11334.5558 -10429.7920 152.2450 94.2004 161.2743 29138.3299 94.2004 161.2743
ENERGY: 600000 0.4270 6.6916 0.9523 0.0000 -13249.8127 2169.5200 0.0000 0.0000 1085.1813 -9987.0405 183.0054 -11072.2218 -9983.1484 180.0275 526.6726 588.8426 28737.3456 2.9482 2.9723
TCL: Running 100000 steps at 210 kelvin.
TCL: Setting parameter langevinTemp to 210
TCL: Running for 100000 steps
ETITLE: TS BOND ANGLE DIHED IMPRP ELECT VDW BOUNDARY MISC KINETIC TOTAL TEMP POTENTIAL TOTAL3 TEMPAVG PRESSURE GPRESSURE VOLUME PRESSAVG GPRESSAVG
ENERGY: 600000 0.4270 6.6916 0.9523 0.0000 -13249.8127 2169.5200 0.0000 0.0000 1084.6366 -9987.5852 182.9135 -11072.2218 -9985.6406 182.9135 534.3653 590.5466 28737.3456 534.3653 590.5466
ENERGY: 700000 1.7349 6.5123 1.1616 0.0000 -12637.8339 2029.1155 0.0000 0.0000 1197.4515 -9401.8580 201.9387 -10599.3096 -9400.6307 209.9100 898.4524 938.0444 29012.4075 3.0310 3.0865
TCL: Running 100000 steps at 240 kelvin.
TCL: Setting parameter langevinTemp to 240
TCL: Running for 100000 steps
ETITLE: TS BOND ANGLE DIHED IMPRP ELECT VDW BOUNDARY MISC KINETIC TOTAL TEMP POTENTIAL TOTAL3 TEMPAVG PRESSURE GPRESSURE VOLUME PRESSAVG GPRESSAVG
ENERGY: 700000 1.7349 6.5123 1.1616 0.0000 -12637.8339 2029.1155 0.0000 0.0000 1196.8367 -9402.4728 201.8350 -10599.3096 -9400.2632 201.8350 856.2530 936.5636 29012.4075 856.2530 936.5636
ENERGY: 800000 2.2665 9.3571 1.3346 0.0000 -11979.8992 1773.4727 0.0000 0.0000 1416.5657 -8776.9028 238.8902 -10193.4685 -8774.2833 240.3901 219.3083 305.4886 29418.4608 3.7193 3.5846
TCL: Running 100000 steps at 270 kelvin.
TCL: Setting parameter langevinTemp to 270
TCL: Running for 100000 steps
ETITLE: TS BOND ANGLE DIHED IMPRP ELECT VDW BOUNDARY MISC KINETIC TOTAL TEMP POTENTIAL TOTAL3 TEMPAVG PRESSURE GPRESSURE VOLUME PRESSAVG GPRESSAVG
ENERGY: 800000 2.2665 9.3571 1.3346 0.0000 -11979.8992 1773.4727 0.0000 0.0000 1415.8615 -8777.6069 238.7714 -10193.4685 -8775.0731 238.7714 220.1741 306.0936 29418.4608 220.1741 306.0936
ENERGY: 900000 3.6884 9.6242 1.0110 0.0000 -11236.2062 1476.0372 0.0000 0.0000 1561.0897 -8184.7558 263.2628 -9745.8455 -8181.4890 269.7420 -899.5344 -852.4837 29814.3128 2.9977 2.6651
TCL: Running 1000000 steps at 300 kelvin.
TCL: Setting parameter langevinTemp to 300
TCL: Running for 1000000 steps
ETITLE: TS BOND ANGLE DIHED IMPRP ELECT VDW BOUNDARY MISC KINETIC TOTAL TEMP POTENTIAL TOTAL3 TEMPAVG PRESSURE GPRESSURE VOLUME PRESSAVG GPRESSAVG
ENERGY: 900000 3.6884 9.6242 1.0110 0.0000 -11236.2062 1476.0372 0.0000 0.0000 1560.2400 -8185.6055 263.1195 -9745.8455 -8183.6654 263.1195 -935.0521 -852.2258 29814.3128 -935.0521 -852.2258
ENERGY: 1100000 1.7385 10.6947 1.5267 0.0000 -10759.1762 1421.4077 0.0000 0.0000 1722.1336 -7601.6750 290.4213 -9323.8086 -7599.3172 300.0382 -166.7089 -70.9399 30528.2214 3.5063 3.4593
ENERGY: 1300000 1.1310 13.8904 1.0511 0.0000 -10714.6201 1383.4405 0.0000 0.0000 1705.0838 -7610.0233 287.5460 -9315.1071 -7607.6953 300.0311 -235.6271 -142.4449 30260.6267 2.6639 2.8889
ENERGY: 1500000 5.8545 9.6434 1.2590 0.0000 -10829.6367 1465.7020 0.0000 0.0000 1801.0695 -7546.1083 303.7330 -9347.1778 -7542.5963 299.8889 -155.7819 -152.9637 30985.5365 2.8216 2.6593
ENERGY: 1700000 2.5198 12.3745 2.7727 0.0000 -10944.7177 1527.8181 0.0000 0.0000 1778.6028 -7620.6297 299.9442 -9399.2325 -7617.2278 299.7783 475.9381 599.9872 30284.1878 3.1183 2.8365
ENERGY: 1900000 1.4666 8.8691 1.1238 0.0000 -10841.8737 1557.0109 0.0000 0.0000 1739.8921 -7533.5112 293.4161 -9273.4033 -7530.8157 300.0384 1050.7269 1198.9161 30278.8019 3.0400 3.2585
TCL: Exiting due to exit command.
