Info: SIMULATION PARAMETERS:
Info: TIMESTEP               2
Info: NUMBER OF STEPS        0
Info: STEPS PER CYCLE        10
Info: PERIODIC CELL BASIS 1  36.281 0 0
Info: PERIODIC CELL BASIS 2  0 34.696 0
Info: PERIODIC CELL BASIS 3  0 0 35.856
Info: PERIODIC CELL CENTER   0 0 0
Info: WRAPPING WATERS AROUND PERIODIC BOUNDARIES ON OUTPUT.
Info: WRAPPING ALL CLUSTERS AROUND PERIODIC BOUNDARIES ON OUTPUT.
Info: FIRST LDB TIMESTEP     50
Info: LAST LDB TIMESTEP     -1
Info: HOM BACKGROUND SCALING 1
Info: PME BACKGROUND SCALING 1
Info: MIN ATOMS PER PATCH    40
Info: EMPTY PATCH LOAD       40 ATOMS
Info: INITIAL TEMPERATURE    300
Info: CENTER OF MASS MOVING INITIALLY? NO
Info: DIELECTRIC             1
Info: EXCLUDE                SCALED ONE-FOUR
Info: 1-4 ELECTROSTATICS SCALED BY 0.833333
Info: MODIFIED 1-4 VDW PARAMETERS WILL BE USED
Info: DCD FILENAME           mobley_8124669_equil.dcd
Info: DCD FREQUENCY          100000
Info: DCD FIRST STEP         100000
Info: DCD FILE WILL CONTAIN UNIT CELL DATA
Info: XST FILENAME           mobley_8124669_equil.xst
Info: XST FREQUENCY          100000
Info: NO VELOCITY DCD OUTPUT
Info: NO FORCE DCD OUTPUT
Info: OUTPUT FILENAME        mobley_8124669_equil
Info: BINARY OUTPUT FILES WILL BE USED
Info: RESTART FILENAME       mobley_8124669_equil.restart
Info: RESTART FREQUENCY      100000
Info: BINARY RESTART FILES WILL BE USED
Info: CUTOFF                 9
Info: PAIRLIST DISTANCE      11
Info: PAIRLIST SHRINK RATE   0.01
Info: PAIRLIST GROW RATE     0.01
Info: PAIRLIST TRIGGER       0.3
Info: PAIRLISTS PER CYCLE    2
Info: PAIRLISTS ENABLED
Info: MARGIN                 8
Info: HYDROGEN GROUP CUTOFF  2.5
Info: PATCH DIMENSION        21.5
Info: ENERGY OUTPUT STEPS    100000
Info: ENERGY EVALUATION STEPS    100000
Info: OUTPUT ENERGY PRECISION 4
Info: CROSSTERM ENERGY INCLUDED IN DIHEDRAL
Info: TIMING OUTPUT STEPS    1000000
Info: PRESSURE OUTPUT STEPS  100000
Info: LANGEVIN DYNAMICS ACTIVE
Info: LANGEVIN TEMPERATURE   30
Info: LANGEVIN USING BBK INTEGRATOR
Info: LANGEVIN DAMPING COEFFICIENT IS 1 INVERSE PS
Info: LANGEVIN DYNAMICS APPLIED TO HYDROGENS
Info: LANGEVIN PISTON PRESSURE CONTROL ACTIVE
Info:        TARGET PRESSURE IS 1.01325 BAR
Info:     OSCILLATION PERIOD IS 50 FS
Info:             DECAY TIME IS 25 FS
Info:     PISTON TEMPERATURE IS 300 K
Info:       PRESSURE CONTROL IS GROUP-BASED
Info:    INITIAL STRAIN RATE IS 0 0 0
Info:       CELL FLUCTUATION IS ISOTROPIC
Info: PARTICLE MESH EWALD (PME) ACTIVE
Info: PME TOLERANCE               1e-06
Info: PME EWALD COEFFICIENT       0.348832
Info: PME INTERPOLATION ORDER     4
Info: PME GRID DIMENSIONS         40 36 36
Info: PME MAXIMUM GRID SPACING    1
Info: FULL ELECTROSTATIC EVALUATION FREQUENCY      2
Info: USING VERLET I (r-RESPA) MTS SCHEME.
Info: C1 SPLITTING OF LONG RANGE ELECTROSTATICS
Info: PLACING ATOMS IN PATCHES BY HYDROGEN GROUPS
Info: RIGID BONDS TO HYDROGEN : ALL
Info:         ERROR TOLERANCE : 1e-08
Info:          MAX ITERATIONS : 100
Info: RIGID WATER USING SETTLE ALGORITHM
Info: RANDOM NUMBER SEED     1743263206
Info: USE HYDROGEN BONDS?    NO
Info: Using AMBER format force field!
Info: AMBER PARM FILE        mobley_8124669.prmtop
Info: COORDINATE PDB         mobley_8124669.pdb
Info: Exclusions will be read from PARM file!
Info: SCNB (VDW SCALING)     2
Info: USING ARITHMETIC MEAN TO COMBINE L-J SIGMA PARAMETERS
Info: BINARY COORDINATES     mobley_8124669_min.coor
Info: SUMMARY OF PARAMETERS:
Info: 16 BONDS
Info: 24 ANGLES
Info:   24 HARMONIC
Info:   0 COSINE-BASED
Info: 13 DIHEDRAL
Info: 0 IMPROPER
Info: 0 CROSSTERM
Info: 0 VDW
Info: 78 VDW_PAIRS
Info: 0 NBTHOLE_PAIRS
Info: STRUCTURE SUMMARY:
Info: 2972 ATOMS
Info: 2972 BONDS
Info: 67 ANGLES
Info: 93 DIHEDRALS
Info: 0 IMPROPERS
Info: 0 CROSSTERMS
Info: 3116 EXCLUSIONS
Info: 2954 RIGID BONDS
Info: 5962 DEGREES OF FREEDOM
Info: 996 HYDROGEN GROUPS
Info: 4 ATOMS IN LARGEST HYDROGEN GROUP
Info: 996 MIGRATION GROUPS
Info: 4 ATOMS IN LARGEST MIGRATION GROUP
Info: TOTAL MASS = 17889.4 amu
Info: TOTAL CHARGE = 0.000199992 e
Info: MASS DENSITY = 0.658165 g/cm^3
Info: ATOM DENSITY = 0.0658458 atoms/A^3
Info: ADDED 0 IMPLICIT EXCLUSIONS
Info: NONBONDED TABLE R-SQUARED SPACING: 0.0625
Info: NONBONDED TABLE SIZE: 705 POINTS
Info: REMOVING COM VELOCITY 0.0767003 -0.0967631 0.0864133
TCL: Running for 100000 steps
ETITLE: TS BOND ANGLE DIHED IMPRP ELECT VDW BOUNDARY MISC KINETIC TOTAL TEMP POTENTIAL TOTAL3 TEMPAVG PRESSURE GPRESSURE VOLUME PRESSAVG GPRESSAVG
ENERGY: 0 0.6797 1.5706 7.5384 0.0000 -13581.1436 2389.0247 0.0000 0.0000 1750.4837 -9431.8465 295.4993 -11182.3302 -9431.5093 295.4993 435.5986 479.1506 45135.7327 435.5986 479.1506
ENERGY: 100000 1.1219 2.7024 7.7453 0.0000 -14421.2910 2647.8833 0.0000 0.0000 180.3516 -11581.4867 30.4452 -11761.8382 -11580.9406 30.9487 1345.8519 1398.9372 29536.6405 3.4640 3.5077
TCL: Running 100000 steps at 60 kelvin.
TCL: Setting parameter langevinTemp to 60
TCL: Running for 100000 steps
ETITLE: TS BOND ANGLE DIHED IMPRP ELECT VDW BOUNDARY MISC KINETIC TOTAL TEMP POTENTIAL TOTAL3 TEMPAVG PRESSURE GPRESSURE VOLUME PRESSAVG GPRESSAVG
ENERGY: 100000 1.1219 2.7024 7.7453 0.0000 -14421.2910 2647.8833 0.0000 0.0000 180.2636 -11581.5746 30.4303 -11761.8382 -11581.2464 30.4303 1359.2322 1398.9431 29536.6405 1359.2322 1398.9431
ENERGY: 200000 2.2983 4.2563 8.4477 0.0000 -13944.3267 2284.7144 0.0000 0.0000 359.9814 -11284.6286 60.7685 -11644.6099 -11283.8450 59.9489 -1244.2361 -1197.8012 29811.4931 5.1928 5.1637
TCL: Running 100000 steps at 90 kelvin.
TCL: Setting parameter langevinTemp to 90
TCL: Running for 100000 steps
ETITLE: TS BOND ANGLE DIHED IMPRP ELECT VDW BOUNDARY MISC KINETIC TOTAL TEMP POTENTIAL TOTAL3 TEMPAVG PRESSURE GPRESSURE VOLUME PRESSAVG GPRESSAVG
ENERGY: 200000 2.2983 4.2563 8.4477 0.0000 -13944.3267 2284.7144 0.0000 0.0000 359.8032 -11284.8068 60.7384 -11644.6099 -11283.9233 60.7384 -1243.3101 -1198.1858 29811.4931 -1243.3101 -1198.1858
ENERGY: 300000 2.3575 7.0232 9.1084 0.0000 -13897.2996 2334.1590 0.0000 0.0000 551.9363 -10992.7152 93.1724 -11544.6515 -10991.7820 89.8878 -348.4567 -265.2861 29397.6901 3.0162 3.1515
TCL: Running 100000 steps at 120 kelvin.
TCL: Setting parameter langevinTemp to 120
TCL: Running for 100000 steps
ETITLE: TS BOND ANGLE DIHED IMPRP ELECT VDW BOUNDARY MISC KINETIC TOTAL TEMP POTENTIAL TOTAL3 TEMPAVG PRESSURE GPRESSURE VOLUME PRESSAVG GPRESSAVG
ENERGY: 300000 2.3575 7.0232 9.1084 0.0000 -13897.2996 2334.1590 0.0000 0.0000 551.6721 -10992.9794 93.1278 -11544.6515 -10991.8350 93.1278 -317.3080 -265.6015 29397.6901 -317.3080 -265.6015
ENERGY: 400000 2.2664 9.6961 12.1895 0.0000 -13789.6766 2300.8145 0.0000 0.0000 698.7811 -10765.9290 117.9613 -11464.7101 -10764.3740 119.7842 -291.3587 -265.0039 29412.1592 3.3762 3.4163
TCL: Running 100000 steps at 150 kelvin.
TCL: Setting parameter langevinTemp to 150
TCL: Running for 100000 steps
ETITLE: TS BOND ANGLE DIHED IMPRP ELECT VDW BOUNDARY MISC KINETIC TOTAL TEMP POTENTIAL TOTAL3 TEMPAVG PRESSURE GPRESSURE VOLUME PRESSAVG GPRESSAVG
ENERGY: 400000 2.2664 9.6961 12.1895 0.0000 -13789.6766 2300.8145 0.0000 0.0000 698.4461 -10766.2640 117.9048 -11464.7101 -10764.6669 117.9048 -319.9560 -265.2652 29412.1592 -319.9560 -265.2652
ENERGY: 500000 5.5820 9.5545 10.0277 0.0000 -13566.5505 2260.7913 0.0000 0.0000 889.8566 -10390.7384 150.2168 -11280.5950 -10388.6697 150.1936 99.5913 117.5226 29200.8793 5.0123 5.0026
TCL: Running 100000 steps at 180 kelvin.
TCL: Setting parameter langevinTemp to 180
TCL: Running for 100000 steps
ETITLE: TS BOND ANGLE DIHED IMPRP ELECT VDW BOUNDARY MISC KINETIC TOTAL TEMP POTENTIAL TOTAL3 TEMPAVG PRESSURE GPRESSURE VOLUME PRESSAVG GPRESSAVG
ENERGY: 500000 5.5820 9.5545 10.0277 0.0000 -13566.5505 2260.7913 0.0000 0.0000 889.4226 -10391.1724 150.1435 -11280.5950 -10389.3697 150.1435 77.4127 116.9374 29200.8793 77.4127 116.9374
ENERGY: 600000 4.6532 10.8180 9.8642 0.0000 -13127.6984 2071.8671 0.0000 0.0000 1079.1628 -9951.3331 182.1736 -11030.4960 -9949.3753 179.8063 -397.9256 -352.1505 29206.6517 4.1572 4.1122
TCL: Running 100000 steps at 210 kelvin.
TCL: Setting parameter langevinTemp to 210
TCL: Running for 100000 steps
ETITLE: TS BOND ANGLE DIHED IMPRP ELECT VDW BOUNDARY MISC KINETIC TOTAL TEMP POTENTIAL TOTAL3 TEMPAVG PRESSURE GPRESSURE VOLUME PRESSAVG GPRESSAVG
ENERGY: 600000 4.6532 10.8180 9.8642 0.0000 -13127.6984 2071.8671 0.0000 0.0000 1078.6480 -9951.8479 182.0867 -11030.4960 -9949.4326 182.0867 -410.0299 -352.1982 29206.6517 -410.0299 -352.1982
ENERGY: 700000 4.2680 18.6928 8.8672 0.0000 -12530.3797 2020.5220 0.0000 0.0000 1257.3446 -9220.6850 212.2525 -10478.0297 -9217.7627 209.6235 1295.7110 1406.9586 28830.5668 4.4418 4.4867
TCL: Running 100000 steps at 240 kelvin.
TCL: Setting parameter langevinTemp to 240
TCL: Running for 100000 steps
ETITLE: TS BOND ANGLE DIHED IMPRP ELECT VDW BOUNDARY MISC KINETIC TOTAL TEMP POTENTIAL TOTAL3 TEMPAVG PRESSURE GPRESSURE VOLUME PRESSAVG GPRESSAVG
ENERGY: 700000 4.2680 18.6928 8.8672 0.0000 -12530.3797 2020.5220 0.0000 0.0000 1256.7440 -9221.2857 212.1511 -10478.0297 -9219.8728 212.1511 1337.6341 1408.6534 28830.5668 1337.6341 1408.6534
ENERGY: 800000 5.1846 12.0040 12.0602 0.0000 -11865.0407 1786.2969 0.0000 0.0000 1397.2707 -8652.2243 235.8734 -10049.4950 -8647.8953 239.6628 701.9311 789.8706 28977.7445 3.2431 3.0779
TCL: Running 100000 steps at 270 kelvin.
TCL: Setting parameter langevinTemp to 270
TCL: Running for 100000 steps
ETITLE: TS BOND ANGLE DIHED IMPRP ELECT VDW BOUNDARY MISC KINETIC TOTAL TEMP POTENTIAL TOTAL3 TEMPAVG PRESSURE GPRESSURE VOLUME PRESSAVG GPRESSAVG
ENERGY: 800000 5.1846 12.0040 12.0602 0.0000 -11865.0407 1786.2969 0.0000 0.0000 1396.5862 -8652.9088 235.7578 -10049.4950 -8651.0843 235.7578 706.6715 793.6655 28977.7445 706.6715 793.6655
ENERGY: 900000 7.2440 12.3599 11.9488 0.0000 -11347.6256 1606.7043 0.0000 0.0000 1605.2743 -8104.0943 270.9865 -9709.3686 -8099.1702 270.6240 332.9228 397.8910 29647.2742 2.7317 2.6994
TCL: Running 1000000 steps at 300 kelvin.
TCL: Setting parameter langevinTemp to 300
TCL: Running for 1000000 steps
ETITLE: TS BOND ANGLE DIHED IMPRP ELECT VDW BOUNDARY MISC KINETIC TOTAL TEMP POTENTIAL TOTAL3 TEMPAVG PRESSURE GPRESSURE VOLUME PRESSAVG GPRESSAVG
ENERGY: 900000 7.2440 12.3599 11.9488 0.0000 -11347.6256 1606.7043 0.0000 0.0000 1604.4933 -8104.8753 270.8547 -9709.3686 -8102.6696 270.8547 325.8233 399.4996 29647.2742 325.8233 399.4996
ENERGY: 1100000 6.5081 19.0893 13.6063 0.0000 -10695.4901 1433.6369 0.0000 0.0000 1745.8121 -7476.8374 294.7107 -9222.6494 -7473.4276 300.3444 196.1499 230.8798 30553.0154 4.6205 4.3702
ENERGY: 1300000 8.9000 18.0419 14.5286 0.0000 -10830.4637 1520.1912 0.0000 0.0000 1772.0712 -7496.7309 299.1435 -9268.8021 -7492.5027 300.1562 539.9197 605.9721 30435.8756 2.3405 2.3465
ENERGY: 1500000 6.5932 20.9156 12.1226 0.0000 -10678.9196 1360.0571 0.0000 0.0000 1840.3732 -7438.8579 310.6736 -9279.2311 -7434.8063 300.2633 -346.1787 -299.0156 30506.1159 2.0717 2.0462
ENERGY: 1700000 6.0351 13.7491 14.0782 0.0000 -10746.1862 1492.2764 0.0000 0.0000 1751.6786 -7468.3687 295.7010 -9220.0473 -7465.1327 300.2530 409.1474 522.0625 30783.9537 2.5480 2.6129
ENERGY: 1900000 7.7934 20.5512 11.2987 0.0000 -10742.2193 1468.5798 0.0000 0.0000 1798.7507 -7435.2456 303.6473 -9233.9963 -7432.1395 300.2344 316.5083 448.9549 30600.0103 2.3634 2.3495
TCL: Exiting due to exit command.
