Info: SIMULATION PARAMETERS:
Info: TIMESTEP               2
Info: NUMBER OF STEPS        0
Info: STEPS PER CYCLE        10
Info: PERIODIC CELL BASIS 1  35.89 0 0
Info: PERIODIC CELL BASIS 2  0 34.696 0
Info: PERIODIC CELL BASIS 3  0 0 35.644
Info: PERIODIC CELL CENTER   0 0 0
Info: WRAPPING WATERS AROUND PERIODIC BOUNDARIES ON OUTPUT.
Info: WRAPPING ALL CLUSTERS AROUND PERIODIC BOUNDARIES ON OUTPUT.
Info: FIRST LDB TIMESTEP     50
Info: LAST LDB TIMESTEP     -1
Info: HOM BACKGROUND SCALING 1
Info: PME BACKGROUND SCALING 1
Info: MIN ATOMS PER PATCH    40
Info: EMPTY PATCH LOAD       40 ATOMS
Info: INITIAL TEMPERATURE    300
Info: CENTER OF MASS MOVING INITIALLY? NO
Info: DIELECTRIC             1
Info: EXCLUDE                SCALED ONE-FOUR
Info: 1-4 ELECTROSTATICS SCALED BY 0.833333
Info: MODIFIED 1-4 VDW PARAMETERS WILL BE USED
Info: DCD FILENAME           mobley_6632459_equil.dcd
Info: DCD FREQUENCY          100000
Info: DCD FIRST STEP         100000
Info: DCD FILE WILL CONTAIN UNIT CELL DATA
Info: XST FILENAME           mobley_6632459_equil.xst
Info: XST FREQUENCY          100000
Info: NO VELOCITY DCD OUTPUT
Info: NO FORCE DCD OUTPUT
Info: OUTPUT FILENAME        mobley_6632459_equil
Info: BINARY OUTPUT FILES WILL BE USED
Info: RESTART FILENAME       mobley_6632459_equil.restart
Info: RESTART FREQUENCY      100000
Info: BINARY RESTART FILES WILL BE USED
Info: CUTOFF                 9
Info: PAIRLIST DISTANCE      11
Info: PAIRLIST SHRINK RATE   0.01
Info: PAIRLIST GROW RATE     0.01
Info: PAIRLIST TRIGGER       0.3
Info: PAIRLISTS PER CYCLE    2
Info: PAIRLISTS ENABLED
Info: MARGIN                 8
Info: HYDROGEN GROUP CUTOFF  2.5
Info: PATCH DIMENSION        21.5
Info: ENERGY OUTPUT STEPS    100000
Info: ENERGY EVALUATION STEPS    100000
Info: OUTPUT ENERGY PRECISION 4
Info: CROSSTERM ENERGY INCLUDED IN DIHEDRAL
Info: TIMING OUTPUT STEPS    1000000
Info: PRESSURE OUTPUT STEPS  100000
Info: LANGEVIN DYNAMICS ACTIVE
Info: LANGEVIN TEMPERATURE   30
Info: LANGEVIN USING BBK INTEGRATOR
Info: LANGEVIN DAMPING COEFFICIENT IS 1 INVERSE PS
Info: LANGEVIN DYNAMICS APPLIED TO HYDROGENS
Info: LANGEVIN PISTON PRESSURE CONTROL ACTIVE
Info:        TARGET PRESSURE IS 1.01325 BAR
Info:     OSCILLATION PERIOD IS 50 FS
Info:             DECAY TIME IS 25 FS
Info:     PISTON TEMPERATURE IS 300 K
Info:       PRESSURE CONTROL IS GROUP-BASED
Info:    INITIAL STRAIN RATE IS 0 0 0
Info:       CELL FLUCTUATION IS ISOTROPIC
Info: PARTICLE MESH EWALD (PME) ACTIVE
Info: PME TOLERANCE               1e-06
Info: PME EWALD COEFFICIENT       0.348832
Info: PME INTERPOLATION ORDER     4
Info: PME GRID DIMENSIONS         36 36 36
Info: PME MAXIMUM GRID SPACING    1
Info: FULL ELECTROSTATIC EVALUATION FREQUENCY      2
Info: USING VERLET I (r-RESPA) MTS SCHEME.
Info: C1 SPLITTING OF LONG RANGE ELECTROSTATICS
Info: PLACING ATOMS IN PATCHES BY HYDROGEN GROUPS
Info: RIGID BONDS TO HYDROGEN : ALL
Info:         ERROR TOLERANCE : 1e-08
Info:          MAX ITERATIONS : 100
Info: RIGID WATER USING SETTLE ALGORITHM
Info: RANDOM NUMBER SEED     1743224722
Info: USE HYDROGEN BONDS?    NO
Info: Using AMBER format force field!
Info: AMBER PARM FILE        mobley_6632459.prmtop
Info: COORDINATE PDB         mobley_6632459.pdb
Info: Exclusions will be read from PARM file!
Info: SCNB (VDW SCALING)     2
Info: USING ARITHMETIC MEAN TO COMBINE L-J SIGMA PARAMETERS
Info: BINARY COORDINATES     mobley_6632459_min.coor
Info: SUMMARY OF PARAMETERS:
Info: 7 BONDS
Info: 7 ANGLES
Info: 7 DIHEDRAL
Info: 0 IMPROPER
Info: 0 CROSSTERM
Info: 0 VDW
Info: 28 VDW_PAIRS
Info: 0 NBTHOLE_PAIRS
Info: STRUCTURE SUMMARY:
Info: 2911 ATOMS
Info: 2910 BONDS
Info: 15 ANGLES
Info: 20 DIHEDRALS
Info: 0 IMPROPERS
Info: 0 CROSSTERMS
Info: 2940 EXCLUSIONS
Info: 2907 RIGID BONDS
Info: 5826 DEGREES OF FREEDOM
Info: 971 HYDROGEN GROUPS
Info: 4 ATOMS IN LARGEST HYDROGEN GROUP
Info: 971 MIGRATION GROUPS
Info: 4 ATOMS IN LARGEST MIGRATION GROUP
Info: TOTAL MASS = 17479.6 amu
Info: TOTAL CHARGE = 9.99989e-05 e
Info: MASS DENSITY = 0.653959 g/cm^3
Info: ATOM DENSITY = 0.0655848 atoms/A^3
Info: ADDED 0 IMPLICIT EXCLUSIONS
Info: NONBONDED TABLE R-SQUARED SPACING: 0.0625
Info: NONBONDED TABLE SIZE: 705 POINTS
Info: REMOVING COM VELOCITY 0.0336329 -0.0857878 -0.153226
TCL: Running for 100000 steps
ETITLE: TS BOND ANGLE DIHED IMPRP ELECT VDW BOUNDARY MISC KINETIC TOTAL TEMP POTENTIAL TOTAL3 TEMPAVG PRESSURE GPRESSURE VOLUME PRESSAVG GPRESSAVG
ENERGY: 0 0.0588 0.2746 0.9330 0.0000 -13467.0899 2371.2935 0.0000 0.0000 1760.7201 -9333.8099 304.1657 -11094.5300 -9333.4671 304.1657 366.5752 399.4960 44385.3146 366.5752 399.4960
ENERGY: 100000 0.3058 0.3562 1.5881 0.0000 -14088.8218 2487.3942 0.0000 0.0000 170.9558 -11428.2217 29.5327 -11599.1775 -11427.8960 30.9054 396.3276 452.3278 28476.8126 4.1124 4.1463
TCL: Running 100000 steps at 60 kelvin.
TCL: Setting parameter langevinTemp to 60
TCL: Running for 100000 steps
ETITLE: TS BOND ANGLE DIHED IMPRP ELECT VDW BOUNDARY MISC KINETIC TOTAL TEMP POTENTIAL TOTAL3 TEMPAVG PRESSURE GPRESSURE VOLUME PRESSAVG GPRESSAVG
ENERGY: 100000 0.3058 0.3562 1.5881 0.0000 -14088.8218 2487.3942 0.0000 0.0000 170.8698 -11428.3077 29.5179 -11599.1775 -11427.9396 29.5179 388.9287 452.2973 28476.8126 388.9287 452.2973
ENERGY: 200000 0.3671 0.5525 0.9750 0.0000 -13854.0338 2313.5191 0.0000 0.0000 344.2977 -11194.3225 59.4777 -11538.6202 -11193.0142 60.0050 -835.7193 -754.4089 28598.8085 2.8041 2.8397
TCL: Running 100000 steps at 90 kelvin.
TCL: Setting parameter langevinTemp to 90
TCL: Running for 100000 steps
ETITLE: TS BOND ANGLE DIHED IMPRP ELECT VDW BOUNDARY MISC KINETIC TOTAL TEMP POTENTIAL TOTAL3 TEMPAVG PRESSURE GPRESSURE VOLUME PRESSAVG GPRESSAVG
ENERGY: 200000 0.3671 0.5525 0.9750 0.0000 -13854.0338 2313.5191 0.0000 0.0000 344.1210 -11194.4992 59.4472 -11538.6202 -11193.7848 59.4472 -814.1097 -754.0411 28598.8085 -814.1097 -754.0411
ENERGY: 300000 0.2254 1.7072 1.8312 0.0000 -13719.0213 2276.0561 0.0000 0.0000 525.6720 -10913.5293 90.8102 -11439.2014 -10911.8875 89.9774 -719.4213 -671.2651 28731.8656 3.2872 3.2711
TCL: Running 100000 steps at 120 kelvin.
TCL: Setting parameter langevinTemp to 120
TCL: Running for 100000 steps
ETITLE: TS BOND ANGLE DIHED IMPRP ELECT VDW BOUNDARY MISC KINETIC TOTAL TEMP POTENTIAL TOTAL3 TEMPAVG PRESSURE GPRESSURE VOLUME PRESSAVG GPRESSAVG
ENERGY: 300000 0.2254 1.7072 1.8312 0.0000 -13719.0213 2276.0561 0.0000 0.0000 525.4237 -10913.7776 90.7673 -11439.2014 -10912.7838 90.7673 -727.9399 -670.9848 28731.8656 -727.9399 -670.9848
ENERGY: 400000 1.0913 1.0804 1.7026 0.0000 -13553.7703 2221.8624 0.0000 0.0000 713.8151 -10614.2185 123.3121 -11328.0337 -10611.5093 120.0149 -757.7939 -710.8254 28727.3230 3.5528 3.6559
TCL: Running 100000 steps at 150 kelvin.
TCL: Setting parameter langevinTemp to 150
TCL: Running for 100000 steps
ETITLE: TS BOND ANGLE DIHED IMPRP ELECT VDW BOUNDARY MISC KINETIC TOTAL TEMP POTENTIAL TOTAL3 TEMPAVG PRESSURE GPRESSURE VOLUME PRESSAVG GPRESSAVG
ENERGY: 400000 1.0913 1.0804 1.7026 0.0000 -13553.7703 2221.8624 0.0000 0.0000 713.4605 -10614.5731 123.2508 -11328.0337 -10613.0119 123.2508 -765.2592 -710.5209 28727.3230 -765.2592 -710.5209
ENERGY: 500000 0.2126 1.1527 1.2623 0.0000 -13284.8647 2175.9046 0.0000 0.0000 874.6200 -10231.7125 151.0912 -11106.3325 -10229.0751 149.8138 -200.1640 -210.2282 28744.0361 3.1450 3.1827
TCL: Running 100000 steps at 180 kelvin.
TCL: Setting parameter langevinTemp to 180
TCL: Running for 100000 steps
ETITLE: TS BOND ANGLE DIHED IMPRP ELECT VDW BOUNDARY MISC KINETIC TOTAL TEMP POTENTIAL TOTAL3 TEMPAVG PRESSURE GPRESSURE VOLUME PRESSAVG GPRESSAVG
ENERGY: 500000 0.2126 1.1527 1.2623 0.0000 -13284.8647 2175.9046 0.0000 0.0000 874.1758 -10232.1566 151.0145 -11106.3325 -10230.1469 151.0145 -250.6922 -210.5000 28744.0361 -250.6922 -210.5000
ENERGY: 600000 2.0611 0.9396 1.3335 0.0000 -13100.0961 2269.4654 0.0000 0.0000 1002.4144 -9823.8822 173.1678 -10826.2966 -9822.1943 179.8909 1586.5013 1584.8620 28185.3406 4.4088 4.2937
TCL: Running 100000 steps at 210 kelvin.
TCL: Setting parameter langevinTemp to 210
TCL: Running for 100000 steps
ETITLE: TS BOND ANGLE DIHED IMPRP ELECT VDW BOUNDARY MISC KINETIC TOTAL TEMP POTENTIAL TOTAL3 TEMPAVG PRESSURE GPRESSURE VOLUME PRESSAVG GPRESSAVG
ENERGY: 600000 2.0611 0.9396 1.3335 0.0000 -13100.0961 2269.4654 0.0000 0.0000 1001.9219 -9824.3747 173.0827 -10826.2966 -9822.7305 173.0827 1522.3293 1585.7673 28185.3406 1522.3293 1585.7673
ENERGY: 700000 0.7896 2.6041 1.6605 0.0000 -12417.5897 1996.8929 0.0000 0.0000 1258.0181 -9157.6245 217.3236 -10415.6426 -9155.4282 209.7230 1049.6125 1092.5436 28246.3670 5.3610 5.3162
TCL: Running 100000 steps at 240 kelvin.
TCL: Setting parameter langevinTemp to 240
TCL: Running for 100000 steps
ETITLE: TS BOND ANGLE DIHED IMPRP ELECT VDW BOUNDARY MISC KINETIC TOTAL TEMP POTENTIAL TOTAL3 TEMPAVG PRESSURE GPRESSURE VOLUME PRESSAVG GPRESSAVG
ENERGY: 700000 0.7896 2.6041 1.6605 0.0000 -12417.5897 1996.8929 0.0000 0.0000 1257.4345 -9158.2081 217.2227 -10415.6426 -9156.3746 217.2227 1016.9620 1091.8594 28246.3670 1016.9620 1091.8594
ENERGY: 800000 0.3523 4.5029 1.4620 0.0000 -11762.6424 1769.9413 0.0000 0.0000 1370.7403 -8615.6436 236.7964 -9986.3839 -8613.7930 239.9247 298.9184 409.3591 28835.8433 3.9534 4.0120
TCL: Running 100000 steps at 270 kelvin.
TCL: Setting parameter langevinTemp to 270
TCL: Running for 100000 steps
ETITLE: TS BOND ANGLE DIHED IMPRP ELECT VDW BOUNDARY MISC KINETIC TOTAL TEMP POTENTIAL TOTAL3 TEMPAVG PRESSURE GPRESSURE VOLUME PRESSAVG GPRESSAVG
ENERGY: 800000 0.3523 4.5029 1.4620 0.0000 -11762.6424 1769.9413 0.0000 0.0000 1370.0486 -8616.3353 236.6769 -9986.3839 -8614.1912 236.6769 332.7680 408.4006 28835.8433 332.7680 408.4006
ENERGY: 900000 1.0957 2.6951 1.7227 0.0000 -11113.2015 1500.2438 0.0000 0.0000 1627.4225 -7980.0218 281.1384 -9607.4443 -7976.1714 269.9247 -743.0648 -654.9663 29457.8193 1.6373 1.8002
TCL: Running 1000000 steps at 300 kelvin.
TCL: Setting parameter langevinTemp to 300
TCL: Running for 1000000 steps
ETITLE: TS BOND ANGLE DIHED IMPRP ELECT VDW BOUNDARY MISC KINETIC TOTAL TEMP POTENTIAL TOTAL3 TEMPAVG PRESSURE GPRESSURE VOLUME PRESSAVG GPRESSAVG
ENERGY: 900000 1.0957 2.6951 1.7227 0.0000 -11113.2015 1500.2438 0.0000 0.0000 1626.6040 -7980.8403 280.9970 -9607.4443 -7977.8315 280.9970 -741.4455 -654.0401 29457.8193 -741.4455 -654.0401
ENERGY: 1100000 1.6477 2.6108 1.5322 0.0000 -10642.5452 1495.4088 0.0000 0.0000 1751.4205 -7389.9251 302.5592 -9141.3456 -7386.1950 299.8026 550.8072 657.5999 29822.9065 3.9244 3.9907
ENERGY: 1300000 1.2980 4.1187 1.0226 0.0000 -10631.2021 1429.8144 0.0000 0.0000 1763.8475 -7431.1009 304.7060 -9194.9484 -7426.7394 300.6109 43.8897 155.5042 29554.1185 2.8230 2.8222
ENERGY: 1500000 1.0975 3.2038 1.8821 0.0000 -10611.5918 1394.7012 0.0000 0.0000 1723.3950 -7487.3121 297.7178 -9210.7071 -7486.4714 299.8544 -476.2522 -342.4962 29845.7512 2.4639 2.4868
ENERGY: 1700000 0.0906 6.9006 2.8866 0.0000 -10498.0012 1384.7351 0.0000 0.0000 1792.8286 -7310.5598 309.7125 -9103.3884 -7304.7394 299.9984 -100.6405 -4.6219 29930.2304 2.2280 2.1018
ENERGY: 1900000 1.0878 3.2063 1.0239 0.0000 -10480.6732 1336.0574 0.0000 0.0000 1712.8546 -7426.4433 295.8969 -9139.2979 -7422.8001 300.2849 -739.8837 -706.2336 30268.0039 1.9009 1.9869
TCL: Exiting due to exit command.
