Info: SIMULATION PARAMETERS:
Info: TIMESTEP               2
Info: NUMBER OF STEPS        0
Info: STEPS PER CYCLE        10
Info: PERIODIC CELL BASIS 1  39.456 0 0
Info: PERIODIC CELL BASIS 2  0 32.158 0
Info: PERIODIC CELL BASIS 3  0 0 34.933
Info: PERIODIC CELL CENTER   0 0 0
Info: WRAPPING WATERS AROUND PERIODIC BOUNDARIES ON OUTPUT.
Info: WRAPPING ALL CLUSTERS AROUND PERIODIC BOUNDARIES ON OUTPUT.
Info: FIRST LDB TIMESTEP     50
Info: LAST LDB TIMESTEP     -1
Info: HOM BACKGROUND SCALING 1
Info: PME BACKGROUND SCALING 1
Info: MIN ATOMS PER PATCH    40
Info: EMPTY PATCH LOAD       40 ATOMS
Info: INITIAL TEMPERATURE    300
Info: CENTER OF MASS MOVING INITIALLY? NO
Info: DIELECTRIC             1
Info: EXCLUDE                SCALED ONE-FOUR
Info: 1-4 ELECTROSTATICS SCALED BY 0.833333
Info: MODIFIED 1-4 VDW PARAMETERS WILL BE USED
Info: DCD FILENAME           mobley_3690931_equil.dcd
Info: DCD FREQUENCY          100000
Info: DCD FIRST STEP         100000
Info: DCD FILE WILL CONTAIN UNIT CELL DATA
Info: XST FILENAME           mobley_3690931_equil.xst
Info: XST FREQUENCY          100000
Info: NO VELOCITY DCD OUTPUT
Info: NO FORCE DCD OUTPUT
Info: OUTPUT FILENAME        mobley_3690931_equil
Info: BINARY OUTPUT FILES WILL BE USED
Info: RESTART FILENAME       mobley_3690931_equil.restart
Info: RESTART FREQUENCY      100000
Info: BINARY RESTART FILES WILL BE USED
Info: CUTOFF                 9
Info: PAIRLIST DISTANCE      11
Info: PAIRLIST SHRINK RATE   0.01
Info: PAIRLIST GROW RATE     0.01
Info: PAIRLIST TRIGGER       0.3
Info: PAIRLISTS PER CYCLE    2
Info: PAIRLISTS ENABLED
Info: MARGIN                 8
Info: HYDROGEN GROUP CUTOFF  2.5
Info: PATCH DIMENSION        21.5
Info: ENERGY OUTPUT STEPS    100000
Info: ENERGY EVALUATION STEPS    100000
Info: OUTPUT ENERGY PRECISION 4
Info: CROSSTERM ENERGY INCLUDED IN DIHEDRAL
Info: TIMING OUTPUT STEPS    1000000
Info: PRESSURE OUTPUT STEPS  100000
Info: LANGEVIN DYNAMICS ACTIVE
Info: LANGEVIN TEMPERATURE   30
Info: LANGEVIN USING BBK INTEGRATOR
Info: LANGEVIN DAMPING COEFFICIENT IS 1 INVERSE PS
Info: LANGEVIN DYNAMICS APPLIED TO HYDROGENS
Info: LANGEVIN PISTON PRESSURE CONTROL ACTIVE
Info:        TARGET PRESSURE IS 1.01325 BAR
Info:     OSCILLATION PERIOD IS 50 FS
Info:             DECAY TIME IS 25 FS
Info:     PISTON TEMPERATURE IS 300 K
Info:       PRESSURE CONTROL IS GROUP-BASED
Info:    INITIAL STRAIN RATE IS 0 0 0
Info:       CELL FLUCTUATION IS ISOTROPIC
Info: PARTICLE MESH EWALD (PME) ACTIVE
Info: PME TOLERANCE               1e-06
Info: PME EWALD COEFFICIENT       0.348832
Info: PME INTERPOLATION ORDER     4
Info: PME GRID DIMENSIONS         40 36 36
Info: PME MAXIMUM GRID SPACING    1
Info: FULL ELECTROSTATIC EVALUATION FREQUENCY      2
Info: USING VERLET I (r-RESPA) MTS SCHEME.
Info: C1 SPLITTING OF LONG RANGE ELECTROSTATICS
Info: PLACING ATOMS IN PATCHES BY HYDROGEN GROUPS
Info: RIGID BONDS TO HYDROGEN : ALL
Info:         ERROR TOLERANCE : 1e-08
Info:          MAX ITERATIONS : 100
Info: RIGID WATER USING SETTLE ALGORITHM
Info: RANDOM NUMBER SEED     1743256651
Info: USE HYDROGEN BONDS?    NO
Info: Using AMBER format force field!
Info: AMBER PARM FILE        mobley_3690931.prmtop
Info: COORDINATE PDB         mobley_3690931.pdb
Info: Exclusions will be read from PARM file!
Info: SCNB (VDW SCALING)     2
Info: USING ARITHMETIC MEAN TO COMBINE L-J SIGMA PARAMETERS
Info: BINARY COORDINATES     mobley_3690931_min.coor
Info: SUMMARY OF PARAMETERS:
Info: 9 BONDS
Info: 13 ANGLES
Info:   13 HARMONIC
Info:   0 COSINE-BASED
Info: 17 DIHEDRAL
Info: 0 IMPROPER
Info: 0 CROSSTERM
Info: 0 VDW
Info: 36 VDW_PAIRS
Info: 0 NBTHOLE_PAIRS
Info: STRUCTURE SUMMARY:
Info: 2930 ATOMS
Info: 2929 BONDS
Info: 40 ANGLES
Info: 58 DIHEDRALS
Info: 0 IMPROPERS
Info: 0 CROSSTERMS
Info: 3016 EXCLUSIONS
Info: 2921 RIGID BONDS
Info: 5869 DEGREES OF FREEDOM
Info: 978 HYDROGEN GROUPS
Info: 4 ATOMS IN LARGEST HYDROGEN GROUP
Info: 978 MIGRATION GROUPS
Info: 4 ATOMS IN LARGEST MIGRATION GROUP
Info: TOTAL MASS = 17587.7 amu
Info: TOTAL CHARGE = 0 e
Info: MASS DENSITY = 0.658916 g/cm^3
Info: ATOM DENSITY = 0.0661043 atoms/A^3
Info: ADDED 0 IMPLICIT EXCLUSIONS
Info: NONBONDED TABLE R-SQUARED SPACING: 0.0625
Info: NONBONDED TABLE SIZE: 705 POINTS
Info: REMOVING COM VELOCITY 0.101616 0.0917309 -0.0956532
TCL: Running for 100000 steps
ETITLE: TS BOND ANGLE DIHED IMPRP ELECT VDW BOUNDARY MISC KINETIC TOTAL TEMP POTENTIAL TOTAL3 TEMPAVG PRESSURE GPRESSURE VOLUME PRESSAVG GPRESSAVG
ENERGY: 0 0.1079 0.6043 3.2830 0.0000 -13556.8576 2395.5483 0.0000 0.0000 1724.8671 -9432.4470 295.7889 -11157.3141 -9432.1134 295.7889 533.9326 566.0618 44323.9003 533.9326 566.0618
ENERGY: 100000 0.1579 1.1433 3.9521 0.0000 -13963.6405 2370.7131 0.0000 0.0000 166.8946 -11420.7795 28.6199 -11587.6741 -11420.3281 30.9182 -404.9536 -358.0667 29274.8781 3.8502 3.8084
TCL: Running 100000 steps at 60 kelvin.
TCL: Setting parameter langevinTemp to 60
TCL: Running for 100000 steps
ETITLE: TS BOND ANGLE DIHED IMPRP ELECT VDW BOUNDARY MISC KINETIC TOTAL TEMP POTENTIAL TOTAL3 TEMPAVG PRESSURE GPRESSURE VOLUME PRESSAVG GPRESSAVG
ENERGY: 100000 0.1579 1.1433 3.9521 0.0000 -13963.6405 2370.7131 0.0000 0.0000 166.8057 -11420.8684 28.6047 -11587.6741 -11420.4808 28.6047 -406.4563 -358.0628 29274.8781 -406.4563 -358.0628
ENERGY: 200000 0.5326 2.8821 4.3643 0.0000 -13967.0963 2380.4726 0.0000 0.0000 348.9460 -11229.8985 59.8390 -11578.8446 -11228.9421 59.9751 -253.9354 -184.8131 28996.6223 3.9285 4.0591
TCL: Running 100000 steps at 90 kelvin.
TCL: Setting parameter langevinTemp to 90
TCL: Running for 100000 steps
ETITLE: TS BOND ANGLE DIHED IMPRP ELECT VDW BOUNDARY MISC KINETIC TOTAL TEMP POTENTIAL TOTAL3 TEMPAVG PRESSURE GPRESSURE VOLUME PRESSAVG GPRESSAVG
ENERGY: 200000 0.5326 2.8821 4.3643 0.0000 -13967.0963 2380.4726 0.0000 0.0000 348.7698 -11230.0748 59.8088 -11578.8446 -11229.2546 59.8088 -254.6774 -185.1282 28996.6223 -254.6774 -185.1282
ENERGY: 300000 0.5623 2.7839 3.5073 0.0000 -13897.0445 2429.0959 0.0000 0.0000 536.0736 -10925.0215 91.9286 -11461.0951 -10924.1632 89.7989 514.9421 543.1557 29064.5813 3.2597 3.2053
TCL: Running 100000 steps at 120 kelvin.
TCL: Setting parameter langevinTemp to 120
TCL: Running for 100000 steps
ETITLE: TS BOND ANGLE DIHED IMPRP ELECT VDW BOUNDARY MISC KINETIC TOTAL TEMP POTENTIAL TOTAL3 TEMPAVG PRESSURE GPRESSURE VOLUME PRESSAVG GPRESSAVG
ENERGY: 300000 0.5623 2.7839 3.5073 0.0000 -13897.0445 2429.0959 0.0000 0.0000 535.8125 -10925.2826 91.8838 -11461.0951 -10924.2117 91.8838 490.7152 543.3419 29064.5813 490.7152 543.3419
ENERGY: 400000 1.2574 4.5483 4.3470 0.0000 -13575.9274 2238.4775 0.0000 0.0000 692.7700 -10634.5273 118.7997 -11327.2973 -10633.2533 120.2252 -686.0450 -596.9251 29085.6543 4.6352 4.5986
TCL: Running 100000 steps at 150 kelvin.
TCL: Setting parameter langevinTemp to 150
TCL: Running for 100000 steps
ETITLE: TS BOND ANGLE DIHED IMPRP ELECT VDW BOUNDARY MISC KINETIC TOTAL TEMP POTENTIAL TOTAL3 TEMPAVG PRESSURE GPRESSURE VOLUME PRESSAVG GPRESSAVG
ENERGY: 400000 1.2574 4.5483 4.3470 0.0000 -13575.9274 2238.4775 0.0000 0.0000 692.4299 -10634.8674 118.7414 -11327.2973 -10633.1671 118.7414 -660.3690 -597.2349 29085.6543 -660.3690 -597.2349
ENERGY: 500000 0.8623 5.0199 4.0751 0.0000 -13356.8861 2157.1148 0.0000 0.0000 884.9891 -10304.8250 151.7624 -11189.8141 -10302.6203 150.0288 -707.7623 -663.1385 29117.3976 3.3043 3.2615
TCL: Running 100000 steps at 180 kelvin.
TCL: Setting parameter langevinTemp to 180
TCL: Running for 100000 steps
ETITLE: TS BOND ANGLE DIHED IMPRP ELECT VDW BOUNDARY MISC KINETIC TOTAL TEMP POTENTIAL TOTAL3 TEMPAVG PRESSURE GPRESSURE VOLUME PRESSAVG GPRESSAVG
ENERGY: 500000 0.8623 5.0199 4.0751 0.0000 -13356.8861 2157.1148 0.0000 0.0000 884.5659 -10305.2481 151.6898 -11189.8141 -10303.1207 151.6898 -705.1863 -663.0324 29117.3976 -705.1863 -663.0324
ENERGY: 600000 2.8103 6.1832 4.7790 0.0000 -12992.9309 2059.7415 0.0000 0.0000 1068.5797 -9850.8372 183.2454 -10919.4169 -9847.8747 180.0551 -688.5183 -581.7998 29122.9157 2.9986 3.1566
TCL: Running 100000 steps at 210 kelvin.
TCL: Setting parameter langevinTemp to 210
TCL: Running for 100000 steps
ETITLE: TS BOND ANGLE DIHED IMPRP ELECT VDW BOUNDARY MISC KINETIC TOTAL TEMP POTENTIAL TOTAL3 TEMPAVG PRESSURE GPRESSURE VOLUME PRESSAVG GPRESSAVG
ENERGY: 600000 2.8103 6.1832 4.7790 0.0000 -12992.9309 2059.7415 0.0000 0.0000 1068.0662 -9851.3507 183.1574 -10919.4169 -9849.5661 183.1574 -650.9919 -580.7419 29122.9157 -650.9919 -580.7419
ENERGY: 700000 1.9886 6.7727 4.0476 0.0000 -12397.0313 1912.3599 0.0000 0.0000 1211.2872 -9260.5753 207.7177 -10471.8625 -9258.9075 209.6080 46.0200 158.0124 28929.6913 3.4642 3.5095
TCL: Running 100000 steps at 240 kelvin.
TCL: Setting parameter langevinTemp to 240
TCL: Running for 100000 steps
ETITLE: TS BOND ANGLE DIHED IMPRP ELECT VDW BOUNDARY MISC KINETIC TOTAL TEMP POTENTIAL TOTAL3 TEMPAVG PRESSURE GPRESSURE VOLUME PRESSAVG GPRESSAVG
ENERGY: 700000 1.9886 6.7727 4.0476 0.0000 -12397.0313 1912.3599 0.0000 0.0000 1210.6620 -9261.2005 207.6104 -10471.8625 -9259.4831 207.6104 64.1271 157.5332 28929.6913 64.1271 157.5332
ENERGY: 800000 1.5213 10.8016 3.8317 0.0000 -11497.5107 1605.3736 0.0000 0.0000 1385.3000 -8490.6825 237.5583 -9875.9825 -8486.7891 240.3294 -455.8532 -363.8500 28976.7143 4.8034 4.6280
TCL: Running 100000 steps at 270 kelvin.
TCL: Setting parameter langevinTemp to 270
TCL: Running for 100000 steps
ETITLE: TS BOND ANGLE DIHED IMPRP ELECT VDW BOUNDARY MISC KINETIC TOTAL TEMP POTENTIAL TOTAL3 TEMPAVG PRESSURE GPRESSURE VOLUME PRESSAVG GPRESSAVG
ENERGY: 800000 1.5213 10.8016 3.8317 0.0000 -11497.5107 1605.3736 0.0000 0.0000 1384.6306 -8491.3520 237.4434 -9875.9825 -8489.4676 237.4434 -456.9168 -362.2469 28976.7143 -456.9168 -362.2469
ENERGY: 900000 0.6179 10.8627 4.4218 0.0000 -11099.9993 1491.8810 0.0000 0.0000 1564.1061 -8028.1098 268.2208 -9592.2159 -8025.0808 270.7224 -507.6191 -455.8064 29360.1085 3.1577 3.1554
TCL: Running 1000000 steps at 300 kelvin.
TCL: Setting parameter langevinTemp to 300
TCL: Running for 1000000 steps
ETITLE: TS BOND ANGLE DIHED IMPRP ELECT VDW BOUNDARY MISC KINETIC TOTAL TEMP POTENTIAL TOTAL3 TEMPAVG PRESSURE GPRESSURE VOLUME PRESSAVG GPRESSAVG
ENERGY: 900000 0.6179 10.8627 4.4218 0.0000 -11099.9993 1491.8810 0.0000 0.0000 1563.3239 -8028.8920 268.0867 -9592.2159 -8026.3847 268.0867 -548.6136 -456.1814 29360.1085 -548.6136 -456.1814
ENERGY: 1100000 2.9971 11.5887 6.2924 0.0000 -10488.4527 1378.0244 0.0000 0.0000 1771.7979 -7317.7522 303.8369 -9089.5502 -7313.8703 300.6172 -6.8829 -15.0180 30345.7259 3.3668 3.3192
ENERGY: 1300000 3.9484 6.7701 6.3693 0.0000 -10570.4575 1393.5644 0.0000 0.0000 1735.0635 -7424.7418 297.5375 -9159.8053 -7421.3529 299.8546 -511.4035 -393.7765 30658.1891 2.4481 2.4874
ENERGY: 1500000 2.6092 12.6782 4.0604 0.0000 -10593.3180 1402.8627 0.0000 0.0000 1736.6970 -7434.4105 297.8176 -9171.1075 -7432.7315 300.1866 -115.3806 -8.2929 30002.6589 2.9192 2.7467
ENERGY: 1700000 2.2812 6.6152 3.4935 0.0000 -10657.0690 1429.2634 0.0000 0.0000 1697.0712 -7518.3444 291.0224 -9215.4157 -7514.4971 299.7738 -271.5488 -141.2406 30147.0632 2.8693 2.6487
ENERGY: 1900000 1.8366 10.8890 5.2671 0.0000 -10629.8424 1437.3386 0.0000 0.0000 1769.8620 -7404.6490 303.5049 -9174.5110 -7400.0285 300.3548 193.1835 249.9227 30135.8044 5.4263 5.3037
TCL: Exiting due to exit command.
