Info: SIMULATION PARAMETERS:
Info: TIMESTEP               2
Info: NUMBER OF STEPS        0
Info: STEPS PER CYCLE        10
Info: PERIODIC CELL BASIS 1  36.005 0 0
Info: PERIODIC CELL BASIS 2  0 32.862 0
Info: PERIODIC CELL BASIS 3  0 0 37.451
Info: PERIODIC CELL CENTER   0 0 0
Info: WRAPPING WATERS AROUND PERIODIC BOUNDARIES ON OUTPUT.
Info: WRAPPING ALL CLUSTERS AROUND PERIODIC BOUNDARIES ON OUTPUT.
Info: FIRST LDB TIMESTEP     50
Info: LAST LDB TIMESTEP     -1
Info: HOM BACKGROUND SCALING 1
Info: PME BACKGROUND SCALING 1
Info: MIN ATOMS PER PATCH    40
Info: EMPTY PATCH LOAD       40 ATOMS
Info: INITIAL TEMPERATURE    300
Info: CENTER OF MASS MOVING INITIALLY? NO
Info: DIELECTRIC             1
Info: EXCLUDE                SCALED ONE-FOUR
Info: 1-4 ELECTROSTATICS SCALED BY 0.833333
Info: MODIFIED 1-4 VDW PARAMETERS WILL BE USED
Info: DCD FILENAME           mobley_3572203_equil.dcd
Info: DCD FREQUENCY          100000
Info: DCD FIRST STEP         100000
Info: DCD FILE WILL CONTAIN UNIT CELL DATA
Info: XST FILENAME           mobley_3572203_equil.xst
Info: XST FREQUENCY          100000
Info: NO VELOCITY DCD OUTPUT
Info: NO FORCE DCD OUTPUT
Info: OUTPUT FILENAME        mobley_3572203_equil
Info: BINARY OUTPUT FILES WILL BE USED
Info: RESTART FILENAME       mobley_3572203_equil.restart
Info: RESTART FREQUENCY      100000
Info: BINARY RESTART FILES WILL BE USED
Info: CUTOFF                 9
Info: PAIRLIST DISTANCE      11
Info: PAIRLIST SHRINK RATE   0.01
Info: PAIRLIST GROW RATE     0.01
Info: PAIRLIST TRIGGER       0.3
Info: PAIRLISTS PER CYCLE    2
Info: PAIRLISTS ENABLED
Info: MARGIN                 8
Info: HYDROGEN GROUP CUTOFF  2.5
Info: PATCH DIMENSION        21.5
Info: ENERGY OUTPUT STEPS    100000
Info: ENERGY EVALUATION STEPS    100000
Info: OUTPUT ENERGY PRECISION 4
Info: CROSSTERM ENERGY INCLUDED IN DIHEDRAL
Info: TIMING OUTPUT STEPS    1000000
Info: PRESSURE OUTPUT STEPS  100000
Info: LANGEVIN DYNAMICS ACTIVE
Info: LANGEVIN TEMPERATURE   30
Info: LANGEVIN USING BBK INTEGRATOR
Info: LANGEVIN DAMPING COEFFICIENT IS 1 INVERSE PS
Info: LANGEVIN DYNAMICS APPLIED TO HYDROGENS
Info: LANGEVIN PISTON PRESSURE CONTROL ACTIVE
Info:        TARGET PRESSURE IS 1.01325 BAR
Info:     OSCILLATION PERIOD IS 50 FS
Info:             DECAY TIME IS 25 FS
Info:     PISTON TEMPERATURE IS 300 K
Info:       PRESSURE CONTROL IS GROUP-BASED
Info:    INITIAL STRAIN RATE IS 0 0 0
Info:       CELL FLUCTUATION IS ISOTROPIC
Info: PARTICLE MESH EWALD (PME) ACTIVE
Info: PME TOLERANCE               1e-06
Info: PME EWALD COEFFICIENT       0.348832
Info: PME INTERPOLATION ORDER     4
Info: PME GRID DIMENSIONS         40 36 40
Info: PME MAXIMUM GRID SPACING    1
Info: FULL ELECTROSTATIC EVALUATION FREQUENCY      2
Info: USING VERLET I (r-RESPA) MTS SCHEME.
Info: C1 SPLITTING OF LONG RANGE ELECTROSTATICS
Info: PLACING ATOMS IN PATCHES BY HYDROGEN GROUPS
Info: RIGID BONDS TO HYDROGEN : ALL
Info:         ERROR TOLERANCE : 1e-08
Info:          MAX ITERATIONS : 100
Info: RIGID WATER USING SETTLE ALGORITHM
Info: RANDOM NUMBER SEED     1743259887
Info: USE HYDROGEN BONDS?    NO
Info: Using AMBER format force field!
Info: AMBER PARM FILE        mobley_3572203.prmtop
Info: COORDINATE PDB         mobley_3572203.pdb
Info: Exclusions will be read from PARM file!
Info: SCNB (VDW SCALING)     2
Info: USING ARITHMETIC MEAN TO COMBINE L-J SIGMA PARAMETERS
Info: BINARY COORDINATES     mobley_3572203_min.coor
Info: SUMMARY OF PARAMETERS:
Info: 9 BONDS
Info: 13 ANGLES
Info:   13 HARMONIC
Info:   0 COSINE-BASED
Info: 20 DIHEDRAL
Info: 0 IMPROPER
Info: 0 CROSSTERM
Info: 0 VDW
Info: 36 VDW_PAIRS
Info: 0 NBTHOLE_PAIRS
Info: STRUCTURE SUMMARY:
Info: 2960 ATOMS
Info: 2959 BONDS
Info: 46 ANGLES
Info: 71 DIHEDRALS
Info: 0 IMPROPERS
Info: 0 CROSSTERMS
Info: 3061 EXCLUSIONS
Info: 2950 RIGID BONDS
Info: 5930 DEGREES OF FREEDOM
Info: 988 HYDROGEN GROUPS
Info: 4 ATOMS IN LARGEST HYDROGEN GROUP
Info: 988 MIGRATION GROUPS
Info: 4 ATOMS IN LARGEST MIGRATION GROUP
Info: TOTAL MASS = 17763.9 amu
Info: TOTAL CHARGE = -9.99831e-05 e
Info: MASS DENSITY = 0.665696 g/cm^3
Info: ATOM DENSITY = 0.0667992 atoms/A^3
Info: ADDED 0 IMPLICIT EXCLUSIONS
Info: NONBONDED TABLE R-SQUARED SPACING: 0.0625
Info: NONBONDED TABLE SIZE: 705 POINTS
Info: REMOVING COM VELOCITY 0.0831429 -0.084478 0.0234909
TCL: Running for 100000 steps
ETITLE: TS BOND ANGLE DIHED IMPRP ELECT VDW BOUNDARY MISC KINETIC TOTAL TEMP POTENTIAL TOTAL3 TEMPAVG PRESSURE GPRESSURE VOLUME PRESSAVG GPRESSAVG
ENERGY: 0 0.1182 0.8098 4.0723 0.0000 -13613.6751 2372.5365 0.0000 0.0000 1731.3407 -9504.7976 293.8449 -11236.1383 -9504.4740 293.8449 373.0364 412.5598 44311.8850 373.0364 412.5598
ENERGY: 100000 0.5034 2.2244 4.7684 0.0000 -14244.2463 2475.1542 0.0000 0.0000 180.4578 -11581.1381 30.6275 -11761.5959 -11580.7402 30.9580 221.0289 261.9246 28666.0934 4.9206 4.8653
TCL: Running 100000 steps at 60 kelvin.
TCL: Setting parameter langevinTemp to 60
TCL: Running for 100000 steps
ETITLE: TS BOND ANGLE DIHED IMPRP ELECT VDW BOUNDARY MISC KINETIC TOTAL TEMP POTENTIAL TOTAL3 TEMPAVG PRESSURE GPRESSURE VOLUME PRESSAVG GPRESSAVG
ENERGY: 100000 0.5034 2.2244 4.7684 0.0000 -14244.2463 2475.1542 0.0000 0.0000 180.3701 -11581.2258 30.6126 -11761.5959 -11580.8304 30.6126 222.4844 261.8499 28666.0934 222.4844 261.8499
ENERGY: 200000 0.1611 3.5649 4.9173 0.0000 -14257.0703 2587.7632 0.0000 0.0000 362.2981 -11298.3658 61.4896 -11660.6638 -11297.6303 59.9448 1703.1121 1724.1571 28309.6110 3.5495 3.5419
TCL: Running 100000 steps at 90 kelvin.
TCL: Setting parameter langevinTemp to 90
TCL: Running for 100000 steps
ETITLE: TS BOND ANGLE DIHED IMPRP ELECT VDW BOUNDARY MISC KINETIC TOTAL TEMP POTENTIAL TOTAL3 TEMPAVG PRESSURE GPRESSURE VOLUME PRESSAVG GPRESSAVG
ENERGY: 200000 0.1611 3.5649 4.9173 0.0000 -14257.0703 2587.7632 0.0000 0.0000 362.1241 -11298.5397 61.4601 -11660.6638 -11297.9147 61.4601 1690.2136 1724.2774 28309.6110 1690.2136 1724.2774
ENERGY: 300000 0.3303 3.8869 5.9573 0.0000 -13857.2378 2296.0353 0.0000 0.0000 534.2101 -11016.8179 90.6667 -11551.0280 -11015.5361 90.0246 -417.6920 -364.4121 28446.1686 2.9567 2.9736
TCL: Running 100000 steps at 120 kelvin.
TCL: Setting parameter langevinTemp to 120
TCL: Running for 100000 steps
ETITLE: TS BOND ANGLE DIHED IMPRP ELECT VDW BOUNDARY MISC KINETIC TOTAL TEMP POTENTIAL TOTAL3 TEMPAVG PRESSURE GPRESSURE VOLUME PRESSAVG GPRESSAVG
ENERGY: 300000 0.3303 3.8869 5.9573 0.0000 -13857.2378 2296.0353 0.0000 0.0000 533.9419 -11017.0861 90.6212 -11551.0280 -11015.9856 90.6212 -422.1569 -364.6156 28446.1686 -422.1569 -364.6156
ENERGY: 400000 2.7987 4.4226 5.4947 0.0000 -13734.1512 2286.6975 0.0000 0.0000 703.8317 -10730.9060 119.4551 -11434.7377 -10729.3784 120.0308 -164.2650 -49.1642 28516.8165 2.5232 2.4253
TCL: Running 100000 steps at 150 kelvin.
TCL: Setting parameter langevinTemp to 150
TCL: Running for 100000 steps
ETITLE: TS BOND ANGLE DIHED IMPRP ELECT VDW BOUNDARY MISC KINETIC TOTAL TEMP POTENTIAL TOTAL3 TEMPAVG PRESSURE GPRESSURE VOLUME PRESSAVG GPRESSAVG
ENERGY: 400000 2.7987 4.4226 5.4947 0.0000 -13734.1512 2286.6975 0.0000 0.0000 703.4835 -10731.2542 119.3959 -11434.7377 -10729.7679 119.3959 -108.7069 -48.7809 28516.8165 -108.7069 -48.7809
ENERGY: 500000 2.4942 9.9108 5.4585 0.0000 -13226.1728 2034.8045 0.0000 0.0000 870.4603 -10303.0444 147.7354 -11173.5048 -10300.9383 150.2468 -1546.4610 -1525.0719 29145.3505 4.8053 4.7047
TCL: Running 100000 steps at 180 kelvin.
TCL: Setting parameter langevinTemp to 180
TCL: Running for 100000 steps
ETITLE: TS BOND ANGLE DIHED IMPRP ELECT VDW BOUNDARY MISC KINETIC TOTAL TEMP POTENTIAL TOTAL3 TEMPAVG PRESSURE GPRESSURE VOLUME PRESSAVG GPRESSAVG
ENERGY: 500000 2.4942 9.9108 5.4585 0.0000 -13226.1728 2034.8045 0.0000 0.0000 870.0329 -10303.4718 147.6629 -11173.5048 -10301.8367 147.6629 -1572.4950 -1524.2610 29145.3505 -1572.4950 -1524.2610
ENERGY: 600000 1.5122 4.9260 4.3683 0.0000 -13077.9100 2039.3810 0.0000 0.0000 1069.1733 -9958.5491 181.4612 -11027.7225 -9956.0079 180.0996 -857.2113 -797.5019 29372.9203 3.8786 3.9612
TCL: Running 100000 steps at 210 kelvin.
TCL: Setting parameter langevinTemp to 210
TCL: Running for 100000 steps
ETITLE: TS BOND ANGLE DIHED IMPRP ELECT VDW BOUNDARY MISC KINETIC TOTAL TEMP POTENTIAL TOTAL3 TEMPAVG PRESSURE GPRESSURE VOLUME PRESSAVG GPRESSAVG
ENERGY: 600000 1.5122 4.9260 4.3683 0.0000 -13077.9100 2039.3810 0.0000 0.0000 1068.6365 -9959.0859 181.3701 -11027.7225 -9956.5023 181.3701 -859.2827 -799.1937 29372.9203 -859.2827 -799.1937
ENERGY: 700000 2.2224 3.8466 5.6205 0.0000 -12344.5879 1863.3374 0.0000 0.0000 1212.8610 -9256.6999 205.8480 -10469.5609 -9253.6274 209.4674 -265.5248 -184.8181 28831.0684 3.6923 3.7899
TCL: Running 100000 steps at 240 kelvin.
TCL: Setting parameter langevinTemp to 240
TCL: Running for 100000 steps
ETITLE: TS BOND ANGLE DIHED IMPRP ELECT VDW BOUNDARY MISC KINETIC TOTAL TEMP POTENTIAL TOTAL3 TEMPAVG PRESSURE GPRESSURE VOLUME PRESSAVG GPRESSAVG
ENERGY: 700000 2.2224 3.8466 5.6205 0.0000 -12344.5879 1863.3374 0.0000 0.0000 1212.2286 -9257.3323 205.7407 -10469.5609 -9254.9306 205.7407 -260.8133 -184.8785 28831.0684 -260.8133 -184.8785
ENERGY: 800000 1.0786 8.3309 6.8402 0.0000 -11835.9284 1709.7927 0.0000 0.0000 1448.0515 -8661.8345 245.7648 -10109.8859 -8658.4313 239.9828 86.8756 183.7385 28919.6740 3.5282 3.4126
TCL: Running 100000 steps at 270 kelvin.
TCL: Setting parameter langevinTemp to 270
TCL: Running for 100000 steps
ETITLE: TS BOND ANGLE DIHED IMPRP ELECT VDW BOUNDARY MISC KINETIC TOTAL TEMP POTENTIAL TOTAL3 TEMPAVG PRESSURE GPRESSURE VOLUME PRESSAVG GPRESSAVG
ENERGY: 800000 1.0786 8.3309 6.8402 0.0000 -11835.9284 1709.7927 0.0000 0.0000 1447.3591 -8662.5268 245.6473 -10109.8859 -8659.9850 245.6473 97.6731 182.1167 28919.6740 97.6731 182.1167
ENERGY: 900000 0.7625 12.8018 5.8544 0.0000 -11317.8072 1622.3252 0.0000 0.0000 1633.2181 -8042.8452 277.1915 -9676.0633 -8040.6854 270.0770 549.1558 626.9066 29695.1984 3.0683 3.1020
TCL: Running 1000000 steps at 300 kelvin.
TCL: Setting parameter langevinTemp to 300
TCL: Running for 1000000 steps
ETITLE: TS BOND ANGLE DIHED IMPRP ELECT VDW BOUNDARY MISC KINETIC TOTAL TEMP POTENTIAL TOTAL3 TEMPAVG PRESSURE GPRESSURE VOLUME PRESSAVG GPRESSAVG
ENERGY: 900000 0.7625 12.8018 5.8544 0.0000 -11317.8072 1622.3252 0.0000 0.0000 1632.4167 -8043.6466 277.0555 -9676.0633 -8040.6894 277.0555 528.7741 624.9368 29695.1984 528.7741 624.9368
ENERGY: 1100000 1.6025 13.2108 6.7976 0.0000 -10752.3985 1408.2307 0.0000 0.0000 1757.4536 -7565.1033 298.2768 -9322.5568 -7559.8172 300.3880 -459.6933 -362.8956 30501.8413 2.8808 2.8483
ENERGY: 1300000 2.8633 9.2603 7.4328 0.0000 -10646.9077 1390.4992 0.0000 0.0000 1770.5682 -7466.2838 300.5027 -9236.8521 -7463.0093 299.6818 -506.1129 -458.0341 30740.4133 2.0992 2.0643
ENERGY: 1500000 3.1025 10.6533 6.7337 0.0000 -10755.8142 1467.1777 0.0000 0.0000 1745.4285 -7522.7183 296.2360 -9268.1468 -7519.7276 300.2329 494.1707 490.7360 30331.7319 3.6034 3.5573
ENERGY: 1700000 4.0703 9.8208 6.4294 0.0000 -10753.7357 1445.0179 0.0000 0.0000 1741.7088 -7546.6885 295.6046 -9288.3973 -7543.3624 300.2656 -132.8269 33.3000 30238.5605 3.7219 3.6413
ENERGY: 1900000 2.7346 17.2325 4.8444 0.0000 -10697.6864 1435.9956 0.0000 0.0000 1830.7402 -7406.1391 310.7151 -9236.8793 -7403.3972 299.9208 49.5414 130.5796 30551.3893 2.9294 2.8655
TCL: Exiting due to exit command.
