Info: SIMULATION PARAMETERS:
Info: TIMESTEP               2
Info: NUMBER OF STEPS        0
Info: STEPS PER CYCLE        10
Info: PERIODIC CELL BASIS 1  36.281 0 0
Info: PERIODIC CELL BASIS 2  0 35.779 0
Info: PERIODIC CELL BASIS 3  0 0 34.933
Info: PERIODIC CELL CENTER   0 0 0
Info: WRAPPING WATERS AROUND PERIODIC BOUNDARIES ON OUTPUT.
Info: WRAPPING ALL CLUSTERS AROUND PERIODIC BOUNDARIES ON OUTPUT.
Info: FIRST LDB TIMESTEP     50
Info: LAST LDB TIMESTEP     -1
Info: HOM BACKGROUND SCALING 1
Info: PME BACKGROUND SCALING 1
Info: MIN ATOMS PER PATCH    40
Info: EMPTY PATCH LOAD       40 ATOMS
Info: INITIAL TEMPERATURE    300
Info: CENTER OF MASS MOVING INITIALLY? NO
Info: DIELECTRIC             1
Info: EXCLUDE                SCALED ONE-FOUR
Info: 1-4 ELECTROSTATICS SCALED BY 0.833333
Info: MODIFIED 1-4 VDW PARAMETERS WILL BE USED
Info: DCD FILENAME           mobley_1952272_equil.dcd
Info: DCD FREQUENCY          100000
Info: DCD FIRST STEP         100000
Info: DCD FILE WILL CONTAIN UNIT CELL DATA
Info: XST FILENAME           mobley_1952272_equil.xst
Info: XST FREQUENCY          100000
Info: NO VELOCITY DCD OUTPUT
Info: NO FORCE DCD OUTPUT
Info: OUTPUT FILENAME        mobley_1952272_equil
Info: BINARY OUTPUT FILES WILL BE USED
Info: RESTART FILENAME       mobley_1952272_equil.restart
Info: RESTART FREQUENCY      100000
Info: BINARY RESTART FILES WILL BE USED
Info: CUTOFF                 9
Info: PAIRLIST DISTANCE      11
Info: PAIRLIST SHRINK RATE   0.01
Info: PAIRLIST GROW RATE     0.01
Info: PAIRLIST TRIGGER       0.3
Info: PAIRLISTS PER CYCLE    2
Info: PAIRLISTS ENABLED
Info: MARGIN                 8
Info: HYDROGEN GROUP CUTOFF  2.5
Info: PATCH DIMENSION        21.5
Info: ENERGY OUTPUT STEPS    100000
Info: ENERGY EVALUATION STEPS    100000
Info: OUTPUT ENERGY PRECISION 4
Info: CROSSTERM ENERGY INCLUDED IN DIHEDRAL
Info: TIMING OUTPUT STEPS    1000000
Info: PRESSURE OUTPUT STEPS  100000
Info: FIXED ATOMS ACTIVE
Info: LANGEVIN DYNAMICS ACTIVE
Info: LANGEVIN TEMPERATURE   30
Info: LANGEVIN USING BBK INTEGRATOR
Info: LANGEVIN DAMPING COEFFICIENT IS 1 INVERSE PS
Info: LANGEVIN DYNAMICS APPLIED TO HYDROGENS
Info: LANGEVIN PISTON PRESSURE CONTROL ACTIVE
Info:        TARGET PRESSURE IS 1.01325 BAR
Info:     OSCILLATION PERIOD IS 50 FS
Info:             DECAY TIME IS 25 FS
Info:     PISTON TEMPERATURE IS 300 K
Info:       PRESSURE CONTROL IS GROUP-BASED
Info:    INITIAL STRAIN RATE IS 0 0 0
Info:       CELL FLUCTUATION IS ISOTROPIC
Info: PARTICLE MESH EWALD (PME) ACTIVE
Info: PME TOLERANCE               1e-06
Info: PME EWALD COEFFICIENT       0.348832
Info: PME INTERPOLATION ORDER     4
Info: PME GRID DIMENSIONS         40 36 36
Info: PME MAXIMUM GRID SPACING    1
Info: FULL ELECTROSTATIC EVALUATION FREQUENCY      2
Info: USING VERLET I (r-RESPA) MTS SCHEME.
Info: C1 SPLITTING OF LONG RANGE ELECTROSTATICS
Info: PLACING ATOMS IN PATCHES BY HYDROGEN GROUPS
Info: RIGID BONDS TO HYDROGEN : ALL
Info:         ERROR TOLERANCE : 1e-08
Info:          MAX ITERATIONS : 100
Info: RIGID WATER USING SETTLE ALGORITHM
Info: RANDOM NUMBER SEED     1743672958
Info: USE HYDROGEN BONDS?    NO
Info: Using AMBER format force field!
Info: AMBER PARM FILE        mobley_1952272.prmtop
Info: COORDINATE PDB         mobley_1952272.pdb
Info: Exclusions will be read from PARM file!
Info: SCNB (VDW SCALING)     2
Info: USING ARITHMETIC MEAN TO COMBINE L-J SIGMA PARAMETERS
Info: BINARY COORDINATES     mobley_1952272_min.coor
Info: SUMMARY OF PARAMETERS:
Info: 5 BONDS
Info: 4 ANGLES
Info:   4 HARMONIC
Info:   0 COSINE-BASED
Info: 1 DIHEDRAL
Info: 0 IMPROPER
Info: 0 CROSSTERM
Info: 0 VDW
Info: 21 VDW_PAIRS
Info: 0 NBTHOLE_PAIRS
Info: STRUCTURE SUMMARY:
Info: 2983 ATOMS
Info: 2982 BONDS
Info: 9 ANGLES
Info: 6 DIHEDRALS
Info: 0 IMPROPERS
Info: 0 CROSSTERMS
Info: 2997 EXCLUSIONS
Info: 7 FIXED ATOMS
Info: 2979 RIGID BONDS
Info: 3 RIGID BONDS BETWEEN FIXED ATOMS
Info: 5952 DEGREES OF FREEDOM
Info: 996 HYDROGEN GROUPS
Info: 4 ATOMS IN LARGEST HYDROGEN GROUP
Info: 996 MIGRATION GROUPS
Info: 4 ATOMS IN LARGEST MIGRATION GROUP
Info: 4 HYDROGEN GROUPS WITH ALL ATOMS FIXED
Info: TOTAL MASS = 17932.9 amu
Info: TOTAL CHARGE = 9.99793e-05 e
Info: MASS DENSITY = 0.6567 g/cm^3
Info: ATOM DENSITY = 0.0657824 atoms/A^3
Info: ADDED 0 IMPLICIT EXCLUSIONS
Info: NONBONDED TABLE R-SQUARED SPACING: 0.0625
Info: NONBONDED TABLE SIZE: 705 POINTS
Info: REMOVING COM VELOCITY -0.0150064 0.0987145 -0.122222
TCL: Running for 100000 steps
ETITLE: TS BOND ANGLE DIHED IMPRP ELECT VDW BOUNDARY MISC KINETIC TOTAL TEMP POTENTIAL TOTAL3 TEMPAVG PRESSURE GPRESSURE VOLUME PRESSAVG GPRESSAVG
ENERGY: 0 0.0000 0.0000 0.0000 0.0000 -13917.4832 2476.0101 0.0000 0.0000 1757.0857 -9684.3874 297.1121 -11441.4730 -9684.0500 297.1121 619.0376 656.0782 45346.4539 619.0376 656.0782
ENERGY: 100000 0.0000 0.0000 0.0000 0.0000 -14299.0577 2432.6637 0.0000 0.0000 176.9201 -11689.4739 29.9161 -11866.3940 -11689.0020 30.9025 -624.5574 -568.8520 30132.7175 3.2539 3.2682
TCL: Running 100000 steps at 60 kelvin.
TCL: Setting parameter langevinTemp to 60
TCL: Running for 100000 steps
ETITLE: TS BOND ANGLE DIHED IMPRP ELECT VDW BOUNDARY MISC KINETIC TOTAL TEMP POTENTIAL TOTAL3 TEMPAVG PRESSURE GPRESSURE VOLUME PRESSAVG GPRESSAVG
ENERGY: 100000 0.0000 0.0000 0.0000 0.0000 -14299.0577 2432.6637 0.0000 0.0000 176.8316 -11689.5624 29.9011 -11866.3940 -11689.1501 29.9011 -607.3121 -568.7993 30132.7175 -607.3121 -568.7993
ENERGY: 200000 0.0000 0.0000 0.0000 0.0000 -14343.6203 2529.1654 0.0000 0.0000 355.8299 -11458.6249 60.1686 -11814.4548 -11457.5132 59.9053 430.6969 491.4841 29488.0199 5.3947 5.3641
TCL: Running 100000 steps at 90 kelvin.
TCL: Setting parameter langevinTemp to 90
TCL: Running for 100000 steps
ETITLE: TS BOND ANGLE DIHED IMPRP ELECT VDW BOUNDARY MISC KINETIC TOTAL TEMP POTENTIAL TOTAL3 TEMPAVG PRESSURE GPRESSURE VOLUME PRESSAVG GPRESSAVG
ENERGY: 200000 0.0000 0.0000 0.0000 0.0000 -14343.6203 2529.1654 0.0000 0.0000 355.6551 -11458.7997 60.1390 -11814.4548 -11458.0152 60.1390 435.1342 491.8285 29488.0199 435.1342 491.8285
ENERGY: 300000 0.0000 0.0000 0.0000 0.0000 -14220.3635 2478.4799 0.0000 0.0000 523.8087 -11218.0749 88.5728 -11741.8836 -11216.9588 90.1685 512.2578 557.6133 29139.9219 4.9337 4.9029
TCL: Running 100000 steps at 120 kelvin.
TCL: Setting parameter langevinTemp to 120
TCL: Running for 100000 steps
ETITLE: TS BOND ANGLE DIHED IMPRP ELECT VDW BOUNDARY MISC KINETIC TOTAL TEMP POTENTIAL TOTAL3 TEMPAVG PRESSURE GPRESSURE VOLUME PRESSAVG GPRESSAVG
ENERGY: 300000 0.0000 0.0000 0.0000 0.0000 -14220.3635 2478.4799 0.0000 0.0000 523.5464 -11218.3372 88.5284 -11741.8836 -11217.3407 88.5284 514.2921 557.0651 29139.9219 514.2921 557.0651
ENERGY: 400000 0.0000 0.0000 0.0000 0.0000 -13971.7798 2364.9120 0.0000 0.0000 697.8227 -10909.0451 117.9974 -11606.8678 -10907.1937 119.8799 -162.3394 -122.6421 29595.0605 3.5649 3.6495
TCL: Running 100000 steps at 150 kelvin.
TCL: Setting parameter langevinTemp to 150
TCL: Running for 100000 steps
ETITLE: TS BOND ANGLE DIHED IMPRP ELECT VDW BOUNDARY MISC KINETIC TOTAL TEMP POTENTIAL TOTAL3 TEMPAVG PRESSURE GPRESSURE VOLUME PRESSAVG GPRESSAVG
ENERGY: 400000 0.0000 0.0000 0.0000 0.0000 -13971.7798 2364.9120 0.0000 0.0000 697.4659 -10909.4019 117.9371 -11606.8678 -10908.2175 117.9371 -174.9728 -122.0634 29595.0605 -174.9728 -122.0634
ENERGY: 500000 0.0000 0.0000 0.0000 0.0000 -13628.0141 2205.0142 0.0000 0.0000 876.3792 -10546.6206 148.1902 -11422.9998 -10544.1936 149.8823 -506.5386 -451.0270 29233.0489 2.8989 2.8321
TCL: Running 100000 steps at 180 kelvin.
TCL: Setting parameter langevinTemp to 180
TCL: Running for 100000 steps
ETITLE: TS BOND ANGLE DIHED IMPRP ELECT VDW BOUNDARY MISC KINETIC TOTAL TEMP POTENTIAL TOTAL3 TEMPAVG PRESSURE GPRESSURE VOLUME PRESSAVG GPRESSAVG
ENERGY: 500000 0.0000 0.0000 0.0000 0.0000 -13628.0141 2205.0142 0.0000 0.0000 875.9350 -10547.0648 148.1151 -11422.9998 -10545.3906 148.1151 -520.5323 -450.8489 29233.0489 -520.5323 -450.8489
ENERGY: 600000 0.0000 0.0000 0.0000 0.0000 -13288.6351 2196.8272 0.0000 0.0000 1072.4585 -10019.3494 181.3460 -11091.8079 -10017.4705 180.2515 545.9778 584.4755 29276.1789 2.6882 2.7729
TCL: Running 100000 steps at 210 kelvin.
TCL: Setting parameter langevinTemp to 210
TCL: Running for 100000 steps
ETITLE: TS BOND ANGLE DIHED IMPRP ELECT VDW BOUNDARY MISC KINETIC TOTAL TEMP POTENTIAL TOTAL3 TEMPAVG PRESSURE GPRESSURE VOLUME PRESSAVG GPRESSAVG
ENERGY: 600000 0.0000 0.0000 0.0000 0.0000 -13288.6351 2196.8272 0.0000 0.0000 1071.9432 -10019.8647 181.2589 -11091.8079 -10017.6504 181.2589 526.4318 583.9891 29276.1789 526.4318 583.9891
ENERGY: 700000 0.0000 0.0000 0.0000 0.0000 -12506.0053 1874.8663 0.0000 0.0000 1268.3314 -9362.8076 214.4669 -10631.1390 -9358.5058 209.9346 -141.1643 -76.9843 28949.4363 3.9891 3.8963
TCL: Running 100000 steps at 240 kelvin.
TCL: Setting parameter langevinTemp to 240
TCL: Running for 100000 steps
ETITLE: TS BOND ANGLE DIHED IMPRP ELECT VDW BOUNDARY MISC KINETIC TOTAL TEMP POTENTIAL TOTAL3 TEMPAVG PRESSURE GPRESSURE VOLUME PRESSAVG GPRESSAVG
ENERGY: 700000 0.0000 0.0000 0.0000 0.0000 -12506.0053 1874.8663 0.0000 0.0000 1267.6829 -9363.4561 214.3572 -10631.1390 -9361.1896 214.3572 -137.9983 -77.7778 28949.4363 -137.9983 -77.7778
ENERGY: 800000 0.0000 0.0000 0.0000 0.0000 -11987.7782 1782.2045 0.0000 0.0000 1431.9449 -8773.6287 242.1329 -10205.5736 -8772.5904 240.1457 329.2981 430.8093 29437.4953 3.7717 3.8101
TCL: Running 100000 steps at 270 kelvin.
TCL: Setting parameter langevinTemp to 270
TCL: Running for 100000 steps
ETITLE: TS BOND ANGLE DIHED IMPRP ELECT VDW BOUNDARY MISC KINETIC TOTAL TEMP POTENTIAL TOTAL3 TEMPAVG PRESSURE GPRESSURE VOLUME PRESSAVG GPRESSAVG
ENERGY: 800000 0.0000 0.0000 0.0000 0.0000 -11987.7782 1782.2045 0.0000 0.0000 1431.2387 -8774.3349 242.0135 -10205.5736 -8772.3013 242.0135 341.1083 429.0240 29437.4953 341.1083 429.0240
ENERGY: 900000 0.0000 0.0000 0.0000 0.0000 -11516.9618 1674.0889 0.0000 0.0000 1590.6242 -8252.2488 268.9645 -9842.8729 -8246.8954 270.0770 561.0455 591.7869 29888.3673 6.0013 5.8633
TCL: Running 1000000 steps at 300 kelvin.
TCL: Setting parameter langevinTemp to 300
TCL: Running for 1000000 steps
ETITLE: TS BOND ANGLE DIHED IMPRP ELECT VDW BOUNDARY MISC KINETIC TOTAL TEMP POTENTIAL TOTAL3 TEMPAVG PRESSURE GPRESSURE VOLUME PRESSAVG GPRESSAVG
ENERGY: 900000 0.0000 0.0000 0.0000 0.0000 -11516.9618 1674.0889 0.0000 0.0000 1589.8591 -8253.0139 268.8352 -9842.8729 -8251.5679 268.8352 508.6320 594.8775 29888.3673 508.6320 594.8775
ENERGY: 1100000 0.0000 0.0000 0.0000 0.0000 -11037.1634 1540.6777 0.0000 0.0000 1723.3453 -7773.1404 291.4069 -9496.4857 -7770.1309 301.0394 187.6527 314.1635 30703.1995 3.4219 3.3169
ENERGY: 1300000 0.0000 0.0000 0.0000 0.0000 -11006.3316 1541.8321 0.0000 0.0000 1750.7682 -7713.7313 296.0439 -9464.4995 -7711.8908 300.1604 452.6932 436.4648 30972.1814 3.5013 3.6326
ENERGY: 1500000 0.0000 0.0000 0.0000 0.0000 -10812.4115 1455.2449 0.0000 0.0000 1785.6034 -7571.5632 301.9343 -9357.1665 -7569.9815 300.4702 15.9568 87.2650 30628.6140 2.6486 2.6682
ENERGY: 1700000 0.0000 0.0000 0.0000 0.0000 -10837.3209 1426.5069 0.0000 0.0000 1764.3278 -7646.4862 298.3367 -9410.8140 -7643.4071 300.4074 -217.6891 -93.5284 30397.4999 3.7384 3.5546
ENERGY: 1900000 0.0000 0.0000 0.0000 0.0000 -10940.3252 1501.1895 0.0000 0.0000 1706.6015 -7732.5343 288.5756 -9439.1357 -7728.0174 299.7231 298.3036 427.5812 30325.7837 3.9511 4.0602
TCL: Exiting due to exit command.
