Info: SIMULATION PARAMETERS:
Info: TIMESTEP               2
Info: NUMBER OF STEPS        0
Info: STEPS PER CYCLE        10
Info: PERIODIC CELL BASIS 1  35.89 0 0
Info: PERIODIC CELL BASIS 2  0 34.1 0
Info: PERIODIC CELL BASIS 3  0 0 36.199
Info: PERIODIC CELL CENTER   0 0 0
Info: WRAPPING WATERS AROUND PERIODIC BOUNDARIES ON OUTPUT.
Info: WRAPPING ALL CLUSTERS AROUND PERIODIC BOUNDARIES ON OUTPUT.
Info: FIRST LDB TIMESTEP     50
Info: LAST LDB TIMESTEP     -1
Info: HOM BACKGROUND SCALING 1
Info: PME BACKGROUND SCALING 1
Info: MIN ATOMS PER PATCH    40
Info: EMPTY PATCH LOAD       40 ATOMS
Info: INITIAL TEMPERATURE    300
Info: CENTER OF MASS MOVING INITIALLY? NO
Info: DIELECTRIC             1
Info: EXCLUDE                SCALED ONE-FOUR
Info: 1-4 ELECTROSTATICS SCALED BY 0.833333
Info: MODIFIED 1-4 VDW PARAMETERS WILL BE USED
Info: DCD FILENAME           mobley_5759258_equil.dcd
Info: DCD FREQUENCY          100000
Info: DCD FIRST STEP         100000
Info: DCD FILE WILL CONTAIN UNIT CELL DATA
Info: XST FILENAME           mobley_5759258_equil.xst
Info: XST FREQUENCY          100000
Info: NO VELOCITY DCD OUTPUT
Info: NO FORCE DCD OUTPUT
Info: OUTPUT FILENAME        mobley_5759258_equil
Info: BINARY OUTPUT FILES WILL BE USED
Info: RESTART FILENAME       mobley_5759258_equil.restart
Info: RESTART FREQUENCY      100000
Info: BINARY RESTART FILES WILL BE USED
Info: CUTOFF                 9
Info: PAIRLIST DISTANCE      11
Info: PAIRLIST SHRINK RATE   0.01
Info: PAIRLIST GROW RATE     0.01
Info: PAIRLIST TRIGGER       0.3
Info: PAIRLISTS PER CYCLE    2
Info: PAIRLISTS ENABLED
Info: MARGIN                 8
Info: HYDROGEN GROUP CUTOFF  2.5
Info: PATCH DIMENSION        21.5
Info: ENERGY OUTPUT STEPS    100000
Info: ENERGY EVALUATION STEPS    100000
Info: OUTPUT ENERGY PRECISION 4
Info: CROSSTERM ENERGY INCLUDED IN DIHEDRAL
Info: TIMING OUTPUT STEPS    1000000
Info: PRESSURE OUTPUT STEPS  100000
Info: LANGEVIN DYNAMICS ACTIVE
Info: LANGEVIN TEMPERATURE   30
Info: LANGEVIN USING BBK INTEGRATOR
Info: LANGEVIN DAMPING COEFFICIENT IS 1 INVERSE PS
Info: LANGEVIN DYNAMICS APPLIED TO HYDROGENS
Info: LANGEVIN PISTON PRESSURE CONTROL ACTIVE
Info:        TARGET PRESSURE IS 1.01325 BAR
Info:     OSCILLATION PERIOD IS 50 FS
Info:             DECAY TIME IS 25 FS
Info:     PISTON TEMPERATURE IS 300 K
Info:       PRESSURE CONTROL IS GROUP-BASED
Info:    INITIAL STRAIN RATE IS 0 0 0
Info:       CELL FLUCTUATION IS ISOTROPIC
Info: PARTICLE MESH EWALD (PME) ACTIVE
Info: PME TOLERANCE               1e-06
Info: PME EWALD COEFFICIENT       0.348832
Info: PME INTERPOLATION ORDER     4
Info: PME GRID DIMENSIONS         36 36 40
Info: PME MAXIMUM GRID SPACING    1
Info: FULL ELECTROSTATIC EVALUATION FREQUENCY      2
Info: USING VERLET I (r-RESPA) MTS SCHEME.
Info: C1 SPLITTING OF LONG RANGE ELECTROSTATICS
Info: PLACING ATOMS IN PATCHES BY HYDROGEN GROUPS
Info: RIGID BONDS TO HYDROGEN : ALL
Info:         ERROR TOLERANCE : 1e-08
Info:          MAX ITERATIONS : 100
Info: RIGID WATER USING SETTLE ALGORITHM
Info: RANDOM NUMBER SEED     1743251494
Info: USE HYDROGEN BONDS?    NO
Info: Using AMBER format force field!
Info: AMBER PARM FILE        mobley_5759258.prmtop
Info: COORDINATE PDB         mobley_5759258.pdb
Info: Exclusions will be read from PARM file!
Info: SCNB (VDW SCALING)     2
Info: USING ARITHMETIC MEAN TO COMBINE L-J SIGMA PARAMETERS
Info: BINARY COORDINATES     mobley_5759258_min.coor
Info: SUMMARY OF PARAMETERS:
Info: 7 BONDS
Info: 8 ANGLES
Info:   8 HARMONIC
Info:   0 COSINE-BASED
Info: 9 DIHEDRAL
Info: 0 IMPROPER
Info: 0 CROSSTERM
Info: 0 VDW
Info: 21 VDW_PAIRS
Info: 0 NBTHOLE_PAIRS
Info: STRUCTURE SUMMARY:
Info: 2958 ATOMS
Info: 2957 BONDS
Info: 31 ANGLES
Info: 46 DIHEDRALS
Info: 0 IMPROPERS
Info: 0 CROSSTERMS
Info: 3027 EXCLUSIONS
Info: 2952 RIGID BONDS
Info: 5922 DEGREES OF FREEDOM
Info: 986 HYDROGEN GROUPS
Info: 4 ATOMS IN LARGEST HYDROGEN GROUP
Info: 986 MIGRATION GROUPS
Info: 4 ATOMS IN LARGEST MIGRATION GROUP
Info: TOTAL MASS = 17743.8 amu
Info: TOTAL CHARGE = -0.00010002 e
Info: MASS DENSITY = 0.665093 g/cm^3
Info: ATOM DENSITY = 0.0667688 atoms/A^3
Info: ADDED 0 IMPLICIT EXCLUSIONS
Info: NONBONDED TABLE R-SQUARED SPACING: 0.0625
Info: NONBONDED TABLE SIZE: 705 POINTS
Info: REMOVING COM VELOCITY -0.11929 0.104458 -0.078199
TCL: Running for 100000 steps
ETITLE: TS BOND ANGLE DIHED IMPRP ELECT VDW BOUNDARY MISC KINETIC TOTAL TEMP POTENTIAL TOTAL3 TEMPAVG PRESSURE GPRESSURE VOLUME PRESSAVG GPRESSAVG
ENERGY: 0 0.0475 0.1254 1.5991 0.0000 -13692.4046 2395.1995 0.0000 0.0000 1792.7046 -9502.7284 304.6707 -11295.4330 -9502.4069 304.6707 338.8292 384.9804 44302.1100 338.8292 384.9804
ENERGY: 100000 0.3570 1.2719 2.0338 0.0000 -14125.2800 2351.3526 0.0000 0.0000 175.5006 -11594.7642 29.8264 -11770.2648 -11594.2636 30.9271 -1230.6102 -1161.7809 28829.7088 4.4265 4.4098
TCL: Running 100000 steps at 60 kelvin.
TCL: Setting parameter langevinTemp to 60
TCL: Running for 100000 steps
ETITLE: TS BOND ANGLE DIHED IMPRP ELECT VDW BOUNDARY MISC KINETIC TOTAL TEMP POTENTIAL TOTAL3 TEMPAVG PRESSURE GPRESSURE VOLUME PRESSAVG GPRESSAVG
ENERGY: 100000 0.3570 1.2719 2.0338 0.0000 -14125.2800 2351.3526 0.0000 0.0000 175.4124 -11594.8524 29.8114 -11770.2648 -11594.4177 29.8114 -1220.1261 -1161.9480 28829.7088 -1220.1261 -1161.9480
ENERGY: 200000 0.1413 1.5388 2.8979 0.0000 -14190.1163 2478.5468 0.0000 0.0000 343.8442 -11363.1474 58.4364 -11706.9915 -11361.8773 59.7915 483.0806 527.1508 28199.9926 4.6642 4.5846
TCL: Running 100000 steps at 90 kelvin.
TCL: Setting parameter langevinTemp to 90
TCL: Running for 100000 steps
ETITLE: TS BOND ANGLE DIHED IMPRP ELECT VDW BOUNDARY MISC KINETIC TOTAL TEMP POTENTIAL TOTAL3 TEMPAVG PRESSURE GPRESSURE VOLUME PRESSAVG GPRESSAVG
ENERGY: 200000 0.1413 1.5388 2.8979 0.0000 -14190.1163 2478.5468 0.0000 0.0000 343.6693 -11363.3222 58.4067 -11706.9915 -11362.7563 58.4067 471.5888 527.5390 28199.9926 471.5888 527.5390
ENERGY: 300000 0.1553 2.4505 2.5328 0.0000 -13953.9950 2338.9007 0.0000 0.0000 529.5738 -11080.3818 90.0012 -11609.9556 -11078.8462 89.9260 -404.2740 -360.2832 28486.0017 4.7534 4.8010
TCL: Running 100000 steps at 120 kelvin.
TCL: Setting parameter langevinTemp to 120
TCL: Running for 100000 steps
ETITLE: TS BOND ANGLE DIHED IMPRP ELECT VDW BOUNDARY MISC KINETIC TOTAL TEMP POTENTIAL TOTAL3 TEMPAVG PRESSURE GPRESSURE VOLUME PRESSAVG GPRESSAVG
ENERGY: 300000 0.1553 2.4505 2.5328 0.0000 -13953.9950 2338.9007 0.0000 0.0000 529.2999 -11080.6557 89.9547 -11609.9556 -11079.3330 89.9547 -407.1340 -359.6116 28486.0017 -407.1340 -359.6116
ENERGY: 400000 0.4640 3.2276 3.0221 0.0000 -13837.6104 2312.0214 0.0000 0.0000 724.2636 -10794.6117 123.0888 -11518.8753 -10792.4853 120.0832 -466.3701 -474.7198 28865.6037 3.3017 3.4008
TCL: Running 100000 steps at 150 kelvin.
TCL: Setting parameter langevinTemp to 150
TCL: Running for 100000 steps
ETITLE: TS BOND ANGLE DIHED IMPRP ELECT VDW BOUNDARY MISC KINETIC TOTAL TEMP POTENTIAL TOTAL3 TEMPAVG PRESSURE GPRESSURE VOLUME PRESSAVG GPRESSAVG
ENERGY: 400000 0.4640 3.2276 3.0221 0.0000 -13837.6104 2312.0214 0.0000 0.0000 723.9212 -10794.9541 123.0306 -11518.8753 -10793.5373 123.0306 -520.4139 -473.4476 28865.6037 -520.4139 -473.4476
ENERGY: 500000 1.4024 4.2442 3.0844 0.0000 -13577.0453 2269.8665 0.0000 0.0000 889.6734 -10408.7745 151.2003 -11298.4478 -10406.1474 150.3406 -114.2477 -21.4938 29001.9221 4.0331 4.1358
TCL: Running 100000 steps at 180 kelvin.
TCL: Setting parameter langevinTemp to 180
TCL: Running for 100000 steps
ETITLE: TS BOND ANGLE DIHED IMPRP ELECT VDW BOUNDARY MISC KINETIC TOTAL TEMP POTENTIAL TOTAL3 TEMPAVG PRESSURE GPRESSURE VOLUME PRESSAVG GPRESSAVG
ENERGY: 500000 1.4024 4.2442 3.0844 0.0000 -13577.0453 2269.8665 0.0000 0.0000 889.2594 -10409.1884 151.1299 -11298.4478 -10407.2638 151.1299 -81.6390 -21.5442 29001.9221 -81.6390 -21.5442
ENERGY: 600000 1.0877 3.8814 2.4339 0.0000 -13147.2555 2122.1930 0.0000 0.0000 1059.0231 -9958.6364 179.9813 -11017.6594 -9955.8607 179.5859 114.5636 102.4193 28634.8537 2.1082 2.0717
TCL: Running 100000 steps at 210 kelvin.
TCL: Setting parameter langevinTemp to 210
TCL: Running for 100000 steps
ETITLE: TS BOND ANGLE DIHED IMPRP ELECT VDW BOUNDARY MISC KINETIC TOTAL TEMP POTENTIAL TOTAL3 TEMPAVG PRESSURE GPRESSURE VOLUME PRESSAVG GPRESSAVG
ENERGY: 600000 1.0877 3.8814 2.4339 0.0000 -13147.2555 2122.1930 0.0000 0.0000 1058.4948 -9959.1646 179.8915 -11017.6594 -9956.8800 179.8915 53.4892 103.5282 28634.8537 53.4892 103.5282
ENERGY: 700000 0.7438 9.0215 2.3236 0.0000 -12448.7494 1885.6384 0.0000 0.0000 1232.8080 -9318.2142 209.5161 -10551.0221 -9314.8662 210.3322 -107.4559 35.9128 28772.4552 3.3775 3.3715
TCL: Running 100000 steps at 240 kelvin.
TCL: Setting parameter langevinTemp to 240
TCL: Running for 100000 steps
ETITLE: TS BOND ANGLE DIHED IMPRP ELECT VDW BOUNDARY MISC KINETIC TOTAL TEMP POTENTIAL TOTAL3 TEMPAVG PRESSURE GPRESSURE VOLUME PRESSAVG GPRESSAVG
ENERGY: 700000 0.7438 9.0215 2.3236 0.0000 -12448.7494 1885.6384 0.0000 0.0000 1232.2041 -9318.8180 209.4135 -10551.0221 -9317.0950 209.4135 -57.5695 37.8152 28772.4552 -57.5695 37.8152
ENERGY: 800000 2.0378 6.2141 3.6237 0.0000 -11796.3401 1734.8094 0.0000 0.0000 1377.2575 -8672.3976 234.0653 -10049.6551 -8671.2205 239.5452 347.3546 476.9879 28748.6779 3.7572 3.9097
TCL: Running 100000 steps at 270 kelvin.
TCL: Setting parameter langevinTemp to 270
TCL: Running for 100000 steps
ETITLE: TS BOND ANGLE DIHED IMPRP ELECT VDW BOUNDARY MISC KINETIC TOTAL TEMP POTENTIAL TOTAL3 TEMPAVG PRESSURE GPRESSURE VOLUME PRESSAVG GPRESSAVG
ENERGY: 800000 2.0378 6.2141 3.6237 0.0000 -11796.3401 1734.8094 0.0000 0.0000 1376.5863 -8673.0688 233.9513 -10049.6551 -8670.9551 233.9513 386.3332 474.7466 28748.6779 386.3332 474.7466
ENERGY: 900000 0.9912 7.5017 2.2422 0.0000 -11150.2740 1543.7735 0.0000 0.0000 1607.9828 -7987.7826 273.2772 -9595.7654 -7982.7972 269.9690 8.8160 49.5916 29711.2425 4.3388 4.2594
TCL: Running 1000000 steps at 300 kelvin.
TCL: Setting parameter langevinTemp to 300
TCL: Running for 1000000 steps
ETITLE: TS BOND ANGLE DIHED IMPRP ELECT VDW BOUNDARY MISC KINETIC TOTAL TEMP POTENTIAL TOTAL3 TEMPAVG PRESSURE GPRESSURE VOLUME PRESSAVG GPRESSAVG
ENERGY: 900000 0.9912 7.5017 2.2422 0.0000 -11150.2740 1543.7735 0.0000 0.0000 1607.1864 -7988.5790 273.1418 -9595.7654 -7985.6625 273.1418 -45.8045 49.5207 29711.2425 -45.8045 49.5207
ENERGY: 1100000 1.2751 5.7152 3.5446 0.0000 -10643.9736 1430.4898 0.0000 0.0000 1703.0063 -7499.9427 289.4265 -9202.9490 -7497.3940 300.2159 -281.0090 -261.5780 31224.0892 2.6860 2.8120
ENERGY: 1300000 0.7627 8.7376 3.0523 0.0000 -10721.0771 1435.3087 0.0000 0.0000 1740.6005 -7532.6153 295.8156 -9273.2158 -7529.1040 300.2618 66.6343 174.8366 30105.5222 3.4658 3.5347
ENERGY: 1500000 2.1131 6.8986 4.6399 0.0000 -10694.3629 1436.7160 0.0000 0.0000 1721.3889 -7522.6063 292.5506 -9243.9952 -7518.7044 300.6526 -138.1398 14.5890 30462.0341 3.0696 2.8614
ENERGY: 1700000 0.9179 5.1177 2.5134 0.0000 -10677.5782 1396.8008 0.0000 0.0000 1805.8770 -7466.3515 306.9094 -9272.2285 -7463.5516 300.2621 -421.0364 -390.0542 30690.5267 2.3705 2.0890
ENERGY: 1900000 1.5028 4.8966 2.9303 0.0000 -10707.3143 1413.7860 0.0000 0.0000 1729.6439 -7554.5547 293.9535 -9284.1986 -7551.8997 300.1957 -171.1449 -66.8953 30238.6738 3.5748 3.4566
TCL: Exiting due to exit command.
