Info: SIMULATION PARAMETERS:
Info: TIMESTEP               2
Info: NUMBER OF STEPS        0
Info: STEPS PER CYCLE        10
Info: PERIODIC CELL BASIS 1  36.005 0 0
Info: PERIODIC CELL BASIS 2  0 34.26 0
Info: PERIODIC CELL BASIS 3  0 0 36.199
Info: PERIODIC CELL CENTER   0 0 0
Info: WRAPPING WATERS AROUND PERIODIC BOUNDARIES ON OUTPUT.
Info: WRAPPING ALL CLUSTERS AROUND PERIODIC BOUNDARIES ON OUTPUT.
Info: FIRST LDB TIMESTEP     50
Info: LAST LDB TIMESTEP     -1
Info: HOM BACKGROUND SCALING 1
Info: PME BACKGROUND SCALING 1
Info: MIN ATOMS PER PATCH    40
Info: EMPTY PATCH LOAD       40 ATOMS
Info: INITIAL TEMPERATURE    300
Info: CENTER OF MASS MOVING INITIALLY? NO
Info: DIELECTRIC             1
Info: EXCLUDE                SCALED ONE-FOUR
Info: 1-4 ELECTROSTATICS SCALED BY 0.833333
Info: MODIFIED 1-4 VDW PARAMETERS WILL BE USED
Info: DCD FILENAME           mobley_7708038_equil.dcd
Info: DCD FREQUENCY          100000
Info: DCD FIRST STEP         100000
Info: DCD FILE WILL CONTAIN UNIT CELL DATA
Info: XST FILENAME           mobley_7708038_equil.xst
Info: XST FREQUENCY          100000
Info: NO VELOCITY DCD OUTPUT
Info: NO FORCE DCD OUTPUT
Info: OUTPUT FILENAME        mobley_7708038_equil
Info: BINARY OUTPUT FILES WILL BE USED
Info: RESTART FILENAME       mobley_7708038_equil.restart
Info: RESTART FREQUENCY      100000
Info: BINARY RESTART FILES WILL BE USED
Info: CUTOFF                 9
Info: PAIRLIST DISTANCE      11
Info: PAIRLIST SHRINK RATE   0.01
Info: PAIRLIST GROW RATE     0.01
Info: PAIRLIST TRIGGER       0.3
Info: PAIRLISTS PER CYCLE    2
Info: PAIRLISTS ENABLED
Info: MARGIN                 8
Info: HYDROGEN GROUP CUTOFF  2.5
Info: PATCH DIMENSION        21.5
Info: ENERGY OUTPUT STEPS    100000
Info: ENERGY EVALUATION STEPS    100000
Info: OUTPUT ENERGY PRECISION 4
Info: CROSSTERM ENERGY INCLUDED IN DIHEDRAL
Info: TIMING OUTPUT STEPS    1000000
Info: PRESSURE OUTPUT STEPS  100000
Info: LANGEVIN DYNAMICS ACTIVE
Info: LANGEVIN TEMPERATURE   30
Info: LANGEVIN USING BBK INTEGRATOR
Info: LANGEVIN DAMPING COEFFICIENT IS 1 INVERSE PS
Info: LANGEVIN DYNAMICS APPLIED TO HYDROGENS
Info: LANGEVIN PISTON PRESSURE CONTROL ACTIVE
Info:        TARGET PRESSURE IS 1.01325 BAR
Info:     OSCILLATION PERIOD IS 50 FS
Info:             DECAY TIME IS 25 FS
Info:     PISTON TEMPERATURE IS 300 K
Info:       PRESSURE CONTROL IS GROUP-BASED
Info:    INITIAL STRAIN RATE IS 0 0 0
Info:       CELL FLUCTUATION IS ISOTROPIC
Info: PARTICLE MESH EWALD (PME) ACTIVE
Info: PME TOLERANCE               1e-06
Info: PME EWALD COEFFICIENT       0.348832
Info: PME INTERPOLATION ORDER     4
Info: PME GRID DIMENSIONS         40 36 40
Info: PME MAXIMUM GRID SPACING    1
Info: FULL ELECTROSTATIC EVALUATION FREQUENCY      2
Info: USING VERLET I (r-RESPA) MTS SCHEME.
Info: C1 SPLITTING OF LONG RANGE ELECTROSTATICS
Info: PLACING ATOMS IN PATCHES BY HYDROGEN GROUPS
Info: RIGID BONDS TO HYDROGEN : ALL
Info:         ERROR TOLERANCE : 1e-08
Info:          MAX ITERATIONS : 100
Info: RIGID WATER USING SETTLE ALGORITHM
Info: RANDOM NUMBER SEED     1743225315
Info: USE HYDROGEN BONDS?    NO
Info: Using AMBER format force field!
Info: AMBER PARM FILE        mobley_7708038.prmtop
Info: COORDINATE PDB         mobley_7708038.pdb
Info: Exclusions will be read from PARM file!
Info: SCNB (VDW SCALING)     2
Info: USING ARITHMETIC MEAN TO COMBINE L-J SIGMA PARAMETERS
Info: BINARY COORDINATES     mobley_7708038_min.coor
Info: SUMMARY OF PARAMETERS:
Info: 6 BONDS
Info: 7 ANGLES
Info: 5 DIHEDRAL
Info: 0 IMPROPER
Info: 0 CROSSTERM
Info: 0 VDW
Info: 21 VDW_PAIRS
Info: 0 NBTHOLE_PAIRS
Info: STRUCTURE SUMMARY:
Info: 2951 ATOMS
Info: 2950 BONDS
Info: 18 ANGLES
Info: 20 DIHEDRALS
Info: 0 IMPROPERS
Info: 0 CROSSTERMS
Info: 2986 EXCLUSIONS
Info: 2947 RIGID BONDS
Info: 5906 DEGREES OF FREEDOM
Info: 984 HYDROGEN GROUPS
Info: 4 ATOMS IN LARGEST HYDROGEN GROUP
Info: 984 MIGRATION GROUPS
Info: 4 ATOMS IN LARGEST MIGRATION GROUP
Info: TOTAL MASS = 17778.7 amu
Info: TOTAL CHARGE = 0.000100004 e
Info: MASS DENSITY = 0.661168 g/cm^3
Info: ATOM DENSITY = 0.066088 atoms/A^3
Info: ADDED 0 IMPLICIT EXCLUSIONS
Info: NONBONDED TABLE R-SQUARED SPACING: 0.0625
Info: NONBONDED TABLE SIZE: 705 POINTS
Info: REMOVING COM VELOCITY 0.0592106 -0.278893 0.055556
TCL: Running for 100000 steps
ETITLE: TS BOND ANGLE DIHED IMPRP ELECT VDW BOUNDARY MISC KINETIC TOTAL TEMP POTENTIAL TOTAL3 TEMPAVG PRESSURE GPRESSURE VOLUME PRESSAVG GPRESSAVG
ENERGY: 0 0.0110 0.2507 1.6864 0.0000 -13656.7429 2442.7149 0.0000 0.0000 1833.3616 -9378.7183 312.4245 -11212.0800 -9378.3671 312.4245 679.1700 712.8767 44652.5995 679.1700 712.8767
ENERGY: 100000 0.1230 1.3205 1.8538 0.0000 -14205.8644 2473.1010 0.0000 0.0000 178.1857 -11551.2803 30.3648 -11729.4661 -11550.9213 30.8947 -8.1165 49.2696 29390.9359 5.1064 5.1129
TCL: Running 100000 steps at 60 kelvin.
TCL: Setting parameter langevinTemp to 60
TCL: Running for 100000 steps
ETITLE: TS BOND ANGLE DIHED IMPRP ELECT VDW BOUNDARY MISC KINETIC TOTAL TEMP POTENTIAL TOTAL3 TEMPAVG PRESSURE GPRESSURE VOLUME PRESSAVG GPRESSAVG
ENERGY: 100000 0.1230 1.3205 1.8538 0.0000 -14205.8644 2473.1010 0.0000 0.0000 178.0964 -11551.3697 30.3495 -11729.4661 -11551.0243 30.3495 -3.6298 49.1446 29390.9359 -3.6298 49.1446
ENERGY: 200000 0.3146 1.0664 1.9376 0.0000 -14121.6845 2440.7201 0.0000 0.0000 343.9150 -11333.7308 58.6068 -11677.6458 -11333.2348 59.7851 198.3093 241.2170 28686.1711 4.3223 4.4150
TCL: Running 100000 steps at 90 kelvin.
TCL: Setting parameter langevinTemp to 90
TCL: Running for 100000 steps
ETITLE: TS BOND ANGLE DIHED IMPRP ELECT VDW BOUNDARY MISC KINETIC TOTAL TEMP POTENTIAL TOTAL3 TEMPAVG PRESSURE GPRESSURE VOLUME PRESSAVG GPRESSAVG
ENERGY: 200000 0.3146 1.0664 1.9376 0.0000 -14121.6845 2440.7201 0.0000 0.0000 343.7372 -11333.9086 58.5765 -11677.6458 -11333.2609 58.5765 187.3257 240.9312 28686.1711 187.3257 240.9312
ENERGY: 300000 0.1024 1.3068 2.0155 0.0000 -13942.6151 2369.3088 0.0000 0.0000 529.0104 -11040.8712 90.1491 -11569.8816 -11040.1171 89.8918 -55.7187 -9.4170 28854.4945 2.1851 2.1969
TCL: Running 100000 steps at 120 kelvin.
TCL: Setting parameter langevinTemp to 120
TCL: Running for 100000 steps
ETITLE: TS BOND ANGLE DIHED IMPRP ELECT VDW BOUNDARY MISC KINETIC TOTAL TEMP POTENTIAL TOTAL3 TEMPAVG PRESSURE GPRESSURE VOLUME PRESSAVG GPRESSAVG
ENERGY: 300000 0.1024 1.3068 2.0155 0.0000 -13942.6151 2369.3088 0.0000 0.0000 528.7373 -11041.1443 90.1025 -11569.8816 -11040.0748 90.1025 -81.9262 -9.7096 28854.4945 -81.9262 -9.7096
ENERGY: 400000 0.0776 2.1914 2.2622 0.0000 -13660.4350 2244.6445 0.0000 0.0000 699.2130 -10712.0462 119.1534 -11411.2593 -10710.3583 120.1419 -587.8745 -509.8732 29139.8566 4.1982 4.3652
TCL: Running 100000 steps at 150 kelvin.
TCL: Setting parameter langevinTemp to 150
TCL: Running for 100000 steps
ETITLE: TS BOND ANGLE DIHED IMPRP ELECT VDW BOUNDARY MISC KINETIC TOTAL TEMP POTENTIAL TOTAL3 TEMPAVG PRESSURE GPRESSURE VOLUME PRESSAVG GPRESSAVG
ENERGY: 400000 0.0776 2.1914 2.2622 0.0000 -13660.4350 2244.6445 0.0000 0.0000 698.8701 -10712.3892 119.0950 -11411.2592 -10711.0896 119.0950 -579.4425 -510.2033 29139.8566 -579.4425 -510.2033
ENERGY: 500000 0.3714 2.0613 1.9397 0.0000 -13544.5121 2246.4328 0.0000 0.0000 879.6539 -10414.0530 149.9025 -11293.7069 -10410.6328 150.0875 -268.2336 -207.3859 29136.4198 3.4772 3.2059
TCL: Running 100000 steps at 180 kelvin.
TCL: Setting parameter langevinTemp to 180
TCL: Running for 100000 steps
ETITLE: TS BOND ANGLE DIHED IMPRP ELECT VDW BOUNDARY MISC KINETIC TOTAL TEMP POTENTIAL TOTAL3 TEMPAVG PRESSURE GPRESSURE VOLUME PRESSAVG GPRESSAVG
ENERGY: 500000 0.3714 2.0613 1.9397 0.0000 -13544.5121 2246.4328 0.0000 0.0000 879.2066 -10414.5002 149.8262 -11293.7069 -10412.6561 149.8262 -247.7260 -207.2165 29136.4198 -247.7260 -207.2165
ENERGY: 600000 0.1370 4.0276 1.8193 0.0000 -13186.9088 2162.8110 0.0000 0.0000 1043.1287 -9974.9852 177.7603 -11018.1139 -9973.5816 179.9945 284.5018 298.4879 28835.8809 3.7830 3.7678
TCL: Running 100000 steps at 210 kelvin.
TCL: Setting parameter langevinTemp to 210
TCL: Running for 100000 steps
ETITLE: TS BOND ANGLE DIHED IMPRP ELECT VDW BOUNDARY MISC KINETIC TOTAL TEMP POTENTIAL TOTAL3 TEMPAVG PRESSURE GPRESSURE VOLUME PRESSAVG GPRESSAVG
ENERGY: 600000 0.1370 4.0276 1.8193 0.0000 -13186.9088 2162.8110 0.0000 0.0000 1042.5840 -9975.5299 177.6675 -11018.1139 -9973.4381 177.6675 228.9189 298.5069 28835.8809 228.9189 298.5069
ENERGY: 700000 1.8953 4.9552 0.9059 0.0000 -12356.6451 1833.1437 0.0000 0.0000 1249.3834 -9266.3616 212.9083 -10515.7451 -9265.1092 209.9613 -405.8073 -304.9508 28759.8083 4.9310 4.8770
TCL: Running 100000 steps at 240 kelvin.
TCL: Setting parameter langevinTemp to 240
TCL: Running for 100000 steps
ETITLE: TS BOND ANGLE DIHED IMPRP ELECT VDW BOUNDARY MISC KINETIC TOTAL TEMP POTENTIAL TOTAL3 TEMPAVG PRESSURE GPRESSURE VOLUME PRESSAVG GPRESSAVG
ENERGY: 700000 1.8953 4.9552 0.9059 0.0000 -12356.6451 1833.1437 0.0000 0.0000 1248.7747 -9266.9704 212.8046 -10515.7451 -9264.5945 212.8046 -387.7640 -308.6702 28759.8083 -387.7640 -308.6702
ENERGY: 800000 2.7568 3.5128 2.1333 0.0000 -11956.7775 1838.0661 0.0000 0.0000 1429.9318 -8680.3766 243.6757 -10110.3084 -8677.2225 240.1718 995.9216 1121.3537 28709.3458 3.7533 3.5023
TCL: Running 100000 steps at 270 kelvin.
TCL: Setting parameter langevinTemp to 270
TCL: Running for 100000 steps
ETITLE: TS BOND ANGLE DIHED IMPRP ELECT VDW BOUNDARY MISC KINETIC TOTAL TEMP POTENTIAL TOTAL3 TEMPAVG PRESSURE GPRESSURE VOLUME PRESSAVG GPRESSAVG
ENERGY: 800000 2.7568 3.5128 2.1333 0.0000 -11956.7775 1838.0661 0.0000 0.0000 1429.2207 -8681.0877 243.5545 -10110.3084 -8678.9174 243.5545 1058.0551 1121.5098 28709.3458 1058.0551 1121.5098
ENERGY: 900000 0.6971 3.4023 1.8754 0.0000 -11198.8312 1521.3598 0.0000 0.0000 1589.2000 -8082.2966 270.8167 -9671.4966 -8077.4388 269.3966 -592.3499 -480.3349 30023.8648 3.8737 3.8368
TCL: Running 1000000 steps at 300 kelvin.
TCL: Setting parameter langevinTemp to 300
TCL: Running for 1000000 steps
ETITLE: TS BOND ANGLE DIHED IMPRP ELECT VDW BOUNDARY MISC KINETIC TOTAL TEMP POTENTIAL TOTAL3 TEMPAVG PRESSURE GPRESSURE VOLUME PRESSAVG GPRESSAVG
ENERGY: 900000 0.6971 3.4023 1.8754 0.0000 -11198.8312 1521.3598 0.0000 0.0000 1588.3472 -8083.1494 270.6714 -9671.4966 -8081.3075 270.6714 -566.6986 -479.6337 30023.8648 -566.6986 -479.6337
ENERGY: 1100000 0.4086 3.5166 1.5743 0.0000 -10717.9857 1401.8152 0.0000 0.0000 1772.8180 -7537.8530 302.1072 -9310.6710 -7534.5764 299.9102 -229.0248 -185.4781 30063.1359 2.9873 2.8362
ENERGY: 1300000 1.3434 4.9045 3.1320 0.0000 -10730.1396 1481.6252 0.0000 0.0000 1799.7106 -7439.4239 306.6900 -9239.1344 -7436.3936 299.9900 364.0207 445.6966 30285.3109 4.2900 4.1652
ENERGY: 1500000 0.2741 3.7061 1.8464 0.0000 -10446.0075 1269.4314 0.0000 0.0000 1761.3006 -7409.4489 300.1445 -9170.7495 -7404.9320 300.0856 -1138.4804 -1070.6253 30871.7501 1.2856 1.1217
ENERGY: 1700000 1.3136 8.5812 1.4819 0.0000 -10749.0664 1415.6760 0.0000 0.0000 1736.5202 -7585.4934 295.9217 -9322.0137 -7577.2300 300.8070 -510.9676 -466.6503 30357.3094 2.3496 2.2101
ENERGY: 1900000 2.1412 5.8927 2.8494 0.0000 -10765.8677 1482.9897 0.0000 0.0000 1807.4488 -7464.5458 308.0087 -9271.9946 -7462.4994 299.7772 310.5380 378.3786 30437.3497 2.4870 2.6745
TCL: Exiting due to exit command.
