Info: SIMULATION PARAMETERS:
Info: TIMESTEP               2
Info: NUMBER OF STEPS        0
Info: STEPS PER CYCLE        10
Info: PERIODIC CELL BASIS 1  36.281 0 0
Info: PERIODIC CELL BASIS 2  0 34.26 0
Info: PERIODIC CELL BASIS 3  0 0 35.897
Info: PERIODIC CELL CENTER   0 0 0
Info: WRAPPING WATERS AROUND PERIODIC BOUNDARIES ON OUTPUT.
Info: WRAPPING ALL CLUSTERS AROUND PERIODIC BOUNDARIES ON OUTPUT.
Info: FIRST LDB TIMESTEP     50
Info: LAST LDB TIMESTEP     -1
Info: HOM BACKGROUND SCALING 1
Info: PME BACKGROUND SCALING 1
Info: MIN ATOMS PER PATCH    40
Info: EMPTY PATCH LOAD       40 ATOMS
Info: INITIAL TEMPERATURE    300
Info: CENTER OF MASS MOVING INITIALLY? NO
Info: DIELECTRIC             1
Info: EXCLUDE                SCALED ONE-FOUR
Info: 1-4 ELECTROSTATICS SCALED BY 0.833333
Info: MODIFIED 1-4 VDW PARAMETERS WILL BE USED
Info: DCD FILENAME           mobley_1987439_equil.dcd
Info: DCD FREQUENCY          100000
Info: DCD FIRST STEP         100000
Info: DCD FILE WILL CONTAIN UNIT CELL DATA
Info: XST FILENAME           mobley_1987439_equil.xst
Info: XST FREQUENCY          100000
Info: NO VELOCITY DCD OUTPUT
Info: NO FORCE DCD OUTPUT
Info: OUTPUT FILENAME        mobley_1987439_equil
Info: BINARY OUTPUT FILES WILL BE USED
Info: RESTART FILENAME       mobley_1987439_equil.restart
Info: RESTART FREQUENCY      100000
Info: BINARY RESTART FILES WILL BE USED
Info: CUTOFF                 9
Info: PAIRLIST DISTANCE      11
Info: PAIRLIST SHRINK RATE   0.01
Info: PAIRLIST GROW RATE     0.01
Info: PAIRLIST TRIGGER       0.3
Info: PAIRLISTS PER CYCLE    2
Info: PAIRLISTS ENABLED
Info: MARGIN                 8
Info: HYDROGEN GROUP CUTOFF  2.5
Info: PATCH DIMENSION        21.5
Info: ENERGY OUTPUT STEPS    100000
Info: ENERGY EVALUATION STEPS    100000
Info: OUTPUT ENERGY PRECISION 4
Info: CROSSTERM ENERGY INCLUDED IN DIHEDRAL
Info: TIMING OUTPUT STEPS    1000000
Info: PRESSURE OUTPUT STEPS  100000
Info: LANGEVIN DYNAMICS ACTIVE
Info: LANGEVIN TEMPERATURE   30
Info: LANGEVIN USING BBK INTEGRATOR
Info: LANGEVIN DAMPING COEFFICIENT IS 1 INVERSE PS
Info: LANGEVIN DYNAMICS APPLIED TO HYDROGENS
Info: LANGEVIN PISTON PRESSURE CONTROL ACTIVE
Info:        TARGET PRESSURE IS 1.01325 BAR
Info:     OSCILLATION PERIOD IS 50 FS
Info:             DECAY TIME IS 25 FS
Info:     PISTON TEMPERATURE IS 300 K
Info:       PRESSURE CONTROL IS GROUP-BASED
Info:    INITIAL STRAIN RATE IS 0 0 0
Info:       CELL FLUCTUATION IS ISOTROPIC
Info: PARTICLE MESH EWALD (PME) ACTIVE
Info: PME TOLERANCE               1e-06
Info: PME EWALD COEFFICIENT       0.348832
Info: PME INTERPOLATION ORDER     4
Info: PME GRID DIMENSIONS         40 36 36
Info: PME MAXIMUM GRID SPACING    1
Info: FULL ELECTROSTATIC EVALUATION FREQUENCY      2
Info: USING VERLET I (r-RESPA) MTS SCHEME.
Info: C1 SPLITTING OF LONG RANGE ELECTROSTATICS
Info: PLACING ATOMS IN PATCHES BY HYDROGEN GROUPS
Info: RIGID BONDS TO HYDROGEN : ALL
Info:         ERROR TOLERANCE : 1e-08
Info:          MAX ITERATIONS : 100
Info: RIGID WATER USING SETTLE ALGORITHM
Info: RANDOM NUMBER SEED     1743218373
Info: USE HYDROGEN BONDS?    NO
Info: Using AMBER format force field!
Info: AMBER PARM FILE        mobley_1987439.prmtop
Info: COORDINATE PDB         mobley_1987439.pdb
Info: Exclusions will be read from PARM file!
Info: SCNB (VDW SCALING)     2
Info: USING ARITHMETIC MEAN TO COMBINE L-J SIGMA PARAMETERS
Info: BINARY COORDINATES     mobley_1987439_min.coor
Info: SUMMARY OF PARAMETERS:
Info: 6 BONDS
Info: 5 ANGLES
Info:   5 HARMONIC
Info:   0 COSINE-BASED
Info: 3 DIHEDRAL
Info: 0 IMPROPER
Info: 0 CROSSTERM
Info: 0 VDW
Info: 21 VDW_PAIRS
Info: 0 NBTHOLE_PAIRS
Info: STRUCTURE SUMMARY:
Info: 2958 ATOMS
Info: 2958 BONDS
Info: 36 ANGLES
Info: 48 DIHEDRALS
Info: 0 IMPROPERS
Info: 0 CROSSTERMS
Info: 3033 EXCLUSIONS
Info: 2949 RIGID BONDS
Info: 5925 DEGREES OF FREEDOM
Info: 988 HYDROGEN GROUPS
Info: 4 ATOMS IN LARGEST HYDROGEN GROUP
Info: 988 MIGRATION GROUPS
Info: 4 ATOMS IN LARGEST MIGRATION GROUP
Info: TOTAL MASS = 17757.9 amu
Info: TOTAL CHARGE = 0.000400022 e
Info: MASS DENSITY = 0.660883 g/cm^3
Info: ATOM DENSITY = 0.0662939 atoms/A^3
Info: ADDED 0 IMPLICIT EXCLUSIONS
Info: NONBONDED TABLE R-SQUARED SPACING: 0.0625
Info: NONBONDED TABLE SIZE: 705 POINTS
Info: REMOVING COM VELOCITY -0.177072 0.324221 0.0906211
TCL: Running for 100000 steps
ETITLE: TS BOND ANGLE DIHED IMPRP ELECT VDW BOUNDARY MISC KINETIC TOTAL TEMP POTENTIAL TOTAL3 TEMPAVG PRESSURE GPRESSURE VOLUME PRESSAVG GPRESSAVG
ENERGY: 0 0.1741 0.1604 0.0120 0.0000 -13635.0088 2379.6309 0.0000 0.0000 1753.7913 -9501.2400 297.9065 -11255.0313 -9500.9156 297.9065 204.2547 237.0006 44619.5065 204.2547 237.0006
ENERGY: 100000 0.5784 1.0587 0.2204 0.0000 -14173.4940 2395.4025 0.0000 0.0000 176.2513 -11599.9826 29.9388 -11776.2339 -11599.7033 30.9305 -568.1489 -527.3679 28382.1356 2.2449 2.2994
TCL: Running 100000 steps at 60 kelvin.
TCL: Setting parameter langevinTemp to 60
TCL: Running for 100000 steps
ETITLE: TS BOND ANGLE DIHED IMPRP ELECT VDW BOUNDARY MISC KINETIC TOTAL TEMP POTENTIAL TOTAL3 TEMPAVG PRESSURE GPRESSURE VOLUME PRESSAVG GPRESSAVG
ENERGY: 100000 0.5784 1.0587 0.2204 0.0000 -14173.4940 2395.4025 0.0000 0.0000 176.1651 -11600.0688 29.9241 -11776.2339 -11599.6643 29.9241 -581.5956 -527.7275 28382.1356 -581.5956 -527.7275
ENERGY: 200000 0.5131 1.5931 0.5098 0.0000 -14039.9987 2334.5713 0.0000 0.0000 350.2614 -11352.5499 59.4969 -11702.8113 -11351.8370 59.8916 -782.2145 -696.5549 28495.0711 3.4725 3.4782
TCL: Running 100000 steps at 90 kelvin.
TCL: Setting parameter langevinTemp to 90
TCL: Running for 100000 steps
ETITLE: TS BOND ANGLE DIHED IMPRP ELECT VDW BOUNDARY MISC KINETIC TOTAL TEMP POTENTIAL TOTAL3 TEMPAVG PRESSURE GPRESSURE VOLUME PRESSAVG GPRESSAVG
ENERGY: 200000 0.5131 1.5931 0.5098 0.0000 -14039.9987 2334.5713 0.0000 0.0000 350.0845 -11352.7269 59.4668 -11702.8113 -11351.9548 59.4668 -759.4007 -696.5380 28495.0711 -759.4007 -696.5380
ENERGY: 300000 0.9229 2.8051 0.6966 0.0000 -13999.7876 2418.2512 0.0000 0.0000 537.1267 -11039.9853 91.2386 -11577.1120 -11038.3761 90.0855 533.5887 603.1013 28292.9797 4.5440 4.5244
TCL: Running 100000 steps at 120 kelvin.
TCL: Setting parameter langevinTemp to 120
TCL: Running for 100000 steps
ETITLE: TS BOND ANGLE DIHED IMPRP ELECT VDW BOUNDARY MISC KINETIC TOTAL TEMP POTENTIAL TOTAL3 TEMPAVG PRESSURE GPRESSURE VOLUME PRESSAVG GPRESSAVG
ENERGY: 300000 0.9229 2.8051 0.6966 0.0000 -13999.7876 2418.2512 0.0000 0.0000 536.8789 -11040.2331 91.1965 -11577.1120 -11039.2301 91.1965 560.3970 604.0332 28292.9797 560.3970 604.0332
ENERGY: 400000 1.2916 2.8074 1.0092 0.0000 -13723.8324 2270.0452 0.0000 0.0000 714.8411 -10733.8379 121.4260 -11448.6791 -10731.3928 120.1507 -586.2853 -509.6397 28925.4290 3.1702 3.1414
TCL: Running 100000 steps at 150 kelvin.
TCL: Setting parameter langevinTemp to 150
TCL: Running for 100000 steps
ETITLE: TS BOND ANGLE DIHED IMPRP ELECT VDW BOUNDARY MISC KINETIC TOTAL TEMP POTENTIAL TOTAL3 TEMPAVG PRESSURE GPRESSURE VOLUME PRESSAVG GPRESSAVG
ENERGY: 400000 1.2916 2.8074 1.0092 0.0000 -13723.8324 2270.0452 0.0000 0.0000 714.5051 -10734.1740 121.3689 -11448.6791 -10732.5772 121.3689 -569.8800 -509.3677 28925.4290 -569.8800 -509.3677
ENERGY: 500000 2.8334 2.1893 2.4050 0.0000 -13469.7000 2205.5766 0.0000 0.0000 872.1711 -10384.5246 148.1507 -11256.6957 -10383.1661 150.0405 -276.6270 -204.0383 28771.6248 3.0671 3.1077
TCL: Running 100000 steps at 180 kelvin.
TCL: Setting parameter langevinTemp to 180
TCL: Running for 100000 steps
ETITLE: TS BOND ANGLE DIHED IMPRP ELECT VDW BOUNDARY MISC KINETIC TOTAL TEMP POTENTIAL TOTAL3 TEMPAVG PRESSURE GPRESSURE VOLUME PRESSAVG GPRESSAVG
ENERGY: 500000 2.8334 2.1893 2.4050 0.0000 -13469.7000 2205.5766 0.0000 0.0000 871.7307 -10384.9650 148.0759 -11256.6957 -10383.1840 148.0759 -266.3553 -204.3127 28771.6248 -266.3553 -204.3127
ENERGY: 600000 1.8959 3.5619 3.0496 0.0000 -13076.1130 2079.5284 0.0000 0.0000 1031.1063 -9956.9709 175.1481 -10988.0772 -9952.7875 179.7461 -99.0323 -36.4862 28584.4866 4.6779 4.7353
TCL: Running 100000 steps at 210 kelvin.
TCL: Setting parameter langevinTemp to 210
TCL: Running for 100000 steps
ETITLE: TS BOND ANGLE DIHED IMPRP ELECT VDW BOUNDARY MISC KINETIC TOTAL TEMP POTENTIAL TOTAL3 TEMPAVG PRESSURE GPRESSURE VOLUME PRESSAVG GPRESSAVG
ENERGY: 600000 1.8959 3.5619 3.0496 0.0000 -13076.1130 2079.5284 0.0000 0.0000 1030.5902 -9957.4870 175.0604 -10988.0772 -9955.5054 175.0604 -88.3852 -35.2684 28584.4866 -88.3852 -35.2684
ENERGY: 700000 2.0271 6.7667 3.5696 0.0000 -12343.5108 1883.6182 0.0000 0.0000 1226.0803 -9221.4488 208.2672 -10447.5291 -9219.6775 209.8871 214.7674 163.3373 28771.5344 3.4976 3.4782
TCL: Running 100000 steps at 240 kelvin.
TCL: Setting parameter langevinTemp to 240
TCL: Running for 100000 steps
ETITLE: TS BOND ANGLE DIHED IMPRP ELECT VDW BOUNDARY MISC KINETIC TOTAL TEMP POTENTIAL TOTAL3 TEMPAVG PRESSURE GPRESSURE VOLUME PRESSAVG GPRESSAVG
ENERGY: 700000 2.0271 6.7667 3.5696 0.0000 -12343.5108 1883.6182 0.0000 0.0000 1225.4786 -9222.0505 208.1650 -10447.5291 -9220.2418 208.1650 80.0318 162.4902 28771.5344 80.0318 162.4902
ENERGY: 800000 1.3406 5.9146 2.1735 0.0000 -11797.2901 1724.2159 0.0000 0.0000 1394.2449 -8669.4006 236.8324 -10063.6455 -8664.8815 240.0244 -86.8435 -36.7987 29300.7637 4.0835 3.8716
TCL: Running 100000 steps at 270 kelvin.
TCL: Setting parameter langevinTemp to 270
TCL: Running for 100000 steps
ETITLE: TS BOND ANGLE DIHED IMPRP ELECT VDW BOUNDARY MISC KINETIC TOTAL TEMP POTENTIAL TOTAL3 TEMPAVG PRESSURE GPRESSURE VOLUME PRESSAVG GPRESSAVG
ENERGY: 800000 1.3406 5.9146 2.1735 0.0000 -11797.2901 1724.2159 0.0000 0.0000 1393.5797 -8670.0658 236.7194 -10063.6455 -8667.0414 236.7194 -123.5880 -36.9829 29300.7637 -123.5880 -36.9829
ENERGY: 900000 1.1618 7.0068 5.8695 0.0000 -11187.4345 1578.3241 0.0000 0.0000 1597.9824 -7997.0899 271.4401 -9595.0723 -7992.6085 269.3285 397.8615 411.5246 29468.5066 1.8814 1.9198
TCL: Running 1000000 steps at 300 kelvin.
TCL: Setting parameter langevinTemp to 300
TCL: Running for 1000000 steps
ETITLE: TS BOND ANGLE DIHED IMPRP ELECT VDW BOUNDARY MISC KINETIC TOTAL TEMP POTENTIAL TOTAL3 TEMPAVG PRESSURE GPRESSURE VOLUME PRESSAVG GPRESSAVG
ENERGY: 900000 1.1618 7.0068 5.8695 0.0000 -11187.4345 1578.3241 0.0000 0.0000 1597.1952 -7997.8771 271.3064 -9595.0723 -7995.5063 271.3064 322.5471 413.6398 29468.5066 322.5471 413.6398
ENERGY: 1100000 3.5051 5.3226 1.8584 0.0000 -10696.2198 1478.3237 0.0000 0.0000 1725.2802 -7481.9297 293.0635 -9207.2099 -7479.0736 300.2310 326.9039 443.5413 30615.3878 3.4622 3.5754
ENERGY: 1300000 1.4296 14.6072 1.6178 0.0000 -10690.8666 1463.8451 0.0000 0.0000 1792.9743 -7416.3926 304.5623 -9209.3669 -7413.9337 300.3373 372.8412 479.9641 30287.7536 3.5358 3.4240
ENERGY: 1500000 0.3460 11.5830 4.6588 0.0000 -10749.1017 1500.8291 0.0000 0.0000 1767.9163 -7463.7684 300.3058 -9231.6847 -7460.8836 299.9890 549.6729 731.1519 30216.3716 2.8159 2.6564
ENERGY: 1700000 6.3642 11.6668 1.5296 0.0000 -10694.5244 1381.1135 0.0000 0.0000 1787.2993 -7506.5511 303.5983 -9293.8503 -7500.9057 300.4780 -810.4848 -699.9110 30685.3725 4.0602 4.1295
ENERGY: 1900000 2.2748 6.6833 2.2055 0.0000 -10486.6832 1315.2119 0.0000 0.0000 1729.9261 -7430.3816 293.8526 -9160.3077 -7423.2675 300.1038 -777.7577 -697.5003 30943.3762 3.9816 3.9233
TCL: Exiting due to exit command.
