Info: SIMULATION PARAMETERS:
Info: TIMESTEP               2
Info: NUMBER OF STEPS        0
Info: STEPS PER CYCLE        10
Info: PERIODIC CELL BASIS 1  36.005 0 0
Info: PERIODIC CELL BASIS 2  0 34.1 0
Info: PERIODIC CELL BASIS 3  0 0 35.897
Info: PERIODIC CELL CENTER   0 0 0
Info: WRAPPING WATERS AROUND PERIODIC BOUNDARIES ON OUTPUT.
Info: WRAPPING ALL CLUSTERS AROUND PERIODIC BOUNDARIES ON OUTPUT.
Info: FIRST LDB TIMESTEP     50
Info: LAST LDB TIMESTEP     -1
Info: HOM BACKGROUND SCALING 1
Info: PME BACKGROUND SCALING 1
Info: MIN ATOMS PER PATCH    40
Info: EMPTY PATCH LOAD       40 ATOMS
Info: INITIAL TEMPERATURE    300
Info: CENTER OF MASS MOVING INITIALLY? NO
Info: DIELECTRIC             1
Info: EXCLUDE                SCALED ONE-FOUR
Info: 1-4 ELECTROSTATICS SCALED BY 0.833333
Info: MODIFIED 1-4 VDW PARAMETERS WILL BE USED
Info: DCD FILENAME           mobley_2689721_equil.dcd
Info: DCD FREQUENCY          100000
Info: DCD FIRST STEP         100000
Info: DCD FILE WILL CONTAIN UNIT CELL DATA
Info: XST FILENAME           mobley_2689721_equil.xst
Info: XST FREQUENCY          100000
Info: NO VELOCITY DCD OUTPUT
Info: NO FORCE DCD OUTPUT
Info: OUTPUT FILENAME        mobley_2689721_equil
Info: BINARY OUTPUT FILES WILL BE USED
Info: RESTART FILENAME       mobley_2689721_equil.restart
Info: RESTART FREQUENCY      100000
Info: BINARY RESTART FILES WILL BE USED
Info: CUTOFF                 9
Info: PAIRLIST DISTANCE      11
Info: PAIRLIST SHRINK RATE   0.01
Info: PAIRLIST GROW RATE     0.01
Info: PAIRLIST TRIGGER       0.3
Info: PAIRLISTS PER CYCLE    2
Info: PAIRLISTS ENABLED
Info: MARGIN                 8
Info: HYDROGEN GROUP CUTOFF  2.5
Info: PATCH DIMENSION        21.5
Info: ENERGY OUTPUT STEPS    100000
Info: ENERGY EVALUATION STEPS    100000
Info: OUTPUT ENERGY PRECISION 4
Info: CROSSTERM ENERGY INCLUDED IN DIHEDRAL
Info: TIMING OUTPUT STEPS    1000000
Info: PRESSURE OUTPUT STEPS  100000
Info: LANGEVIN DYNAMICS ACTIVE
Info: LANGEVIN TEMPERATURE   30
Info: LANGEVIN USING BBK INTEGRATOR
Info: LANGEVIN DAMPING COEFFICIENT IS 1 INVERSE PS
Info: LANGEVIN DYNAMICS APPLIED TO HYDROGENS
Info: LANGEVIN PISTON PRESSURE CONTROL ACTIVE
Info:        TARGET PRESSURE IS 1.01325 BAR
Info:     OSCILLATION PERIOD IS 50 FS
Info:             DECAY TIME IS 25 FS
Info:     PISTON TEMPERATURE IS 300 K
Info:       PRESSURE CONTROL IS GROUP-BASED
Info:    INITIAL STRAIN RATE IS 0 0 0
Info:       CELL FLUCTUATION IS ISOTROPIC
Info: PARTICLE MESH EWALD (PME) ACTIVE
Info: PME TOLERANCE               1e-06
Info: PME EWALD COEFFICIENT       0.348832
Info: PME INTERPOLATION ORDER     4
Info: PME GRID DIMENSIONS         40 36 36
Info: PME MAXIMUM GRID SPACING    1
Info: FULL ELECTROSTATIC EVALUATION FREQUENCY      2
Info: USING VERLET I (r-RESPA) MTS SCHEME.
Info: C1 SPLITTING OF LONG RANGE ELECTROSTATICS
Info: PLACING ATOMS IN PATCHES BY HYDROGEN GROUPS
Info: RIGID BONDS TO HYDROGEN : ALL
Info:         ERROR TOLERANCE : 1e-08
Info:          MAX ITERATIONS : 100
Info: RIGID WATER USING SETTLE ALGORITHM
Info: RANDOM NUMBER SEED     1743215014
Info: USE HYDROGEN BONDS?    NO
Info: Using AMBER format force field!
Info: AMBER PARM FILE        mobley_2689721.prmtop
Info: COORDINATE PDB         mobley_2689721.pdb
Info: Exclusions will be read from PARM file!
Info: SCNB (VDW SCALING)     2
Info: USING ARITHMETIC MEAN TO COMBINE L-J SIGMA PARAMETERS
Info: BINARY COORDINATES     mobley_2689721_min.coor
Info: SUMMARY OF PARAMETERS:
Info: 4 BONDS
Info: 3 ANGLES
Info:   3 HARMONIC
Info:   0 COSINE-BASED
Info: 5 DIHEDRAL
Info: 0 IMPROPER
Info: 0 CROSSTERM
Info: 0 VDW
Info: 10 VDW_PAIRS
Info: 0 NBTHOLE_PAIRS
Info: STRUCTURE SUMMARY:
Info: 2916 ATOMS
Info: 2916 BONDS
Info: 36 ANGLES
Info: 66 DIHEDRALS
Info: 0 IMPROPERS
Info: 0 CROSSTERMS
Info: 3003 EXCLUSIONS
Info: 2910 RIGID BONDS
Info: 5838 DEGREES OF FREEDOM
Info: 972 HYDROGEN GROUPS
Info: 3 ATOMS IN LARGEST HYDROGEN GROUP
Info: 972 MIGRATION GROUPS
Info: 3 ATOMS IN LARGEST MIGRATION GROUP
Info: TOTAL MASS = 17487.6 amu
Info: TOTAL CHARGE = 0.000499971 e
Info: MASS DENSITY = 0.658892 g/cm^3
Info: ATOM DENSITY = 0.0661625 atoms/A^3
Info: ADDED 0 IMPLICIT EXCLUSIONS
Info: NONBONDED TABLE R-SQUARED SPACING: 0.0625
Info: NONBONDED TABLE SIZE: 705 POINTS
Info: REMOVING COM VELOCITY 0.213573 0.0659026 -0.0312462
TCL: Running for 100000 steps
ETITLE: TS BOND ANGLE DIHED IMPRP ELECT VDW BOUNDARY MISC KINETIC TOTAL TEMP POTENTIAL TOTAL3 TEMPAVG PRESSURE GPRESSURE VOLUME PRESSAVG GPRESSAVG
ENERGY: 0 0.1284 0.1087 2.8423 0.0000 -13459.7639 2378.1422 0.0000 0.0000 1803.1569 -9275.3854 310.8564 -11078.5424 -9275.0261 310.8564 516.8927 551.9568 44073.2776 516.8927 551.9568
ENERGY: 100000 0.2273 1.0192 2.9100 0.0000 -14017.4196 2412.5479 0.0000 0.0000 172.1343 -11428.5810 29.6752 -11600.7153 -11428.1619 30.9265 -344.2968 -284.2833 28598.0473 3.2003 3.1344
TCL: Running 100000 steps at 60 kelvin.
TCL: Setting parameter langevinTemp to 60
TCL: Running for 100000 steps
ETITLE: TS BOND ANGLE DIHED IMPRP ELECT VDW BOUNDARY MISC KINETIC TOTAL TEMP POTENTIAL TOTAL3 TEMPAVG PRESSURE GPRESSURE VOLUME PRESSAVG GPRESSAVG
ENERGY: 100000 0.2273 1.0192 2.9100 0.0000 -14017.4196 2412.5479 0.0000 0.0000 172.0480 -11428.6672 29.6603 -11600.7153 -11428.3199 29.6603 -338.7688 -284.3686 28598.0473 -338.7688 -284.3686
ENERGY: 200000 0.3427 1.9239 2.9126 0.0000 -13838.0446 2307.9690 0.0000 0.0000 348.2821 -11176.6144 60.0423 -11524.8964 -11175.8499 60.0015 -731.4043 -662.7340 28349.9388 4.5436 4.5047
TCL: Running 100000 steps at 90 kelvin.
TCL: Setting parameter langevinTemp to 90
TCL: Running for 100000 steps
ETITLE: TS BOND ANGLE DIHED IMPRP ELECT VDW BOUNDARY MISC KINETIC TOTAL TEMP POTENTIAL TOTAL3 TEMPAVG PRESSURE GPRESSURE VOLUME PRESSAVG GPRESSAVG
ENERGY: 200000 0.3427 1.9239 2.9126 0.0000 -13838.0446 2307.9690 0.0000 0.0000 348.1103 -11176.7861 60.0127 -11524.8964 -11176.0545 60.0127 -720.8291 -662.9850 28349.9388 -720.8291 -662.9850
ENERGY: 300000 0.7694 2.4189 3.0648 0.0000 -13653.8630 2212.5831 0.0000 0.0000 523.2085 -10911.8184 90.1989 -11435.0269 -10911.0459 89.9785 -1006.0564 -967.1398 27997.0503 3.6957 3.6854
TCL: Running 100000 steps at 120 kelvin.
TCL: Setting parameter langevinTemp to 120
TCL: Running for 100000 steps
ETITLE: TS BOND ANGLE DIHED IMPRP ELECT VDW BOUNDARY MISC KINETIC TOTAL TEMP POTENTIAL TOTAL3 TEMPAVG PRESSURE GPRESSURE VOLUME PRESSAVG GPRESSAVG
ENERGY: 300000 0.7694 2.4189 3.0648 0.0000 -13653.8630 2212.5831 0.0000 0.0000 522.9482 -10912.0787 90.1540 -11435.0269 -10910.7894 90.1540 -1018.3342 -967.3956 27997.0503 -1018.3342 -967.3956
ENERGY: 400000 0.8728 4.5132 3.1127 0.0000 -13568.6203 2278.7414 0.0000 0.0000 698.8075 -10582.5726 120.4714 -11281.3801 -10581.3675 119.7300 -73.4853 -32.6211 28098.8054 4.1216 4.0526
TCL: Running 100000 steps at 150 kelvin.
TCL: Setting parameter langevinTemp to 150
TCL: Running for 100000 steps
ETITLE: TS BOND ANGLE DIHED IMPRP ELECT VDW BOUNDARY MISC KINETIC TOTAL TEMP POTENTIAL TOTAL3 TEMPAVG PRESSURE GPRESSURE VOLUME PRESSAVG GPRESSAVG
ENERGY: 400000 0.8728 4.5132 3.1127 0.0000 -13568.6203 2278.7414 0.0000 0.0000 698.4632 -10582.9169 120.4120 -11281.3801 -10581.5323 120.4120 -85.9369 -33.2551 28098.8054 -85.9369 -33.2551
ENERGY: 500000 0.6307 5.4890 3.1893 0.0000 -13340.6046 2216.7351 0.0000 0.0000 877.8679 -10236.6926 151.3406 -11114.5605 -10234.6008 150.2728 -93.0909 -78.5353 28475.3749 4.3871 4.2694
TCL: Running 100000 steps at 180 kelvin.
TCL: Setting parameter langevinTemp to 180
TCL: Running for 100000 steps
ETITLE: TS BOND ANGLE DIHED IMPRP ELECT VDW BOUNDARY MISC KINETIC TOTAL TEMP POTENTIAL TOTAL3 TEMPAVG PRESSURE GPRESSURE VOLUME PRESSAVG GPRESSAVG
ENERGY: 500000 0.6307 5.4890 3.1893 0.0000 -13340.6046 2216.7351 0.0000 0.0000 877.4184 -10237.1422 151.2631 -11114.5605 -10235.6739 151.2631 -141.2311 -77.8621 28475.3749 -141.2311 -77.8621
ENERGY: 600000 1.4861 3.6630 3.4365 0.0000 -12862.8171 2077.4565 0.0000 0.0000 1019.9892 -9756.7859 175.8417 -10776.7751 -9755.1693 179.7842 -79.9997 -10.7358 28574.8261 4.6953 4.8647
TCL: Running 100000 steps at 210 kelvin.
TCL: Setting parameter langevinTemp to 210
TCL: Running for 100000 steps
ETITLE: TS BOND ANGLE DIHED IMPRP ELECT VDW BOUNDARY MISC KINETIC TOTAL TEMP POTENTIAL TOTAL3 TEMPAVG PRESSURE GPRESSURE VOLUME PRESSAVG GPRESSAVG
ENERGY: 600000 1.4861 3.6630 3.4365 0.0000 -12862.8171 2077.4565 0.0000 0.0000 1019.4793 -9757.2958 175.7538 -10776.7751 -9755.2396 175.7538 -72.2978 -13.1017 28574.8261 -72.2978 -13.1017
ENERGY: 700000 1.1019 6.0072 3.6703 0.0000 -12224.9729 1880.6394 0.0000 0.0000 1202.0188 -9131.5353 207.2228 -10333.5541 -9129.6803 210.1929 60.0795 174.7954 28366.3135 2.3394 2.3019
TCL: Running 100000 steps at 240 kelvin.
TCL: Setting parameter langevinTemp to 240
TCL: Running for 100000 steps
ETITLE: TS BOND ANGLE DIHED IMPRP ELECT VDW BOUNDARY MISC KINETIC TOTAL TEMP POTENTIAL TOTAL3 TEMPAVG PRESSURE GPRESSURE VOLUME PRESSAVG GPRESSAVG
ENERGY: 700000 1.1019 6.0072 3.6703 0.0000 -12224.9729 1880.6394 0.0000 0.0000 1201.4080 -9132.1462 207.1175 -10333.5541 -9130.3637 207.1175 108.1578 175.0852 28366.3135 108.1578 175.0852
ENERGY: 800000 1.5009 5.6542 3.0075 0.0000 -11576.4978 1676.5421 0.0000 0.0000 1401.0073 -8488.7857 241.5276 -9889.7930 -8484.7682 240.3887 -102.8898 -42.2493 28882.2390 3.1177 2.9377
TCL: Running 100000 steps at 270 kelvin.
TCL: Setting parameter langevinTemp to 270
TCL: Running for 100000 steps
ETITLE: TS BOND ANGLE DIHED IMPRP ELECT VDW BOUNDARY MISC KINETIC TOTAL TEMP POTENTIAL TOTAL3 TEMPAVG PRESSURE GPRESSURE VOLUME PRESSAVG GPRESSAVG
ENERGY: 800000 1.5009 5.6542 3.0075 0.0000 -11576.4978 1676.5421 0.0000 0.0000 1400.3066 -8489.4864 241.4068 -9889.7930 -8486.7848 241.4068 -116.4325 -43.0666 28882.2390 -116.4325 -43.0666
ENERGY: 900000 0.5071 9.6506 2.7146 0.0000 -11056.1681 1485.6952 0.0000 0.0000 1595.2812 -7962.3194 275.0195 -9557.6006 -7955.8237 269.5680 -422.8703 -296.9906 28925.5534 4.0514 3.8836
TCL: Running 1000000 steps at 300 kelvin.
TCL: Setting parameter langevinTemp to 300
TCL: Running for 1000000 steps
ETITLE: TS BOND ANGLE DIHED IMPRP ELECT VDW BOUNDARY MISC KINETIC TOTAL TEMP POTENTIAL TOTAL3 TEMPAVG PRESSURE GPRESSURE VOLUME PRESSAVG GPRESSAVG
ENERGY: 900000 0.5071 9.6506 2.7146 0.0000 -11056.1681 1485.6952 0.0000 0.0000 1594.5028 -7963.0978 274.8853 -9557.6006 -7960.1426 274.8853 -391.3255 -294.4939 28925.5534 -391.3255 -294.4939
ENERGY: 1100000 1.4158 7.7389 3.1504 0.0000 -10529.7892 1388.5757 0.0000 0.0000 1722.4140 -7406.4945 296.9367 -9128.9085 -7404.6331 299.9139 -122.0787 -77.4578 29898.1832 1.9532 1.7108
ENERGY: 1300000 1.3242 13.3344 3.8249 0.0000 -10610.0527 1420.0113 0.0000 0.0000 1715.4340 -7456.1238 295.7334 -9171.5578 -7452.4365 300.4927 65.8441 111.9052 29423.1514 4.1540 4.1334
ENERGY: 1500000 2.6417 7.1416 3.5835 0.0000 -10497.1094 1400.2652 0.0000 0.0000 1729.7600 -7353.7173 298.2031 -9083.4774 -7348.9716 300.4348 -339.9502 -253.2144 30462.2792 4.3019 4.2715
ENERGY: 1700000 1.4093 6.0074 3.2696 0.0000 -10570.2610 1441.9240 0.0000 0.0000 1781.9078 -7335.7429 307.1931 -9117.6507 -7334.1334 300.3197 175.9381 229.5955 30395.7387 4.6032 4.7013
ENERGY: 1900000 3.3153 7.8407 3.5841 0.0000 -10576.9478 1427.2440 0.0000 0.0000 1702.2794 -7432.6844 293.4656 -9134.9638 -7430.6172 300.1066 118.5259 181.6465 29862.9695 3.4099 3.3563
TCL: Exiting due to exit command.
