Info: SIMULATION PARAMETERS:
Info: TIMESTEP               2
Info: NUMBER OF STEPS        0
Info: STEPS PER CYCLE        10
Info: PERIODIC CELL BASIS 1  34.207 0 0
Info: PERIODIC CELL BASIS 2  0 37.796 0
Info: PERIODIC CELL BASIS 3  0 0 34.933
Info: PERIODIC CELL CENTER   0 0 0
Info: WRAPPING WATERS AROUND PERIODIC BOUNDARIES ON OUTPUT.
Info: WRAPPING ALL CLUSTERS AROUND PERIODIC BOUNDARIES ON OUTPUT.
Info: FIRST LDB TIMESTEP     50
Info: LAST LDB TIMESTEP     -1
Info: HOM BACKGROUND SCALING 1
Info: PME BACKGROUND SCALING 1
Info: MIN ATOMS PER PATCH    40
Info: EMPTY PATCH LOAD       40 ATOMS
Info: INITIAL TEMPERATURE    300
Info: CENTER OF MASS MOVING INITIALLY? NO
Info: DIELECTRIC             1
Info: EXCLUDE                SCALED ONE-FOUR
Info: 1-4 ELECTROSTATICS SCALED BY 0.833333
Info: MODIFIED 1-4 VDW PARAMETERS WILL BE USED
Info: DCD FILENAME           mobley_9121449_equil.dcd
Info: DCD FREQUENCY          100000
Info: DCD FIRST STEP         100000
Info: DCD FILE WILL CONTAIN UNIT CELL DATA
Info: XST FILENAME           mobley_9121449_equil.xst
Info: XST FREQUENCY          100000
Info: NO VELOCITY DCD OUTPUT
Info: NO FORCE DCD OUTPUT
Info: OUTPUT FILENAME        mobley_9121449_equil
Info: BINARY OUTPUT FILES WILL BE USED
Info: RESTART FILENAME       mobley_9121449_equil.restart
Info: RESTART FREQUENCY      100000
Info: BINARY RESTART FILES WILL BE USED
Info: CUTOFF                 9
Info: PAIRLIST DISTANCE      11
Info: PAIRLIST SHRINK RATE   0.01
Info: PAIRLIST GROW RATE     0.01
Info: PAIRLIST TRIGGER       0.3
Info: PAIRLISTS PER CYCLE    2
Info: PAIRLISTS ENABLED
Info: MARGIN                 8
Info: HYDROGEN GROUP CUTOFF  2.5
Info: PATCH DIMENSION        21.5
Info: ENERGY OUTPUT STEPS    100000
Info: ENERGY EVALUATION STEPS    100000
Info: OUTPUT ENERGY PRECISION 4
Info: CROSSTERM ENERGY INCLUDED IN DIHEDRAL
Info: TIMING OUTPUT STEPS    1000000
Info: PRESSURE OUTPUT STEPS  100000
Info: LANGEVIN DYNAMICS ACTIVE
Info: LANGEVIN TEMPERATURE   30
Info: LANGEVIN USING BBK INTEGRATOR
Info: LANGEVIN DAMPING COEFFICIENT IS 1 INVERSE PS
Info: LANGEVIN DYNAMICS APPLIED TO HYDROGENS
Info: LANGEVIN PISTON PRESSURE CONTROL ACTIVE
Info:        TARGET PRESSURE IS 1.01325 BAR
Info:     OSCILLATION PERIOD IS 50 FS
Info:             DECAY TIME IS 25 FS
Info:     PISTON TEMPERATURE IS 300 K
Info:       PRESSURE CONTROL IS GROUP-BASED
Info:    INITIAL STRAIN RATE IS 0 0 0
Info:       CELL FLUCTUATION IS ISOTROPIC
Info: PARTICLE MESH EWALD (PME) ACTIVE
Info: PME TOLERANCE               1e-06
Info: PME EWALD COEFFICIENT       0.348832
Info: PME INTERPOLATION ORDER     4
Info: PME GRID DIMENSIONS         36 40 36
Info: PME MAXIMUM GRID SPACING    1
Info: FULL ELECTROSTATIC EVALUATION FREQUENCY      2
Info: USING VERLET I (r-RESPA) MTS SCHEME.
Info: C1 SPLITTING OF LONG RANGE ELECTROSTATICS
Info: PLACING ATOMS IN PATCHES BY HYDROGEN GROUPS
Info: RIGID BONDS TO HYDROGEN : ALL
Info:         ERROR TOLERANCE : 1e-08
Info:          MAX ITERATIONS : 100
Info: RIGID WATER USING SETTLE ALGORITHM
Info: RANDOM NUMBER SEED     1743161460
Info: USE HYDROGEN BONDS?    NO
Info: Using AMBER format force field!
Info: AMBER PARM FILE        mobley_9121449.prmtop
Info: COORDINATE PDB         mobley_9121449.pdb
Info: Exclusions will be read from PARM file!
Info: SCNB (VDW SCALING)     2
Info: USING ARITHMETIC MEAN TO COMBINE L-J SIGMA PARAMETERS
Info: BINARY COORDINATES     mobley_9121449_min.coor
Info: SUMMARY OF PARAMETERS:
Info: 7 BONDS
Info: 6 ANGLES
Info: 3 DIHEDRAL
Info: 0 IMPROPER
Info: 0 CROSSTERM
Info: 0 VDW
Info: 21 VDW_PAIRS
Info: 0 NBTHOLE_PAIRS
Info: STRUCTURE SUMMARY:
Info: 2956 ATOMS
Info: 2955 BONDS
Info: 14 ANGLES
Info: 13 DIHEDRALS
Info: 0 IMPROPERS
Info: 0 CROSSTERMS
Info: 2982 EXCLUSIONS
Info: 2952 RIGID BONDS
Info: 5916 DEGREES OF FREEDOM
Info: 986 HYDROGEN GROUPS
Info: 4 ATOMS IN LARGEST HYDROGEN GROUP
Info: 986 MIGRATION GROUPS
Info: 4 ATOMS IN LARGEST MIGRATION GROUP
Info: TOTAL MASS = 17745.8 amu
Info: TOTAL CHARGE = 1.16415e-08 e
Info: MASS DENSITY = 0.652466 g/cm^3
Info: ATOM DENSITY = 0.0654497 atoms/A^3
Info: ADDED 0 IMPLICIT EXCLUSIONS
Info: NONBONDED TABLE R-SQUARED SPACING: 0.0625
Info: NONBONDED TABLE SIZE: 705 POINTS
Info: REMOVING COM VELOCITY -0.0681546 -0.00973703 -0.0764655
TCL: Running for 100000 steps
ETITLE: TS BOND ANGLE DIHED IMPRP ELECT VDW BOUNDARY MISC KINETIC TOTAL TEMP POTENTIAL TOTAL3 TEMPAVG PRESSURE GPRESSURE VOLUME PRESSAVG GPRESSAVG
ENERGY: 0 0.0032 0.0643 0.0092 0.0000 -13700.3621 2444.7019 0.0000 0.0000 1748.7941 -9506.7893 297.5095 -11255.5834 -9506.4433 297.5095 617.3047 652.3370 45164.4485 617.3047 652.3370
ENERGY: 100000 0.2146 0.6284 0.0054 0.0000 -14156.3966 2388.8763 0.0000 0.0000 172.1164 -11594.5554 29.2809 -11766.6718 -11594.0268 30.9619 -794.6196 -723.6492 28891.0340 3.5040 3.5058
TCL: Running 100000 steps at 60 kelvin.
TCL: Setting parameter langevinTemp to 60
TCL: Running for 100000 steps
ETITLE: TS BOND ANGLE DIHED IMPRP ELECT VDW BOUNDARY MISC KINETIC TOTAL TEMP POTENTIAL TOTAL3 TEMPAVG PRESSURE GPRESSURE VOLUME PRESSAVG GPRESSAVG
ENERGY: 100000 0.2146 0.6284 0.0054 0.0000 -14156.3966 2388.8763 0.0000 0.0000 172.0253 -11594.6465 29.2654 -11766.6718 -11594.2635 29.2654 -790.0380 -723.4441 28891.0340 -790.0380 -723.4441
ENERGY: 200000 0.1757 1.3463 0.0406 0.0000 -14190.7942 2490.3692 0.0000 0.0000 363.1864 -11335.6760 61.7862 -11698.8624 -11334.6312 59.9665 542.8732 605.2410 28491.6121 4.1888 4.1843
TCL: Running 100000 steps at 90 kelvin.
TCL: Setting parameter langevinTemp to 90
TCL: Running for 100000 steps
ETITLE: TS BOND ANGLE DIHED IMPRP ELECT VDW BOUNDARY MISC KINETIC TOTAL TEMP POTENTIAL TOTAL3 TEMPAVG PRESSURE GPRESSURE VOLUME PRESSAVG GPRESSAVG
ENERGY: 200000 0.1757 1.3463 0.0406 0.0000 -14190.7942 2490.3692 0.0000 0.0000 363.0121 -11335.8503 61.7566 -11698.8624 -11335.1782 61.7566 543.3016 605.4782 28491.6121 543.3016 605.4782
ENERGY: 300000 2.0560 1.3073 0.0235 0.0000 -13843.5081 2237.6144 0.0000 0.0000 535.6884 -11066.8185 91.1327 -11602.5069 -11065.5811 90.3567 -1311.0877 -1268.1905 28941.7436 3.0622 3.1967
TCL: Running 100000 steps at 120 kelvin.
TCL: Setting parameter langevinTemp to 120
TCL: Running for 100000 steps
ETITLE: TS BOND ANGLE DIHED IMPRP ELECT VDW BOUNDARY MISC KINETIC TOTAL TEMP POTENTIAL TOTAL3 TEMPAVG PRESSURE GPRESSURE VOLUME PRESSAVG GPRESSAVG
ENERGY: 300000 2.0560 1.3073 0.0235 0.0000 -13843.5081 2237.6144 0.0000 0.0000 535.4185 -11067.0884 91.0868 -11602.5069 -11065.9133 91.0868 -1320.1912 -1267.6749 28941.7436 -1320.1912 -1267.6749
ENERGY: 400000 0.0999 1.1735 0.1572 0.0000 -13730.0392 2237.9183 0.0000 0.0000 706.3157 -10784.3747 120.1603 -11490.6903 -10782.6263 119.8297 -783.1886 -721.1898 28701.8857 4.2633 4.2530
TCL: Running 100000 steps at 150 kelvin.
TCL: Setting parameter langevinTemp to 150
TCL: Running for 100000 steps
ETITLE: TS BOND ANGLE DIHED IMPRP ELECT VDW BOUNDARY MISC KINETIC TOTAL TEMP POTENTIAL TOTAL3 TEMPAVG PRESSURE GPRESSURE VOLUME PRESSAVG GPRESSAVG
ENERGY: 400000 0.0999 1.1735 0.1572 0.0000 -13730.0392 2237.9183 0.0000 0.0000 705.9611 -10784.7292 120.1000 -11490.6903 -10782.7266 120.1000 -775.8111 -721.0506 28701.8857 -775.8111 -721.0506
ENERGY: 500000 0.9667 1.9211 0.4536 0.0000 -13553.6565 2255.1374 0.0000 0.0000 892.6244 -10402.5534 151.8557 -11295.1778 -10401.1432 150.1602 -243.9880 -221.9752 29247.0728 3.5118 3.3942
TCL: Running 100000 steps at 180 kelvin.
TCL: Setting parameter langevinTemp to 180
TCL: Running for 100000 steps
ETITLE: TS BOND ANGLE DIHED IMPRP ELECT VDW BOUNDARY MISC KINETIC TOTAL TEMP POTENTIAL TOTAL3 TEMPAVG PRESSURE GPRESSURE VOLUME PRESSAVG GPRESSAVG
ENERGY: 500000 0.9667 1.9211 0.4536 0.0000 -13553.6565 2255.1374 0.0000 0.0000 892.1793 -10402.9984 151.7799 -11295.1778 -10401.4430 151.7799 -267.0694 -222.8105 29247.0728 -267.0694 -222.8105
ENERGY: 600000 0.3250 2.3763 0.0107 0.0000 -13156.5831 2086.3445 0.0000 0.0000 1060.4132 -10007.1135 180.4003 -11067.5267 -10004.1925 180.0958 -337.5532 -299.3007 28754.1129 3.7320 3.8297
TCL: Running 100000 steps at 210 kelvin.
TCL: Setting parameter langevinTemp to 210
TCL: Running for 100000 steps
ETITLE: TS BOND ANGLE DIHED IMPRP ELECT VDW BOUNDARY MISC KINETIC TOTAL TEMP POTENTIAL TOTAL3 TEMPAVG PRESSURE GPRESSURE VOLUME PRESSAVG GPRESSAVG
ENERGY: 600000 0.3250 2.3763 0.0107 0.0000 -13156.5831 2086.3445 0.0000 0.0000 1059.9021 -10007.6246 180.3134 -11067.5267 -10005.0550 180.3134 -349.0755 -299.6496 28754.1129 -349.0755 -299.6496
ENERGY: 700000 0.5573 2.2077 0.1251 0.0000 -12496.1057 1961.4991 0.0000 0.0000 1232.8935 -9298.8230 209.7432 -10531.7165 -9296.2685 210.2214 653.2597 733.3704 28675.4879 3.5969 3.6126
TCL: Running 100000 steps at 240 kelvin.
TCL: Setting parameter langevinTemp to 240
TCL: Running for 100000 steps
ETITLE: TS BOND ANGLE DIHED IMPRP ELECT VDW BOUNDARY MISC KINETIC TOTAL TEMP POTENTIAL TOTAL3 TEMPAVG PRESSURE GPRESSURE VOLUME PRESSAVG GPRESSAVG
ENERGY: 700000 0.5573 2.2077 0.1251 0.0000 -12496.1057 1961.4991 0.0000 0.0000 1232.2710 -9299.4455 209.6372 -10531.7165 -9297.6289 209.6372 651.4328 733.6591 28675.4879 651.4328 733.6591
ENERGY: 800000 0.5927 1.9812 0.4722 0.0000 -11673.9504 1623.4777 0.0000 0.0000 1394.1113 -8653.3154 237.1700 -10047.4267 -8649.4203 239.8422 -815.4331 -754.4509 29586.6951 3.8470 3.7717
TCL: Running 100000 steps at 270 kelvin.
TCL: Setting parameter langevinTemp to 270
TCL: Running for 100000 steps
ETITLE: TS BOND ANGLE DIHED IMPRP ELECT VDW BOUNDARY MISC KINETIC TOTAL TEMP POTENTIAL TOTAL3 TEMPAVG PRESSURE GPRESSURE VOLUME PRESSAVG GPRESSAVG
ENERGY: 800000 0.5927 1.9812 0.4722 0.0000 -11673.9504 1623.4777 0.0000 0.0000 1393.3999 -8654.0268 237.0489 -10047.4267 -8651.3118 237.0489 -830.5628 -753.9695 29586.6951 -830.5628 -753.9695
ENERGY: 900000 0.4298 4.0541 0.0950 0.0000 -11322.5953 1600.2955 0.0000 0.0000 1565.2435 -8152.4774 266.2834 -9717.7209 -8148.9520 270.2993 5.6591 36.4024 29754.7176 2.4328 2.3245
TCL: Running 1000000 steps at 300 kelvin.
TCL: Setting parameter langevinTemp to 300
TCL: Running for 1000000 steps
ETITLE: TS BOND ANGLE DIHED IMPRP ELECT VDW BOUNDARY MISC KINETIC TOTAL TEMP POTENTIAL TOTAL3 TEMPAVG PRESSURE GPRESSURE VOLUME PRESSAVG GPRESSAVG
ENERGY: 900000 0.4298 4.0541 0.0950 0.0000 -11322.5953 1600.2955 0.0000 0.0000 1564.4223 -8153.2986 266.1437 -9717.7209 -8150.4474 266.1437 -37.8865 37.4710 29754.7176 -37.8865 37.4710
ENERGY: 1100000 0.7298 2.9641 0.6595 0.0000 -10567.2877 1343.4590 0.0000 0.0000 1829.7993 -7389.6760 311.2904 -9219.4753 -7383.7191 300.4932 -610.9541 -507.9562 30816.1708 3.6949 3.6484
ENERGY: 1300000 0.7081 4.1130 0.0848 0.0000 -10637.4106 1443.3760 0.0000 0.0000 1785.4621 -7403.6665 303.7476 -9189.1286 -7399.0352 300.2950 42.6943 101.7649 31105.3596 3.6661 3.6137
ENERGY: 1500000 1.0117 2.8242 0.0333 0.0000 -10717.5306 1482.8768 0.0000 0.0000 1759.9404 -7470.8442 299.4058 -9230.7846 -7467.3659 299.9584 197.1068 256.9399 30885.5761 3.6722 3.7633
ENERGY: 1700000 0.0147 4.5439 0.0298 0.0000 -10807.7365 1472.0108 0.0000 0.0000 1805.7900 -7525.3474 307.2058 -9331.1374 -7524.4840 300.0952 272.5816 346.9301 30074.8999 3.1487 3.2008
ENERGY: 1900000 0.5272 2.0414 0.0374 0.0000 -10559.7779 1318.8556 0.0000 0.0000 1742.3720 -7495.9442 296.4170 -9238.3162 -7491.8383 300.5813 -785.0977 -736.4304 30399.2640 4.3821 4.2730
TCL: Exiting due to exit command.
