Info: SIMULATION PARAMETERS:
Info: TIMESTEP               2
Info: NUMBER OF STEPS        0
Info: STEPS PER CYCLE        10
Info: PERIODIC CELL BASIS 1  30.8965 0 0
Info: PERIODIC CELL BASIS 2  0 31.2718 0
Info: PERIODIC CELL BASIS 3  0 0 31.4087
Info: PERIODIC CELL CENTER   0 0 0
Info: WRAPPING WATERS AROUND PERIODIC BOUNDARIES ON OUTPUT.
Info: WRAPPING ALL CLUSTERS AROUND PERIODIC BOUNDARIES ON OUTPUT.
Info: FIRST LDB TIMESTEP     50
Info: LAST LDB TIMESTEP     -1
Info: HOM BACKGROUND SCALING 1
Info: PME BACKGROUND SCALING 1
Info: MIN ATOMS PER PATCH    40
Info: EMPTY PATCH LOAD       40 ATOMS
Info: VELOCITY FILE          mobley_676247_equil.vel
Info: CENTER OF MASS MOVING INITIALLY? NO
Info: DIELECTRIC             1
Info: EXCLUDE                SCALED ONE-FOUR
Info: 1-4 ELECTROSTATICS SCALED BY 0.833333
Info: MODIFIED 1-4 VDW PARAMETERS WILL BE USED
Info: DCD FILENAME           mobley_676247_prod.dcd
Info: DCD FREQUENCY          100000
Info: DCD FIRST STEP         100000
Info: DCD FILE WILL CONTAIN UNIT CELL DATA
Info: XST FILENAME           mobley_676247_prod.xst
Info: XST FREQUENCY          100000
Info: NO VELOCITY DCD OUTPUT
Info: NO FORCE DCD OUTPUT
Info: OUTPUT FILENAME        mobley_676247_prod
Info: BINARY OUTPUT FILES WILL BE USED
Info: RESTART FILENAME       mobley_676247_prod.restart
Info: RESTART FREQUENCY      100000
Info: BINARY RESTART FILES WILL BE USED
Info: CUTOFF                 9
Info: PAIRLIST DISTANCE      11
Info: PAIRLIST SHRINK RATE   0.01
Info: PAIRLIST GROW RATE     0.01
Info: PAIRLIST TRIGGER       0.3
Info: PAIRLISTS PER CYCLE    2
Info: PAIRLISTS ENABLED
Info: MARGIN                 2
Info: HYDROGEN GROUP CUTOFF  2.5
Info: PATCH DIMENSION        15.5
Info: ENERGY OUTPUT STEPS    100000
Info: ENERGY EVALUATION STEPS    100000
Info: OUTPUT ENERGY PRECISION 4
Info: CROSSTERM ENERGY INCLUDED IN DIHEDRAL
Info: TIMING OUTPUT STEPS    1000000
Info: PRESSURE OUTPUT STEPS  100000
Info: ALCHEMICAL FEP ON
Info: FEP CURRENT LAMBDA VALUE     0
Info: FEP COMPARISON LAMBDA VALUE  0.05
Info: FEP INTRA-ALCHEMICAL NON-BONDED INTERACTIONS WILL BE RETAINED
Info: FEP INTRA-ALCHEMICAL BONDED INTERACTIONS WILL BE RETAINED
Info: FEP VDW SHIFTING COEFFICIENT 5
Info: FEP ELEC. ACTIVE FOR ANNIHILATED PARTICLES BETWEEN LAMBDA = 0 AND LAMBDA = 0.5
Info: FEP ELEC. ACTIVE FOR EXNIHILATED PARTICLES BETWEEN LAMBDA = 0.5 AND LAMBDA = 1
Info: FEP VDW ACTIVE FOR ANNIHILATED PARTICLES BETWEEN LAMBDA = 0 AND LAMBDA = 1
Info: FEP VDW ACTIVE FOR EXNIHILATED PARTICLES BETWEEN LAMBDA = 0 AND LAMBDA = 1
Info: FEP BOND ACTIVE FOR ANNIHILATED PARTICLES BETWEEN LAMBDA = 1 AND LAMBDA = 1
Info: FEP BOND ACTIVE FOR EXNIHILATED PARTICLES BETWEEN LAMBDA = 0 AND LAMBDA = 0
Info: LANGEVIN DYNAMICS ACTIVE
Info: LANGEVIN TEMPERATURE   300
Info: LANGEVIN USING BBK INTEGRATOR
Info: LANGEVIN DAMPING COEFFICIENT IS 1 INVERSE PS
Info: LANGEVIN DYNAMICS APPLIED TO HYDROGENS
Info: LANGEVIN PISTON PRESSURE CONTROL ACTIVE
Info:        TARGET PRESSURE IS 1.01325 BAR
Info:     OSCILLATION PERIOD IS 50 FS
Info:             DECAY TIME IS 25 FS
Info:     PISTON TEMPERATURE IS 300 K
Info:       PRESSURE CONTROL IS GROUP-BASED
Info:    INITIAL STRAIN RATE IS 0.000835814 0.000835814 0.000835814
Info:       CELL FLUCTUATION IS ISOTROPIC
Info: PARTICLE MESH EWALD (PME) ACTIVE
Info: PME TOLERANCE               1e-06
Info: PME EWALD COEFFICIENT       0.348832
Info: PME INTERPOLATION ORDER     4
Info: PME GRID DIMENSIONS         32 32 32
Info: PME MAXIMUM GRID SPACING    1
Info: PME CALCULATION WILL BE PERFORMED ON GPU
Info: FULL ELECTROSTATIC EVALUATION FREQUENCY      2
Info: USING VERLET I (r-RESPA) MTS SCHEME.
Info: C1 SPLITTING OF LONG RANGE ELECTROSTATICS
Info: PLACING ATOMS IN PATCHES BY HYDROGEN GROUPS
Info: RIGID BONDS TO HYDROGEN : ALL
Info:         ERROR TOLERANCE : 1e-08
Info:          MAX ITERATIONS : 100
Info: RIGID WATER USING SETTLE ALGORITHM
Info: RANDOM NUMBER SEED     1743390961
Info: USE HYDROGEN BONDS?    NO
Info: Using AMBER format force field!
Info: AMBER PARM FILE        mobley_676247.prmtop
Info: COORDINATE PDB         mobley_676247.pdb
Info: Exclusions will be read from PARM file!
Info: SCNB (VDW SCALING)     2
Info: USING ARITHMETIC MEAN TO COMBINE L-J SIGMA PARAMETERS
Info: BINARY COORDINATES     mobley_676247_equil.coor
Info: SUMMARY OF PARAMETERS:
Info: 3 BONDS
Info: 1 ANGLES
Info:   1 HARMONIC
Info:   0 COSINE-BASED
Info: 0 DIHEDRAL
Info: 0 IMPROPER
Info: 0 CROSSTERM
Info: 0 VDW
Info: 10 VDW_PAIRS
Info: 0 NBTHOLE_PAIRS
Info: To read alchdata from file: mobley_676247.pdb
Info: To read alchflag data from column: 5
Info: STRUCTURE SUMMARY:
Info: 2933 ATOMS
Info: 2932 BONDS
Info: 6 ANGLES
Info: 0 DIHEDRALS
Info: 0 IMPROPERS
Info: 0 CROSSTERMS
Info: 2938 EXCLUSIONS
Info: 2928 RIGID BONDS
Info: ALCH: 0 ATOMS TO DISAPPEAR IN FINAL STATE
Info: ALCH: 5 ATOMS TO APPEAR IN FINAL STATE
Info: 5871 DEGREES OF FREEDOM
Info: 981 HYDROGEN GROUPS
Info: 3 ATOMS IN LARGEST HYDROGEN GROUP
Info: 981 MIGRATION GROUPS
Info: 3 ATOMS IN LARGEST MIGRATION GROUP
Info: TOTAL MASS = 17671.6 amu
Info: TOTAL CHARGE = 0.000200033 e
Info: MASS DENSITY = 0.966996 g/cm^3
Info: ATOM DENSITY = 0.0966498 atoms/A^3
Info: ADDED 0 IMPLICIT EXCLUSIONS
Info: NONBONDED TABLE R-SQUARED SPACING: 0.0625
Info: NONBONDED TABLE SIZE: 705 POINTS
Info: REMOVING COM VELOCITY 0.132287 0.162483 -0.129486
Info: Use 3D box decompostion in PME FFT.
Info: Updated CUDA force table with 4096 elements.
Info: Updated CUDA LJ table with 4 x 4 elements.
Info: Found 8 unique exclusion lists needing 8 bytes
TCL: Running for 1500000 steps
ETITLE: TS BOND ANGLE DIHED IMPRP ELECT VDW BOUNDARY MISC KINETIC TOTAL TEMP POTENTIAL TOTALAVG TEMPAVG PRESSURE GPRESSURE VOLUME PRESSAVG GPRESSAVG
ENERGY: 0 0.3035 6.3461 0.0000 0.0000 -10643.3911 1402.1158 0.0000 0.0000 1752.6645 -7481.9611 300.4534 -9234.6257 -7481.9611 300.4534 -327.6860 -247.1108 30346.6769 -327.6860 -247.1108
ENERGY: 300000 0.9902 1.5967 0.0000 0.0000 -10630.7091 1448.6428 0.0000 0.0000 1745.9968 -7433.4826 299.3104 -9179.4794 -7490.9246 297.7563 219.0078 271.7914 30359.8435 -313.1408 -243.6456
ENERGY: 600000 2.6182 4.0105 0.0000 0.0000 -10576.5055 1352.2843 0.0000 0.0000 1782.8164 -7434.7761 305.6222 -9217.5925 -7477.8018 299.0832 -876.0015 -784.7690 30381.6174 -333.6937 -251.3615
ENERGY: 900000 1.5045 2.6334 0.0000 0.0000 -10444.4986 1312.0650 0.0000 0.0000 1799.8204 -7328.4753 308.5371 -9128.2957 -7465.2185 300.3728 -825.3777 -758.5831 30373.7682 -242.3517 -168.9534
ENERGY: 1200000 0.7612 2.9779 0.0000 0.0000 -10678.4290 1455.4502 0.0000 0.0000 1816.0290 -7403.2107 311.3157 -9219.2397 -7463.8437 300.4221 80.3113 104.6016 30675.6594 -296.2796 -222.6301
ENERGY: 1500000 1.2164 1.7653 0.0000 0.0000 -10608.7010 1424.8497 0.0000 0.0000 1776.4206 -7404.4490 304.5258 -9180.8696 -7463.0520 301.2256 -298.7902 -134.3859 30639.0202 -268.6801 -191.8449
TCL: Running FEP window   2: Lambda1 0.05   Lambda2 0.1    [dLambda 0.05  ]
TCL: Setting parameter firsttimestep to 0
TCL: Setting parameter alchLambda to 0.05
Info: NONBONDED TABLE R-SQUARED SPACING: 0.0625
Info: NONBONDED TABLE SIZE: 705 POINTS
TCL: Setting parameter alchLambda2 to 0.1
Info: NONBONDED TABLE R-SQUARED SPACING: 0.0625
Info: NONBONDED TABLE SIZE: 705 POINTS
TCL: Running for 1500000 steps
ETITLE: TS BOND ANGLE DIHED IMPRP ELECT VDW BOUNDARY MISC KINETIC TOTAL TEMP POTENTIAL TOTALAVG TEMPAVG PRESSURE GPRESSURE VOLUME PRESSAVG GPRESSAVG
ENERGY: 0 1.2164 1.7653 0.0000 0.0000 -10608.7017 1424.6173 0.0000 0.0000 1775.5695 -7405.5333 304.3799 -9181.1027 -7405.5333 304.3799 -216.5754 -132.6077 30639.0202 -216.5754 -132.6077
ENERGY: 300000 0.5445 3.6871 0.0000 0.0000 -10589.0128 1387.9833 0.0000 0.0000 1774.5933 -7422.2044 304.2126 -9196.7978 -7432.5280 302.5446 -200.1788 -134.0185 29988.1063 19.8645 71.1908
ENERGY: 600000 0.6735 1.6883 0.0000 0.0000 -10680.0939 1431.8458 0.0000 0.0000 1774.3288 -7471.5575 304.1672 -9245.8863 -7436.3436 304.8304 -127.8691 -36.6608 30432.3593 2.0959 65.1263
ENERGY: 900000 0.5952 1.3197 0.0000 0.0000 -10761.4082 1472.9188 0.0000 0.0000 1768.5575 -7518.0171 303.1779 -9286.5746 -7447.9451 303.9828 187.5563 245.7789 30011.4494 11.2158 71.4614
ENERGY: 1200000 1.2828 1.9143 0.0000 0.0000 -10694.0644 1514.8333 0.0000 0.0000 1747.5497 -7428.4843 299.5766 -9176.0340 -7443.4868 303.7811 963.6084 1034.6203 29853.5392 12.8379 68.5625
ENERGY: 1500000 0.6917 2.0183 0.0000 0.0000 -10587.3893 1396.0875 0.0000 0.0000 1743.2096 -7445.3822 298.8326 -9188.5918 -7453.9119 302.8060 -310.1955 -223.8476 29978.7201 -9.0570 44.3260
TCL: Running FEP window   3: Lambda1 0.1    Lambda2 0.15000000000000002 [dLambda 0.05000000000000002]
TCL: Setting parameter firsttimestep to 0
TCL: Setting parameter alchLambda to 0.1
Info: NONBONDED TABLE R-SQUARED SPACING: 0.0625
Info: NONBONDED TABLE SIZE: 705 POINTS
TCL: Setting parameter alchLambda2 to 0.15000000000000002
Info: NONBONDED TABLE R-SQUARED SPACING: 0.0625
Info: NONBONDED TABLE SIZE: 705 POINTS
TCL: Running for 1500000 steps
ETITLE: TS BOND ANGLE DIHED IMPRP ELECT VDW BOUNDARY MISC KINETIC TOTAL TEMP POTENTIAL TOTALAVG TEMPAVG PRESSURE GPRESSURE VOLUME PRESSAVG GPRESSAVG
ENERGY: 0 0.6916 2.0184 0.0000 0.0000 -10587.3889 1397.0922 0.0000 0.0000 1742.3592 -7445.2275 298.6868 -9187.5867 -7445.2275 298.6868 -299.3119 -219.5760 29978.7201 -299.3119 -219.5760
ENERGY: 300000 0.0587 1.4884 0.0000 0.0000 -10568.2567 1392.6050 0.0000 0.0000 1798.2415 -7375.8630 308.2665 -9174.1045 -7473.7483 301.2386 -148.2293 -78.3581 30088.3317 -194.6697 -127.2327
ENERGY: 600000 0.5896 1.6309 0.0000 0.0000 -10733.6037 1454.6991 0.0000 0.0000 1727.7467 -7548.9373 296.1818 -9276.6840 -7488.6566 301.3626 94.6718 216.0623 29749.3305 -90.7086 6.9835
ENERGY: 900000 2.1097 3.1237 0.0000 0.0000 -10660.8010 1421.0307 0.0000 0.0000 1777.6172 -7456.9197 304.7309 -9234.5369 -7473.5365 301.8696 -275.5891 -237.7420 30414.3048 -68.2049 12.2648
ENERGY: 1200000 0.5812 2.4009 0.0000 0.0000 -10730.9631 1509.3760 0.0000 0.0000 1746.4183 -7472.1868 299.3826 -9218.6051 -7479.2920 300.7889 469.5546 530.7866 30225.3060 69.8836 148.2108
ENERGY: 1500000 0.7937 2.1572 0.0000 0.0000 -10715.8319 1465.1497 0.0000 0.0000 1771.9735 -7475.7579 303.7635 -9247.7314 -7476.0787 301.2275 114.5531 209.3451 30167.3216 17.4239 94.5934
TCL: Running FEP window   4: Lambda1 0.15000000000000002 Lambda2 0.2    [dLambda 0.04999999999999999]
TCL: Setting parameter firsttimestep to 0
TCL: Setting parameter alchLambda to 0.15000000000000002
Info: NONBONDED TABLE R-SQUARED SPACING: 0.0625
Info: NONBONDED TABLE SIZE: 705 POINTS
TCL: Setting parameter alchLambda2 to 0.2
Info: NONBONDED TABLE R-SQUARED SPACING: 0.0625
Info: NONBONDED TABLE SIZE: 705 POINTS
TCL: Running for 1500000 steps
ETITLE: TS BOND ANGLE DIHED IMPRP ELECT VDW BOUNDARY MISC KINETIC TOTAL TEMP POTENTIAL TOTALAVG TEMPAVG PRESSURE GPRESSURE VOLUME PRESSAVG GPRESSAVG
ENERGY: 0 0.7937 2.1572 0.0000 0.0000 -10715.8324 1465.9800 0.0000 0.0000 1771.0827 -7475.8188 303.6108 -9246.9015 -7475.8188 303.6108 127.8219 213.7143 30167.3216 127.8219 213.7143
ENERGY: 300000 1.4206 1.2264 0.0000 0.0000 -10736.7065 1488.3217 0.0000 0.0000 1736.0417 -7509.6960 297.6038 -9245.7377 -7495.4566 299.2385 489.6377 541.3569 29696.8063 303.2013 365.0250
ENERGY: 600000 0.4852 4.1704 0.0000 0.0000 -10627.0634 1434.4850 0.0000 0.0000 1721.4552 -7466.4675 295.1033 -9187.9228 -7464.1994 300.3389 -4.3065 -17.2593 30300.7728 182.3112 221.4676
ENERGY: 900000 2.2487 3.9075 0.0000 0.0000 -10679.0669 1440.3858 0.0000 0.0000 1717.4304 -7515.0944 294.4133 -9232.5248 -7475.2791 300.1308 352.2793 364.6529 29669.5468 157.3830 192.7153
ENERGY: 1200000 1.3351 1.5188 0.0000 0.0000 -10771.5255 1492.8265 0.0000 0.0000 1785.8806 -7489.9646 306.1475 -9275.8452 -7470.6203 302.0123 286.1525 361.0456 29880.0137 250.8525 293.1322
ENERGY: 1500000 0.4444 2.0520 0.0000 0.0000 -10640.3052 1424.5978 0.0000 0.0000 1783.3497 -7429.8612 305.7136 -9213.2109 -7466.0203 302.4896 -112.1685 11.7091 29994.6541 233.9740 286.3200
TCL: Running FEP window   5: Lambda1 0.2    Lambda2 0.25   [dLambda 0.04999999999999999]
TCL: Setting parameter firsttimestep to 0
TCL: Setting parameter alchLambda to 0.2
Info: NONBONDED TABLE R-SQUARED SPACING: 0.0625
Info: NONBONDED TABLE SIZE: 705 POINTS
TCL: Setting parameter alchLambda2 to 0.25
Info: NONBONDED TABLE R-SQUARED SPACING: 0.0625
Info: NONBONDED TABLE SIZE: 705 POINTS
TCL: Running for 1500000 steps
ETITLE: TS BOND ANGLE DIHED IMPRP ELECT VDW BOUNDARY MISC KINETIC TOTAL TEMP POTENTIAL TOTALAVG TEMPAVG PRESSURE GPRESSURE VOLUME PRESSAVG GPRESSAVG
ENERGY: 0 0.4444 2.0520 0.0000 0.0000 -10640.3066 1425.7872 0.0000 0.0000 1782.5127 -7429.5102 305.5701 -9212.0229 -7429.5102 305.5701 -65.1158 18.7392 29994.6541 -65.1158 18.7392
ENERGY: 300000 0.6120 2.2049 0.0000 0.0000 -10771.3160 1486.4190 0.0000 0.0000 1745.0435 -7537.0366 299.1469 -9282.0802 -7455.8967 304.7427 417.2747 473.3431 29803.5440 538.9133 630.6330
ENERGY: 600000 0.2422 2.1923 0.0000 0.0000 -10735.4061 1469.4734 0.0000 0.0000 1843.4609 -7420.0373 316.0183 -9263.4983 -7450.1469 305.8595 238.1904 287.3591 29814.8826 303.8655 382.6252
ENERGY: 900000 0.8172 1.5704 0.0000 0.0000 -10655.5543 1418.7107 0.0000 0.0000 1739.6805 -7494.7755 298.2276 -9234.4560 -7457.8414 303.8517 -129.6175 -93.6358 30272.6832 139.4606 213.7849
ENERGY: 1200000 0.2166 1.3863 0.0000 0.0000 -10637.6253 1427.9177 0.0000 0.0000 1702.1375 -7505.9671 291.7917 -9208.1047 -7465.3617 302.6174 -274.2766 -192.7801 30493.6433 54.5686 133.9418
ENERGY: 1500000 0.2795 2.0747 0.0000 0.0000 -10721.7313 1467.8671 0.0000 0.0000 1726.5256 -7524.9843 295.9725 -9251.5100 -7471.9134 301.4108 157.4367 177.5394 30208.7160 -1.3886 79.3580
TCL: Running FEP window   6: Lambda1 0.25   Lambda2 0.3    [dLambda 0.04999999999999999]
TCL: Setting parameter firsttimestep to 0
TCL: Setting parameter alchLambda to 0.25
Info: NONBONDED TABLE R-SQUARED SPACING: 0.0625
Info: NONBONDED TABLE SIZE: 705 POINTS
TCL: Setting parameter alchLambda2 to 0.3
Info: NONBONDED TABLE R-SQUARED SPACING: 0.0625
Info: NONBONDED TABLE SIZE: 705 POINTS
TCL: Running for 1500000 steps
ETITLE: TS BOND ANGLE DIHED IMPRP ELECT VDW BOUNDARY MISC KINETIC TOTAL TEMP POTENTIAL TOTALAVG TEMPAVG PRESSURE GPRESSURE VOLUME PRESSAVG GPRESSAVG
ENERGY: 0 0.2795 2.0747 0.0000 0.0000 -10721.7308 1468.2551 0.0000 0.0000 1725.6722 -7525.4493 295.8262 -9251.1215 -7525.4493 295.8262 118.9849 184.3599 30208.7160 118.9849 184.3599
ENERGY: 300000 1.1150 1.3423 0.0000 0.0000 -10639.0521 1422.8438 0.0000 0.0000 1713.8820 -7499.8689 293.8050 -9213.7510 -7466.9907 298.1493 -165.8678 -104.5536 30370.9405 216.0123 287.5704
ENERGY: 600000 0.4503 1.4889 0.0000 0.0000 -10655.9884 1384.3852 0.0000 0.0000 1750.0084 -7519.6557 299.9981 -9269.6641 -7445.6300 301.1691 -497.3563 -493.7886 30011.7180 78.5673 140.2209
ENERGY: 900000 2.3143 1.3891 0.0000 0.0000 -10608.5975 1366.8505 0.0000 0.0000 1749.3088 -7488.7348 299.8781 -9238.0436 -7445.7699 302.0580 -808.3983 -778.2732 30625.2142 9.8686 67.1723
ENERGY: 1200000 0.6963 1.6028 0.0000 0.0000 -10773.8401 1427.0896 0.0000 0.0000 1748.3636 -7596.0878 299.7161 -9344.4514 -7466.6764 300.8503 -493.6271 -421.0243 30225.5358 28.9424 82.7810
ENERGY: 1500000 0.9862 2.7169 0.0000 0.0000 -10776.5867 1487.7034 0.0000 0.0000 1770.5633 -7514.6170 303.5217 -9285.1802 -7469.6007 301.5072 140.1492 210.2024 30108.1401 22.1782 83.3948
TCL: Running FEP window   7: Lambda1 0.3    Lambda2 0.35   [dLambda 0.04999999999999999]
TCL: Setting parameter firsttimestep to 0
TCL: Setting parameter alchLambda to 0.3
Info: NONBONDED TABLE R-SQUARED SPACING: 0.0625
Info: NONBONDED TABLE SIZE: 705 POINTS
TCL: Setting parameter alchLambda2 to 0.35
Info: NONBONDED TABLE R-SQUARED SPACING: 0.0625
Info: NONBONDED TABLE SIZE: 705 POINTS
TCL: Running for 1500000 steps
ETITLE: TS BOND ANGLE DIHED IMPRP ELECT VDW BOUNDARY MISC KINETIC TOTAL TEMP POTENTIAL TOTALAVG TEMPAVG PRESSURE GPRESSURE VOLUME PRESSAVG GPRESSAVG
ENERGY: 0 0.9862 2.7169 0.0000 0.0000 -10776.5867 1487.9578 0.0000 0.0000 1769.6711 -7515.2548 303.3688 -9284.9259 -7515.2548 303.3688 128.5058 215.1272 30108.1401 128.5058 215.1272
ENERGY: 300000 1.1386 2.5380 0.0000 0.0000 -10682.7981 1464.3836 0.0000 0.0000 1758.1112 -7456.6267 301.3871 -9214.7379 -7496.0653 303.5646 80.4366 129.8473 30412.6102 173.9594 232.9283
ENERGY: 600000 1.7619 4.0905 0.0000 0.0000 -10445.3619 1325.4288 0.0000 0.0000 1742.6460 -7371.4347 298.7359 -9114.0807 -7456.9417 303.2719 -990.8080 -1008.9913 30846.4156 -1.4413 48.7564
ENERGY: 900000 1.4276 1.5739 0.0000 0.0000 -10613.6939 1380.7937 0.0000 0.0000 1752.3879 -7477.5108 300.4060 -9229.8987 -7464.6156 301.5528 -493.9783 -405.1107 30327.1171 -139.0750 -88.0523
ENERGY: 1200000 0.8891 1.0375 0.0000 0.0000 -10712.1258 1478.9735 0.0000 0.0000 1698.3516 -7532.8741 291.1427 -9231.2257 -7471.1521 300.5468 525.8338 593.7486 29707.0280 -8.7947 42.6189
ENERGY: 1500000 0.8333 1.2557 0.0000 0.0000 -10726.7739 1450.6373 0.0000 0.0000 1731.8493 -7542.1983 296.8851 -9274.0476 -7477.6919 300.0566 -175.5402 -124.9647 30305.8116 -38.2746 15.6391
TCL: Running FEP window   8: Lambda1 0.35   Lambda2 0.39999999999999997 [dLambda 0.04999999999999999]
TCL: Setting parameter firsttimestep to 0
TCL: Setting parameter alchLambda to 0.35
Info: NONBONDED TABLE R-SQUARED SPACING: 0.0625
Info: NONBONDED TABLE SIZE: 705 POINTS
TCL: Setting parameter alchLambda2 to 0.39999999999999997
Info: NONBONDED TABLE R-SQUARED SPACING: 0.0625
Info: NONBONDED TABLE SIZE: 705 POINTS
TCL: Running for 1500000 steps
ETITLE: TS BOND ANGLE DIHED IMPRP ELECT VDW BOUNDARY MISC KINETIC TOTAL TEMP POTENTIAL TOTALAVG TEMPAVG PRESSURE GPRESSURE VOLUME PRESSAVG GPRESSAVG
ENERGY: 0 0.8333 1.2557 0.0000 0.0000 -10726.7749 1450.4276 0.0000 0.0000 1730.9736 -7543.2846 296.7350 -9274.2583 -7543.2846 296.7350 -202.0213 -124.8581 30305.8116 -202.0213 -124.8581
ENERGY: 300000 2.1388 4.5167 0.0000 0.0000 -10732.8141 1472.4304 0.0000 0.0000 1738.2377 -7515.4906 297.9802 -9253.7283 -7497.0242 302.2756 152.7932 216.8255 30323.6156 -83.0580 -9.9490
ENERGY: 600000 1.4933 1.2301 0.0000 0.0000 -10586.0590 1402.6469 0.0000 0.0000 1735.1195 -7445.5692 297.4457 -9180.6887 -7482.7091 301.4194 -342.0285 -238.4664 30682.1824 -147.3475 -63.4485
ENERGY: 900000 0.5981 3.0056 0.0000 0.0000 -10523.2060 1307.2525 0.0000 0.0000 1702.6611 -7509.6887 291.8815 -9212.3498 -7469.0800 299.7329 -1138.4946 -1052.3256 30444.6440 -317.8672 -237.5224
ENERGY: 1200000 0.1097 1.7824 0.0000 0.0000 -10680.8345 1434.0966 0.0000 0.0000 1731.2961 -7513.5497 296.7903 -9244.8458 -7465.9556 299.4437 -4.1261 33.5074 30000.8171 -190.3782 -124.2140
ENERGY: 1500000 1.0802 0.9205 0.0000 0.0000 -10729.7420 1440.3265 0.0000 0.0000 1765.6517 -7521.7631 302.6797 -9287.4149 -7465.4194 300.3476 -270.2668 -216.0320 30294.5880 -189.6886 -122.0659
TCL: Running FEP window   9: Lambda1 0.39999999999999997 Lambda2 0.44999999999999996 [dLambda 0.04999999999999999]
TCL: Setting parameter firsttimestep to 0
TCL: Setting parameter alchLambda to 0.39999999999999997
Info: NONBONDED TABLE R-SQUARED SPACING: 0.0625
Info: NONBONDED TABLE SIZE: 705 POINTS
TCL: Setting parameter alchLambda2 to 0.44999999999999996
Info: NONBONDED TABLE R-SQUARED SPACING: 0.0625
Info: NONBONDED TABLE SIZE: 705 POINTS
TCL: Running for 1500000 steps
ETITLE: TS BOND ANGLE DIHED IMPRP ELECT VDW BOUNDARY MISC KINETIC TOTAL TEMP POTENTIAL TOTALAVG TEMPAVG PRESSURE GPRESSURE VOLUME PRESSAVG GPRESSAVG
ENERGY: 0 1.0802 0.9205 0.0000 0.0000 -10729.7419 1440.3471 0.0000 0.0000 1764.7295 -7522.6647 302.5216 -9287.3942 -7522.6647 302.5216 -299.3090 -214.4713 30294.5880 -299.3090 -214.4713
ENERGY: 300000 1.1680 1.4750 0.0000 0.0000 -10640.7826 1395.4885 0.0000 0.0000 1746.4183 -7496.2329 299.3826 -9242.6512 -7488.5243 301.1388 -479.5742 -380.6271 30072.1412 -342.0900 -279.2617
ENERGY: 600000 2.6658 3.3233 0.0000 0.0000 -10578.3559 1432.2133 0.0000 0.0000 1781.6492 -7358.5043 305.4221 -9140.1535 -7463.7351 302.2894 175.1414 233.6912 30326.1361 -115.4191 -47.4717
ENERGY: 900000 0.9357 2.3735 0.0000 0.0000 -10613.3661 1448.5229 0.0000 0.0000 1761.6003 -7399.9336 301.9852 -9161.5339 -7470.4575 300.4939 159.2791 236.2848 30555.8270 -177.9640 -112.1987
ENERGY: 1200000 2.0918 1.7172 0.0000 0.0000 -10499.7747 1346.7514 0.0000 0.0000 1701.9901 -7447.2242 291.7664 -9149.2143 -7463.4086 300.2913 -550.7277 -417.3868 30105.6212 -265.6071 -195.8073
ENERGY: 1500000 3.1461 2.5131 0.0000 0.0000 -10630.9634 1414.5955 0.0000 0.0000 1763.0709 -7447.6379 302.2373 -9210.7088 -7461.8577 300.5620 -336.6128 -233.0150 30281.3003 -235.1992 -165.4410
TCL: Running FEP window  10: Lambda1 0.44999999999999996 Lambda2 0.49999999999999994 [dLambda 0.04999999999999999]
TCL: Setting parameter firsttimestep to 0
TCL: Setting parameter alchLambda to 0.44999999999999996
Info: NONBONDED TABLE R-SQUARED SPACING: 0.0625
Info: NONBONDED TABLE SIZE: 705 POINTS
TCL: Setting parameter alchLambda2 to 0.49999999999999994
Info: NONBONDED TABLE R-SQUARED SPACING: 0.0625
Info: NONBONDED TABLE SIZE: 705 POINTS
TCL: Running for 1500000 steps
ETITLE: TS BOND ANGLE DIHED IMPRP ELECT VDW BOUNDARY MISC KINETIC TOTAL TEMP POTENTIAL TOTALAVG TEMPAVG PRESSURE GPRESSURE VOLUME PRESSAVG GPRESSAVG
ENERGY: 0 3.1461 2.5131 0.0000 0.0000 -10630.9641 1414.5943 0.0000 0.0000 1762.1660 -7448.5446 302.0822 -9210.7107 -7448.5446 302.0822 -327.0418 -232.4313 30281.3003 -327.0418 -232.4313
ENERGY: 300000 0.8149 2.3855 0.0000 0.0000 -10798.6789 1508.0967 0.0000 0.0000 1762.4442 -7524.9376 302.1299 -9287.3818 -7475.5658 304.4115 416.5564 479.5708 30016.1319 210.6311 264.3083
ENERGY: 600000 1.6373 2.0217 0.0000 0.0000 -10745.8853 1518.2719 0.0000 0.0000 1755.1716 -7468.7828 300.8832 -9223.9545 -7470.0939 302.6799 564.7534 606.6150 30104.4753 446.3819 502.6157
ENERGY: 900000 0.8156 2.7998 0.0000 0.0000 -10661.2755 1452.4959 0.0000 0.0000 1724.8905 -7480.2738 295.6922 -9205.1643 -7487.9241 300.5730 122.2226 174.7457 30093.7556 213.8941 269.3014
ENERGY: 1200000 0.8228 1.4514 0.0000 0.0000 -10666.3610 1449.0786 0.0000 0.0000 1743.5794 -7471.4289 298.8959 -9215.0083 -7490.6943 300.3307 -158.6516 -96.0680 30691.3043 169.9890 229.4772
ENERGY: 1500000 1.7455 2.6628 0.0000 0.0000 -10757.1761 1452.0020 0.0000 0.0000 1781.6158 -7519.1500 305.4164 -9300.7658 -7486.0113 300.3839 -94.5013 -29.3639 29887.5455 77.5671 137.8579
TCL: Running FEP window  11: Lambda1 0.49999999999999994 Lambda2 0.5499999999999999 [dLambda 0.04999999999999999]
TCL: Setting parameter firsttimestep to 0
TCL: Setting parameter alchLambda to 0.49999999999999994
Info: NONBONDED TABLE R-SQUARED SPACING: 0.0625
Info: NONBONDED TABLE SIZE: 705 POINTS
TCL: Setting parameter alchLambda2 to 0.5499999999999999
Info: NONBONDED TABLE R-SQUARED SPACING: 0.0625
Info: NONBONDED TABLE SIZE: 705 POINTS
TCL: Running for 1500000 steps
ETITLE: TS BOND ANGLE DIHED IMPRP ELECT VDW BOUNDARY MISC KINETIC TOTAL TEMP POTENTIAL TOTALAVG TEMPAVG PRESSURE GPRESSURE VOLUME PRESSAVG GPRESSAVG
ENERGY: 0 1.7455 2.6628 0.0000 0.0000 -10757.1768 1452.0032 0.0000 0.0000 1780.7663 -7519.9991 305.2708 -9300.7654 -7519.9991 305.2708 -115.0748 -28.3450 29887.5455 -115.0748 -28.3450
ENERGY: 300000 0.5496 1.4137 0.0000 0.0000 -10650.4407 1414.1295 0.0000 0.0000 1730.3107 -7504.0373 296.6213 -9234.3479 -7496.5607 301.1086 -116.3418 -49.4820 30046.2449 -170.3462 -92.1335
ENERGY: 600000 0.9510 1.7936 0.0000 0.0000 -10660.8648 1414.4747 0.0000 0.0000 1766.0339 -7477.6116 302.7453 -9243.6455 -7479.9041 301.6108 -178.6474 -190.3474 30257.7094 -58.7898 6.5465
ENERGY: 900000 0.4600 2.3144 0.0000 0.0000 -10723.9955 1476.2246 0.0000 0.0000 1712.0374 -7532.9591 293.4888 -9244.9965 -7475.5831 301.1913 285.6148 266.6389 30165.6262 20.4666 79.0140
ENERGY: 1200000 0.2641 3.0220 0.0000 0.0000 -10639.9422 1359.3950 0.0000 0.0000 1741.3396 -7535.9214 298.5120 -9277.2610 -7479.9403 300.7527 -596.8804 -533.5540 29819.4250 -29.1694 29.5345
ENERGY: 1500000 1.5149 2.8414 0.0000 0.0000 -10645.2725 1381.2300 0.0000 0.0000 1775.1980 -7484.4882 304.3162 -9259.6863 -7473.3254 301.8998 -482.8859 -378.4376 29938.4778 -56.5695 10.1137
TCL: Running FEP window  12: Lambda1 0.5499999999999999 Lambda2 0.6    [dLambda 0.050000000000000044]
TCL: Setting parameter firsttimestep to 0
TCL: Setting parameter alchLambda to 0.5499999999999999
Info: NONBONDED TABLE R-SQUARED SPACING: 0.0625
Info: NONBONDED TABLE SIZE: 705 POINTS
TCL: Setting parameter alchLambda2 to 0.6
Info: NONBONDED TABLE R-SQUARED SPACING: 0.0625
Info: NONBONDED TABLE SIZE: 705 POINTS
TCL: Running for 1500000 steps
ETITLE: TS BOND ANGLE DIHED IMPRP ELECT VDW BOUNDARY MISC KINETIC TOTAL TEMP POTENTIAL TOTALAVG TEMPAVG PRESSURE GPRESSURE VOLUME PRESSAVG GPRESSAVG
ENERGY: 0 1.5149 2.8414 0.0000 0.0000 -10645.4282 1381.3682 0.0000 0.0000 1774.3058 -7485.3980 304.1633 -9259.7038 -7485.3980 304.1633 -458.4850 -374.3727 29938.4778 -458.4850 -374.3727
ENERGY: 300000 0.7639 1.9215 0.0000 0.0000 -10651.8807 1409.2031 0.0000 0.0000 1802.8278 -7437.1645 309.0527 -9239.9923 -7436.7459 302.1117 -307.7840 -278.4455 30325.3396 -555.3192 -486.7940
ENERGY: 600000 0.9067 1.5175 0.0000 0.0000 -10823.9971 1482.7604 0.0000 0.0000 1706.5093 -7632.3031 292.5412 -9338.8125 -7475.3806 301.4334 137.1558 204.5187 29688.9655 -279.1873 -206.5560
ENERGY: 900000 0.4181 3.1300 0.0000 0.0000 -10480.2278 1387.1065 0.0000 0.0000 1726.3433 -7363.2299 295.9412 -9089.5732 -7464.4538 300.9433 -77.3633 -7.7872 30444.9419 -161.2261 -87.2609
ENERGY: 1200000 2.2975 1.2424 0.0000 0.0000 -10761.8070 1549.5852 0.0000 0.0000 1752.6561 -7456.0258 300.4519 -9208.6819 -7474.1497 300.9710 1062.1574 1104.2929 30292.2093 -74.6661 -12.0293
ENERGY: 1500000 0.4749 1.2048 0.0000 0.0000 -10652.0499 1411.9014 0.0000 0.0000 1757.8135 -7480.6554 301.3360 -9238.4688 -7470.0778 301.1399 -124.5221 -50.4746 30155.3157 -114.0197 -47.1872
TCL: Running FEP window  13: Lambda1 0.6    Lambda2 0.65   [dLambda 0.050000000000000044]
TCL: Setting parameter firsttimestep to 0
TCL: Setting parameter alchLambda to 0.6
Info: NONBONDED TABLE R-SQUARED SPACING: 0.0625
Info: NONBONDED TABLE SIZE: 705 POINTS
TCL: Setting parameter alchLambda2 to 0.65
Info: NONBONDED TABLE R-SQUARED SPACING: 0.0625
Info: NONBONDED TABLE SIZE: 705 POINTS
TCL: Running for 1500000 steps
ETITLE: TS BOND ANGLE DIHED IMPRP ELECT VDW BOUNDARY MISC KINETIC TOTAL TEMP POTENTIAL TOTALAVG TEMPAVG PRESSURE GPRESSURE VOLUME PRESSAVG GPRESSAVG
ENERGY: 0 0.4749 1.2048 0.0000 0.0000 -10652.1107 1412.1679 0.0000 0.0000 1756.9100 -7481.3531 301.1812 -9238.2631 -7481.3531 301.1812 -142.7737 -45.9108 30155.3157 -142.7737 -45.9108
ENERGY: 300000 1.0874 2.2247 0.0000 0.0000 -10641.8497 1423.3539 0.0000 0.0000 1723.4514 -7491.7323 295.4455 -9215.1837 -7432.5923 300.2410 101.8163 127.5928 30210.6861 -41.9805 5.0014
ENERGY: 600000 0.7282 2.7537 0.0000 0.0000 -10707.5812 1396.0469 0.0000 0.0000 1752.2946 -7555.7578 300.3900 -9308.0524 -7466.6801 299.8236 -657.1945 -584.5946 30242.1707 -240.0511 -183.2353
ENERGY: 900000 0.9380 0.9600 0.0000 0.0000 -10570.6452 1394.4051 0.0000 0.0000 1786.6560 -7387.6861 306.2804 -9174.3421 -7453.3871 301.5722 -314.6395 -275.7875 30650.0412 -169.0537 -119.8418
ENERGY: 1200000 1.8436 1.4115 0.0000 0.0000 -10689.8769 1459.1629 0.0000 0.0000 1762.7442 -7464.7148 302.1813 -9227.4590 -7461.7746 301.4441 360.4130 425.5088 29839.5826 -95.1581 -48.6953
ENERGY: 1500000 2.2111 1.4687 0.0000 0.0000 -10592.5175 1367.7633 0.0000 0.0000 1753.5650 -7467.5094 300.6078 -9221.0744 -7461.3239 301.4609 -534.3911 -521.4189 30126.9798 -138.2637 -88.4743
TCL: Running FEP window  14: Lambda1 0.65   Lambda2 0.7000000000000001 [dLambda 0.050000000000000044]
TCL: Setting parameter firsttimestep to 0
TCL: Setting parameter alchLambda to 0.65
Info: NONBONDED TABLE R-SQUARED SPACING: 0.0625
Info: NONBONDED TABLE SIZE: 705 POINTS
TCL: Setting parameter alchLambda2 to 0.7000000000000001
Info: NONBONDED TABLE R-SQUARED SPACING: 0.0625
Info: NONBONDED TABLE SIZE: 705 POINTS
TCL: Running for 1500000 steps
ETITLE: TS BOND ANGLE DIHED IMPRP ELECT VDW BOUNDARY MISC KINETIC TOTAL TEMP POTENTIAL TOTALAVG TEMPAVG PRESSURE GPRESSURE VOLUME PRESSAVG GPRESSAVG
ENERGY: 0 2.2111 1.4687 0.0000 0.0000 -10592.4695 1368.2802 0.0000 0.0000 1752.6783 -7467.8312 300.4558 -9220.5095 -7467.8312 300.4558 -593.5375 -510.6008 30126.9798 -593.5375 -510.6008
ENERGY: 300000 1.8812 1.7482 0.0000 0.0000 -10508.8832 1352.0730 0.0000 0.0000 1728.8153 -7424.3655 296.3650 -9153.1808 -7469.1090 299.2215 -839.7178 -806.3825 30809.4154 -426.3404 -377.5873
ENERGY: 600000 1.1498 1.5127 0.0000 0.0000 -10551.5488 1327.6993 0.0000 0.0000 1740.2925 -7480.8946 298.3325 -9221.1871 -7477.9897 296.7651 -822.8527 -764.2358 30192.2840 -421.2106 -368.5658
ENERGY: 900000 1.1197 3.0847 0.0000 0.0000 -10780.0420 1475.4582 0.0000 0.0000 1743.0163 -7557.3631 298.7994 -9300.3794 -7491.7769 297.6167 220.5544 243.2985 29898.5232 -218.1882 -157.3460
ENERGY: 1200000 0.9979 2.1526 0.0000 0.0000 -10768.1022 1437.9515 0.0000 0.0000 1777.5710 -7549.4292 304.7230 -9327.0003 -7484.2579 299.8107 -46.2484 -70.1480 29986.6227 -105.1344 -48.9029
ENERGY: 1500000 1.3299 2.2378 0.0000 0.0000 -10642.2851 1402.5509 0.0000 0.0000 1730.1773 -7505.9891 296.5985 -9236.1665 -7473.0339 300.0165 -392.6638 -343.5010 30545.9173 -229.8318 -178.3194
TCL: Running FEP window  15: Lambda1 0.7000000000000001 Lambda2 0.7500000000000001 [dLambda 0.050000000000000044]
TCL: Setting parameter firsttimestep to 0
TCL: Setting parameter alchLambda to 0.7000000000000001
Info: NONBONDED TABLE R-SQUARED SPACING: 0.0625
Info: NONBONDED TABLE SIZE: 705 POINTS
TCL: Setting parameter alchLambda2 to 0.7500000000000001
Info: NONBONDED TABLE R-SQUARED SPACING: 0.0625
Info: NONBONDED TABLE SIZE: 705 POINTS
TCL: Running for 1500000 steps
ETITLE: TS BOND ANGLE DIHED IMPRP ELECT VDW BOUNDARY MISC KINETIC TOTAL TEMP POTENTIAL TOTALAVG TEMPAVG PRESSURE GPRESSURE VOLUME PRESSAVG GPRESSAVG
ENERGY: 0 1.3299 2.2378 0.0000 0.0000 -10642.2391 1402.4808 0.0000 0.0000 1729.3476 -7506.8430 296.4562 -9236.1906 -7506.8430 296.4562 -427.0127 -340.2118 30545.9173 -427.0127 -340.2118
ENERGY: 300000 0.9833 0.9836 0.0000 0.0000 -10632.1631 1327.0265 0.0000 0.0000 1757.3627 -7545.8071 301.2588 -9303.1697 -7487.1521 299.5758 -988.5652 -930.9248 30261.6643 -188.0902 -128.3207
ENERGY: 600000 0.3600 2.2027 0.0000 0.0000 -10603.7922 1365.6871 0.0000 0.0000 1685.7230 -7549.8194 288.9778 -9235.5424 -7501.0174 296.9254 -746.7493 -685.2397 30287.5581 -205.5365 -168.9220
ENERGY: 900000 3.0394 2.8354 0.0000 0.0000 -10713.7450 1461.6737 0.0000 0.0000 1807.3587 -7438.8377 309.8294 -9246.1964 -7495.5349 298.2678 54.7172 110.1954 30273.9372 -141.1446 -94.4582
ENERGY: 1200000 1.8740 1.0797 0.0000 0.0000 -10918.3487 1591.3148 0.0000 0.0000 1740.0915 -7583.9887 298.2980 -9324.0802 -7502.3098 298.2863 893.5599 949.8460 30101.8920 32.9269 87.6354
ENERGY: 1500000 0.8081 2.0650 0.0000 0.0000 -10574.3376 1369.5731 0.0000 0.0000 1746.8063 -7455.0849 299.4491 -9201.8913 -7499.6261 297.9941 -483.4043 -404.2157 30247.9700 -69.8744 -6.9937
TCL: Running FEP window  16: Lambda1 0.7500000000000001 Lambda2 0.8000000000000002 [dLambda 0.050000000000000044]
TCL: Setting parameter firsttimestep to 0
TCL: Setting parameter alchLambda to 0.7500000000000001
Info: NONBONDED TABLE R-SQUARED SPACING: 0.0625
Info: NONBONDED TABLE SIZE: 705 POINTS
TCL: Setting parameter alchLambda2 to 0.8000000000000002
Info: NONBONDED TABLE R-SQUARED SPACING: 0.0625
Info: NONBONDED TABLE SIZE: 705 POINTS
TCL: Running for 1500000 steps
ETITLE: TS BOND ANGLE DIHED IMPRP ELECT VDW BOUNDARY MISC KINETIC TOTAL TEMP POTENTIAL TOTALAVG TEMPAVG PRESSURE GPRESSURE VOLUME PRESSAVG GPRESSAVG
ENERGY: 0 0.8081 2.0650 0.0000 0.0000 -10574.4206 1369.8531 0.0000 0.0000 1745.9697 -7455.7247 299.3057 -9201.6943 -7455.7247 299.3057 -489.8671 -402.0853 30247.9700 -489.8671 -402.0853
ENERGY: 300000 3.3534 1.5564 0.0000 0.0000 -10617.0274 1392.9589 0.0000 0.0000 1709.3518 -7509.8068 293.0284 -9219.1586 -7486.1785 298.2847 -129.3495 16.0878 29929.2343 -587.9877 -473.3426
ENERGY: 600000 0.5675 0.7357 0.0000 0.0000 -10545.9663 1377.4315 0.0000 0.0000 1770.1367 -7397.0949 303.4486 -9167.2316 -7463.6536 299.6009 -719.2790 -676.7323 31279.5388 -249.7335 -162.0405
ENERGY: 900000 1.3027 1.1594 0.0000 0.0000 -10656.0440 1439.9642 0.0000 0.0000 1752.6498 -7460.9679 300.4509 -9213.6177 -7463.7167 298.9538 87.3364 131.5404 30212.7431 -178.6168 -92.5809
ENERGY: 1200000 3.1706 2.0072 0.0000 0.0000 -10721.4703 1495.2047 0.0000 0.0000 1719.1124 -7501.9754 294.7017 -9221.0878 -7461.2436 298.4637 288.7887 352.1745 30536.4493 -138.8299 -59.4237
ENERGY: 1500000 0.6907 1.6869 0.0000 0.0000 -10614.8313 1434.8167 0.0000 0.0000 1786.5816 -7391.0554 306.2677 -9177.6371 -7458.9190 299.2770 232.3236 369.2701 30068.0068 -101.9187 -27.4886
TCL: Running FEP window  17: Lambda1 0.8000000000000002 Lambda2 0.8500000000000002 [dLambda 0.050000000000000044]
TCL: Setting parameter firsttimestep to 0
TCL: Setting parameter alchLambda to 0.8000000000000002
Info: NONBONDED TABLE R-SQUARED SPACING: 0.0625
Info: NONBONDED TABLE SIZE: 705 POINTS
TCL: Setting parameter alchLambda2 to 0.8500000000000002
Info: NONBONDED TABLE R-SQUARED SPACING: 0.0625
Info: NONBONDED TABLE SIZE: 705 POINTS
TCL: Running for 1500000 steps
ETITLE: TS BOND ANGLE DIHED IMPRP ELECT VDW BOUNDARY MISC KINETIC TOTAL TEMP POTENTIAL TOTALAVG TEMPAVG PRESSURE GPRESSURE VOLUME PRESSAVG GPRESSAVG
ENERGY: 0 0.6907 1.6869 0.0000 0.0000 -10614.8997 1435.2326 0.0000 0.0000 1785.7302 -7391.5593 306.1217 -9177.2895 -7391.5593 306.1217 289.6124 379.0256 30068.0068 289.6124 379.0256
ENERGY: 300000 0.8393 2.2793 0.0000 0.0000 -10719.6049 1507.7028 0.0000 0.0000 1808.4675 -7400.3159 310.0195 -9208.7834 -7433.3219 306.2541 880.0351 928.1225 29735.6166 296.9787 357.8151
ENERGY: 600000 0.8348 1.2869 0.0000 0.0000 -10772.0670 1505.8107 0.0000 0.0000 1758.3066 -7505.8280 301.4206 -9264.1346 -7455.3811 302.4602 656.1784 714.2814 29652.0804 407.8542 473.2950
ENERGY: 900000 0.6532 1.2158 0.0000 0.0000 -10664.9868 1392.3564 0.0000 0.0000 1752.4225 -7518.3389 300.4119 -9270.7615 -7452.7549 302.0577 -139.8201 -78.7524 29924.9249 310.6199 373.7463
ENERGY: 1200000 1.5181 2.5985 0.0000 0.0000 -10650.7272 1491.1537 0.0000 0.0000 1740.5583 -7414.8986 298.3781 -9155.4570 -7442.3652 301.4032 882.2194 893.0173 29787.4212 356.6472 412.1419
ENERGY: 1500000 1.2379 3.3999 0.0000 0.0000 -10616.1288 1358.4831 0.0000 0.0000 1756.7130 -7496.2949 301.1474 -9253.0079 -7444.2095 302.0228 -518.5634 -458.3039 30168.1468 270.1421 328.7059
TCL: Running FEP window  18: Lambda1 0.8500000000000002 Lambda2 0.9000000000000002 [dLambda 0.050000000000000044]
TCL: Setting parameter firsttimestep to 0
TCL: Setting parameter alchLambda to 0.8500000000000002
Info: NONBONDED TABLE R-SQUARED SPACING: 0.0625
Info: NONBONDED TABLE SIZE: 705 POINTS
TCL: Setting parameter alchLambda2 to 0.9000000000000002
Info: NONBONDED TABLE R-SQUARED SPACING: 0.0625
Info: NONBONDED TABLE SIZE: 705 POINTS
TCL: Running for 1500000 steps
ETITLE: TS BOND ANGLE DIHED IMPRP ELECT VDW BOUNDARY MISC KINETIC TOTAL TEMP POTENTIAL TOTALAVG TEMPAVG PRESSURE GPRESSURE VOLUME PRESSAVG GPRESSAVG
ENERGY: 0 1.2379 3.3999 0.0000 0.0000 -10616.2826 1358.3312 0.0000 0.0000 1755.8230 -7497.4906 300.9948 -9253.3136 -7497.4906 300.9948 -546.0792 -457.5613 30168.1468 -546.0792 -457.5613
ENERGY: 300000 1.4931 1.5499 0.0000 0.0000 -10596.2355 1397.1133 0.0000 0.0000 1728.0479 -7468.0315 296.2334 -9196.0794 -7528.9832 296.2975 -218.1380 -170.3770 30560.1298 -126.8883 -54.7354
ENERGY: 600000 1.2800 1.5935 0.0000 0.0000 -10764.5399 1501.1157 0.0000 0.0000 1739.2645 -7521.2862 298.1563 -9260.5507 -7501.9220 299.8028 495.0983 541.5705 30157.5373 -19.5154 60.0512
ENERGY: 900000 1.4384 1.8199 0.0000 0.0000 -10572.6562 1382.4275 0.0000 0.0000 1759.9565 -7427.0139 301.7034 -9186.9704 -7500.6587 299.6387 -492.3112 -442.0179 30891.1701 13.6937 83.6202
ENERGY: 1200000 1.3224 1.2884 0.0000 0.0000 -10770.5531 1541.0832 0.0000 0.0000 1772.8950 -7453.9641 303.9214 -9226.8592 -7491.8999 299.5793 1231.1864 1326.9933 29375.0584 130.1410 207.3209
ENERGY: 1500000 2.4163 0.6614 0.0000 0.0000 -10518.4284 1324.3740 0.0000 0.0000 1807.9971 -7382.9797 309.9389 -9190.9767 -7482.2125 299.9633 -689.8746 -607.8842 30182.3728 104.0939 179.2382
TCL: Running FEP window  19: Lambda1 0.9000000000000002 Lambda2 0.9500000000000003 [dLambda 0.050000000000000044]
TCL: Setting parameter firsttimestep to 0
TCL: Setting parameter alchLambda to 0.9000000000000002
Info: NONBONDED TABLE R-SQUARED SPACING: 0.0625
Info: NONBONDED TABLE SIZE: 705 POINTS
TCL: Setting parameter alchLambda2 to 0.9500000000000003
Info: NONBONDED TABLE R-SQUARED SPACING: 0.0625
Info: NONBONDED TABLE SIZE: 705 POINTS
TCL: Running for 1500000 steps
ETITLE: TS BOND ANGLE DIHED IMPRP ELECT VDW BOUNDARY MISC KINETIC TOTAL TEMP POTENTIAL TOTALAVG TEMPAVG PRESSURE GPRESSURE VOLUME PRESSAVG GPRESSAVG
ENERGY: 0 2.4163 0.6614 0.0000 0.0000 -10518.4987 1324.4422 0.0000 0.0000 1807.1111 -7383.8677 309.7870 -9190.9788 -7383.8677 309.7870 -685.2871 -601.5832 30182.3728 -685.2871 -601.5832
ENERGY: 300000 2.4500 1.6968 0.0000 0.0000 -10627.2382 1394.7524 0.0000 0.0000 1786.6205 -7441.7186 306.2743 -9228.3391 -7415.1048 305.8434 -376.1152 -299.8301 30369.8068 -313.5998 -240.8721
ENERGY: 600000 0.0923 2.3165 0.0000 0.0000 -10832.4606 1560.6068 0.0000 0.0000 1740.9237 -7528.5212 298.4407 -9269.4450 -7433.0574 303.8334 886.6381 879.0708 30354.4236 19.7295 67.5754
ENERGY: 900000 0.8302 1.2772 0.0000 0.0000 -10691.2963 1433.3716 0.0000 0.0000 1739.0824 -7516.7349 298.1251 -9255.8174 -7463.0348 302.3074 103.3191 202.9737 29889.5772 9.6271 69.2553
ENERGY: 1200000 0.3668 1.6643 0.0000 0.0000 -10512.9917 1365.2804 0.0000 0.0000 1697.8388 -7447.8414 291.0548 -9145.6802 -7464.0547 302.5248 -370.7249 -311.2992 30477.6576 8.3655 63.9092
ENERGY: 1500000 1.1807 1.5316 0.0000 0.0000 -10830.0745 1505.4472 0.0000 0.0000 1792.5938 -7529.3212 307.2983 -9321.9150 -7472.9805 301.9212 484.7247 506.4977 30054.6129 -6.5197 48.6976
TCL: Running FEP window  20: Lambda1 0.9500000000000003 Lambda2 1.0    [dLambda 0.04999999999999971]
TCL: Setting parameter firsttimestep to 0
TCL: Setting parameter alchLambda to 0.9500000000000003
Info: NONBONDED TABLE R-SQUARED SPACING: 0.0625
Info: NONBONDED TABLE SIZE: 705 POINTS
TCL: Setting parameter alchLambda2 to 1.0
Info: NONBONDED TABLE R-SQUARED SPACING: 0.0625
Info: NONBONDED TABLE SIZE: 705 POINTS
TCL: Running for 1500000 steps
ETITLE: TS BOND ANGLE DIHED IMPRP ELECT VDW BOUNDARY MISC KINETIC TOTAL TEMP POTENTIAL TOTALAVG TEMPAVG PRESSURE GPRESSURE VOLUME PRESSAVG GPRESSAVG
ENERGY: 0 1.1807 1.5316 0.0000 0.0000 -10830.1872 1505.4603 0.0000 0.0000 1791.7229 -7530.2918 307.1490 -9322.0146 -7530.2918 307.1490 431.9601 514.7868 30054.6129 431.9601 514.7868
ENERGY: 300000 0.2945 1.0137 0.0000 0.0000 -10553.5964 1363.4146 0.0000 0.0000 1759.4893 -7429.3842 301.6233 -9188.8735 -7485.1936 302.1763 -804.0554 -742.6224 31152.0533 -76.1564 -16.8243
ENERGY: 600000 1.1161 1.9599 0.0000 0.0000 -10498.6029 1368.5012 0.0000 0.0000 1765.5757 -7361.4499 302.6667 -9127.0257 -7466.3734 302.3892 -513.8945 -432.2266 30782.5234 -15.8883 53.8201
ENERGY: 900000 0.3633 1.8722 0.0000 0.0000 -10488.6940 1332.9452 0.0000 0.0000 1796.1066 -7357.4068 307.9005 -9153.5134 -7443.3275 302.9135 -635.8450 -572.5463 30636.8522 105.6191 164.6076
ENERGY: 1200000 0.8301 2.0133 0.0000 0.0000 -10641.6012 1439.7260 0.0000 0.0000 1757.5640 -7441.4678 301.2933 -9199.0318 -7451.9764 302.3727 -204.8527 -140.4298 31021.3107 -20.6197 44.9574
ENERGY: 1500000 0.9474 0.7284 0.0000 0.0000 -10716.0023 1418.9905 0.0000 0.0000 1829.6969 -7465.6391 313.6588 -9295.3360 -7459.5095 302.9383 -115.3284 -64.3843 29923.8705 -90.7544 -23.0843
TCL: Exiting due to exit command.
