Info: SIMULATION PARAMETERS:
Info: TIMESTEP               2
Info: NUMBER OF STEPS        0
Info: STEPS PER CYCLE        10
Info: PERIODIC CELL BASIS 1  34.647 0 0
Info: PERIODIC CELL BASIS 2  0 35.411 0
Info: PERIODIC CELL BASIS 3  0 0 35.723
Info: PERIODIC CELL CENTER   0 0 0
Info: WRAPPING WATERS AROUND PERIODIC BOUNDARIES ON OUTPUT.
Info: WRAPPING ALL CLUSTERS AROUND PERIODIC BOUNDARIES ON OUTPUT.
Info: FIRST LDB TIMESTEP     50
Info: LAST LDB TIMESTEP     -1
Info: HOM BACKGROUND SCALING 1
Info: PME BACKGROUND SCALING 1
Info: MIN ATOMS PER PATCH    40
Info: EMPTY PATCH LOAD       40 ATOMS
Info: INITIAL TEMPERATURE    300
Info: CENTER OF MASS MOVING INITIALLY? NO
Info: DIELECTRIC             1
Info: EXCLUDE                SCALED ONE-FOUR
Info: 1-4 ELECTROSTATICS SCALED BY 0.833333
Info: MODIFIED 1-4 VDW PARAMETERS WILL BE USED
Info: DCD FILENAME           mobley_1261349_equil.dcd
Info: DCD FREQUENCY          100000
Info: DCD FIRST STEP         100000
Info: DCD FILE WILL CONTAIN UNIT CELL DATA
Info: XST FILENAME           mobley_1261349_equil.xst
Info: XST FREQUENCY          100000
Info: NO VELOCITY DCD OUTPUT
Info: NO FORCE DCD OUTPUT
Info: OUTPUT FILENAME        mobley_1261349_equil
Info: BINARY OUTPUT FILES WILL BE USED
Info: RESTART FILENAME       mobley_1261349_equil.restart
Info: RESTART FREQUENCY      100000
Info: BINARY RESTART FILES WILL BE USED
Info: CUTOFF                 9
Info: PAIRLIST DISTANCE      11
Info: PAIRLIST SHRINK RATE   0.01
Info: PAIRLIST GROW RATE     0.01
Info: PAIRLIST TRIGGER       0.3
Info: PAIRLISTS PER CYCLE    2
Info: PAIRLISTS ENABLED
Info: MARGIN                 8
Info: HYDROGEN GROUP CUTOFF  2.5
Info: PATCH DIMENSION        21.5
Info: ENERGY OUTPUT STEPS    100000
Info: ENERGY EVALUATION STEPS    100000
Info: OUTPUT ENERGY PRECISION 4
Info: CROSSTERM ENERGY INCLUDED IN DIHEDRAL
Info: TIMING OUTPUT STEPS    1000000
Info: PRESSURE OUTPUT STEPS  100000
Info: LANGEVIN DYNAMICS ACTIVE
Info: LANGEVIN TEMPERATURE   30
Info: LANGEVIN USING BBK INTEGRATOR
Info: LANGEVIN DAMPING COEFFICIENT IS 1 INVERSE PS
Info: LANGEVIN DYNAMICS APPLIED TO HYDROGENS
Info: LANGEVIN PISTON PRESSURE CONTROL ACTIVE
Info:        TARGET PRESSURE IS 1.01325 BAR
Info:     OSCILLATION PERIOD IS 50 FS
Info:             DECAY TIME IS 25 FS
Info:     PISTON TEMPERATURE IS 300 K
Info:       PRESSURE CONTROL IS GROUP-BASED
Info:    INITIAL STRAIN RATE IS 0 0 0
Info:       CELL FLUCTUATION IS ISOTROPIC
Info: PARTICLE MESH EWALD (PME) ACTIVE
Info: PME TOLERANCE               1e-06
Info: PME EWALD COEFFICIENT       0.348832
Info: PME INTERPOLATION ORDER     4
Info: PME GRID DIMENSIONS         36 36 36
Info: PME MAXIMUM GRID SPACING    1
Info: FULL ELECTROSTATIC EVALUATION FREQUENCY      2
Info: USING VERLET I (r-RESPA) MTS SCHEME.
Info: C1 SPLITTING OF LONG RANGE ELECTROSTATICS
Info: PLACING ATOMS IN PATCHES BY HYDROGEN GROUPS
Info: RIGID BONDS TO HYDROGEN : ALL
Info:         ERROR TOLERANCE : 1e-08
Info:          MAX ITERATIONS : 100
Info: RIGID WATER USING SETTLE ALGORITHM
Info: RANDOM NUMBER SEED     1743213289
Info: USE HYDROGEN BONDS?    NO
Info: Using AMBER format force field!
Info: AMBER PARM FILE        mobley_1261349.prmtop
Info: COORDINATE PDB         mobley_1261349.pdb
Info: Exclusions will be read from PARM file!
Info: SCNB (VDW SCALING)     2
Info: USING ARITHMETIC MEAN TO COMBINE L-J SIGMA PARAMETERS
Info: BINARY COORDINATES     mobley_1261349_min.coor
Info: SUMMARY OF PARAMETERS:
Info: 4 BONDS
Info: 3 ANGLES
Info:   3 HARMONIC
Info:   0 COSINE-BASED
Info: 1 DIHEDRAL
Info: 0 IMPROPER
Info: 0 CROSSTERM
Info: 0 VDW
Info: 10 VDW_PAIRS
Info: 0 NBTHOLE_PAIRS
Info: STRUCTURE SUMMARY:
Info: 2939 ATOMS
Info: 2938 BONDS
Info: 30 ANGLES
Info: 36 DIHEDRALS
Info: 0 IMPROPERS
Info: 0 CROSSTERMS
Info: 3004 EXCLUSIONS
Info: 2934 RIGID BONDS
Info: 5883 DEGREES OF FREEDOM
Info: 979 HYDROGEN GROUPS
Info: 4 ATOMS IN LARGEST HYDROGEN GROUP
Info: 979 MIGRATION GROUPS
Info: 4 ATOMS IN LARGEST MIGRATION GROUP
Info: TOTAL MASS = 17619.7 amu
Info: TOTAL CHARGE = 0.000400018 e
Info: MASS DENSITY = 0.667585 g/cm^3
Info: ATOM DENSITY = 0.0670576 atoms/A^3
Info: ADDED 0 IMPLICIT EXCLUSIONS
Info: NONBONDED TABLE R-SQUARED SPACING: 0.0625
Info: NONBONDED TABLE SIZE: 705 POINTS
Info: REMOVING COM VELOCITY -0.0293945 0.0339771 0.119512
TCL: Running for 100000 steps
ETITLE: TS BOND ANGLE DIHED IMPRP ELECT VDW BOUNDARY MISC KINETIC TOTAL TEMP POTENTIAL TOTAL3 TEMPAVG PRESSURE GPRESSURE VOLUME PRESSAVG GPRESSAVG
ENERGY: 0 0.1612 0.7618 0.0027 0.0000 -13616.4841 2426.1395 0.0000 0.0000 1759.0957 -9430.3232 300.9408 -11189.4189 -9429.9813 300.9408 661.5849 694.6909 43828.0099 661.5849 694.6909
ENERGY: 100000 0.1116 1.2445 0.0692 0.0000 -14158.3795 2465.1354 0.0000 0.0000 171.9113 -11519.9075 29.4101 -11691.8188 -11519.4401 30.9623 -23.8317 14.6597 28549.1487 5.1607 5.1593
TCL: Running 100000 steps at 60 kelvin.
TCL: Setting parameter langevinTemp to 60
TCL: Running for 100000 steps
ETITLE: TS BOND ANGLE DIHED IMPRP ELECT VDW BOUNDARY MISC KINETIC TOTAL TEMP POTENTIAL TOTAL3 TEMPAVG PRESSURE GPRESSURE VOLUME PRESSAVG GPRESSAVG
ENERGY: 100000 0.1116 1.2445 0.0692 0.0000 -14158.3795 2465.1354 0.0000 0.0000 171.8240 -11519.9948 29.3951 -11691.8188 -11519.6719 29.3951 -52.0091 14.6783 28549.1487 -52.0091 14.6783
ENERGY: 200000 0.5470 2.4366 0.1875 0.0000 -13999.6548 2359.6731 0.0000 0.0000 360.9626 -11275.8480 61.7524 -11636.8106 -11275.1677 59.9518 -599.7171 -544.7285 28348.0385 3.9305 3.8897
TCL: Running 100000 steps at 90 kelvin.
TCL: Setting parameter langevinTemp to 90
TCL: Running for 100000 steps
ETITLE: TS BOND ANGLE DIHED IMPRP ELECT VDW BOUNDARY MISC KINETIC TOTAL TEMP POTENTIAL TOTAL3 TEMPAVG PRESSURE GPRESSURE VOLUME PRESSAVG GPRESSAVG
ENERGY: 200000 0.5470 2.4366 0.1875 0.0000 -13999.6548 2359.6731 0.0000 0.0000 360.7900 -11276.0206 61.7229 -11636.8106 -11275.2504 61.7229 -612.4550 -545.3636 28348.0385 -612.4550 -545.3636
ENERGY: 300000 0.7128 2.5373 0.0589 0.0000 -13688.9384 2187.5286 0.0000 0.0000 519.0849 -10979.0159 88.8035 -11498.1008 -10977.0431 89.8872 -1763.1129 -1707.7743 29004.7171 3.3022 3.4190
TCL: Running 100000 steps at 120 kelvin.
TCL: Setting parameter langevinTemp to 120
TCL: Running for 100000 steps
ETITLE: TS BOND ANGLE DIHED IMPRP ELECT VDW BOUNDARY MISC KINETIC TOTAL TEMP POTENTIAL TOTAL3 TEMPAVG PRESSURE GPRESSURE VOLUME PRESSAVG GPRESSAVG
ENERGY: 300000 0.7128 2.5373 0.0589 0.0000 -13688.9384 2187.5286 0.0000 0.0000 518.8282 -10979.2725 88.7596 -11498.1008 -10978.1204 88.7596 -1764.5195 -1707.1970 29004.7171 -1764.5195 -1707.1970
ENERGY: 400000 0.2184 4.9551 0.9248 0.0000 -13658.9677 2270.0827 0.0000 0.0000 695.3202 -10687.4666 118.9533 -11382.7868 -10685.5053 120.1608 -500.2149 -379.7477 28705.4121 3.6802 3.6579
TCL: Running 100000 steps at 150 kelvin.
TCL: Setting parameter langevinTemp to 150
TCL: Running for 100000 steps
ETITLE: TS BOND ANGLE DIHED IMPRP ELECT VDW BOUNDARY MISC KINETIC TOTAL TEMP POTENTIAL TOTAL3 TEMPAVG PRESSURE GPRESSURE VOLUME PRESSAVG GPRESSAVG
ENERGY: 400000 0.2184 4.9551 0.9248 0.0000 -13658.9677 2270.0827 0.0000 0.0000 694.9624 -10687.8244 118.8921 -11382.7868 -10685.9584 118.8921 -444.3188 -379.7094 28705.4121 -444.3188 -379.7094
ENERGY: 500000 0.4977 3.1583 0.2631 0.0000 -13440.4693 2222.1379 0.0000 0.0000 878.8140 -10335.5983 150.3448 -11214.4123 -10332.9562 149.5926 -348.3884 -310.2776 29060.2198 4.1246 4.0490
TCL: Running 100000 steps at 180 kelvin.
TCL: Setting parameter langevinTemp to 180
TCL: Running for 100000 steps
ETITLE: TS BOND ANGLE DIHED IMPRP ELECT VDW BOUNDARY MISC KINETIC TOTAL TEMP POTENTIAL TOTAL3 TEMPAVG PRESSURE GPRESSURE VOLUME PRESSAVG GPRESSAVG
ENERGY: 500000 0.4977 3.1583 0.2631 0.0000 -13440.4693 2222.1379 0.0000 0.0000 878.3838 -10336.0285 150.2712 -11214.4123 -10333.9889 150.2712 -369.3313 -309.5741 29060.2198 -369.3313 -309.5741
ENERGY: 600000 1.2677 3.3765 0.2543 0.0000 -13208.6888 2284.2022 0.0000 0.0000 1056.5902 -9862.9980 180.7582 -10919.5881 -9860.6545 179.8825 1278.9619 1373.8495 28685.7108 4.1546 4.1900
TCL: Running 100000 steps at 210 kelvin.
TCL: Setting parameter langevinTemp to 210
TCL: Running for 100000 steps
ETITLE: TS BOND ANGLE DIHED IMPRP ELECT VDW BOUNDARY MISC KINETIC TOTAL TEMP POTENTIAL TOTAL3 TEMPAVG PRESSURE GPRESSURE VOLUME PRESSAVG GPRESSAVG
ENERGY: 600000 1.2677 3.3765 0.2543 0.0000 -13208.6888 2284.2022 0.0000 0.0000 1056.0804 -9863.5078 180.6710 -10919.5881 -9861.6202 180.6710 1300.8269 1371.9996 28685.7108 1300.8269 1371.9996
ENERGY: 700000 2.0348 5.0314 0.2980 0.0000 -12453.3803 1979.0899 0.0000 0.0000 1229.2413 -9237.6849 210.2949 -10466.9262 -9234.1777 209.8735 989.1931 1040.4121 28231.8594 3.1472 3.2716
TCL: Running 100000 steps at 240 kelvin.
TCL: Setting parameter langevinTemp to 240
TCL: Running for 100000 steps
ETITLE: TS BOND ANGLE DIHED IMPRP ELECT VDW BOUNDARY MISC KINETIC TOTAL TEMP POTENTIAL TOTAL3 TEMPAVG PRESSURE GPRESSURE VOLUME PRESSAVG GPRESSAVG
ENERGY: 700000 2.0348 5.0314 0.2980 0.0000 -12453.3803 1979.0899 0.0000 0.0000 1228.6663 -9238.2599 210.1965 -10466.9262 -9236.2380 210.1965 978.8737 1040.4856 28231.8594 978.8737 1040.4856
ENERGY: 800000 0.9932 8.8563 0.5051 0.0000 -11779.6386 1698.5104 0.0000 0.0000 1353.8552 -8716.9185 231.6134 -10070.7737 -8715.2051 240.0284 -176.9969 -105.0860 28788.1054 3.6917 3.5280
TCL: Running 100000 steps at 270 kelvin.
TCL: Setting parameter langevinTemp to 270
TCL: Running for 100000 steps
ETITLE: TS BOND ANGLE DIHED IMPRP ELECT VDW BOUNDARY MISC KINETIC TOTAL TEMP POTENTIAL TOTAL3 TEMPAVG PRESSURE GPRESSURE VOLUME PRESSAVG GPRESSAVG
ENERGY: 800000 0.9932 8.8563 0.5051 0.0000 -11779.6386 1698.5104 0.0000 0.0000 1353.1803 -8717.5934 231.4980 -10070.7737 -8715.6166 231.4980 -193.0297 -105.4305 28788.1054 -193.0297 -105.4305
ENERGY: 900000 0.5741 6.0100 0.5127 0.0000 -11131.9313 1520.6482 0.0000 0.0000 1595.4560 -8008.7302 272.9458 -9604.1862 -8004.9925 269.7137 -409.5491 -357.1734 29763.2274 2.9650 2.9687
TCL: Running 1000000 steps at 300 kelvin.
TCL: Setting parameter langevinTemp to 300
TCL: Running for 1000000 steps
ETITLE: TS BOND ANGLE DIHED IMPRP ELECT VDW BOUNDARY MISC KINETIC TOTAL TEMP POTENTIAL TOTAL3 TEMPAVG PRESSURE GPRESSURE VOLUME PRESSAVG GPRESSAVG
ENERGY: 900000 0.5741 6.0100 0.5127 0.0000 -11131.9313 1520.6482 0.0000 0.0000 1594.6871 -8009.4991 272.8142 -9604.1862 -8006.2548 272.8142 -440.0803 -356.3752 29763.2274 -440.0803 -356.3752
ENERGY: 1100000 2.5245 8.6503 0.2889 0.0000 -10643.8668 1423.3182 0.0000 0.0000 1761.6999 -7447.3849 301.3863 -9209.0848 -7445.7212 300.4083 -155.0981 -111.0297 30496.1732 2.5931 2.6754
ENERGY: 1300000 0.6783 6.1547 0.2641 0.0000 -10662.5796 1465.6182 0.0000 0.0000 1784.8007 -7405.0637 305.3383 -9189.8643 -7401.6121 299.8868 282.9464 345.0392 30399.8309 3.3738 3.3805
ENERGY: 1500000 1.9999 8.7020 0.2602 0.0000 -10592.7944 1422.9092 0.0000 0.0000 1788.9695 -7369.9536 306.0515 -9158.9231 -7365.7528 300.6566 -162.8339 -62.3865 30839.4179 3.6855 3.6761
ENERGY: 1700000 2.6915 7.2540 0.7778 0.0000 -10721.1608 1498.6741 0.0000 0.0000 1725.0498 -7486.7137 295.1163 -9211.7635 -7482.1609 300.3046 835.6793 838.0358 29977.9573 3.1991 3.2462
ENERGY: 1900000 0.9930 6.9834 1.0314 0.0000 -10614.3731 1438.0892 0.0000 0.0000 1789.0885 -7378.1876 306.0718 -9167.2761 -7373.4805 300.0023 -214.0739 -47.3420 30715.0465 2.3920 2.2842
TCL: Exiting due to exit command.
