Info: SIMULATION PARAMETERS:
Info: TIMESTEP               2
Info: NUMBER OF STEPS        0
Info: STEPS PER CYCLE        10
Info: PERIODIC CELL BASIS 1  34.986 0 0
Info: PERIODIC CELL BASIS 2  0 34.26 0
Info: PERIODIC CELL BASIS 3  0 0 35.723
Info: PERIODIC CELL CENTER   0 0 0
Info: WRAPPING WATERS AROUND PERIODIC BOUNDARIES ON OUTPUT.
Info: WRAPPING ALL CLUSTERS AROUND PERIODIC BOUNDARIES ON OUTPUT.
Info: FIRST LDB TIMESTEP     50
Info: LAST LDB TIMESTEP     -1
Info: HOM BACKGROUND SCALING 1
Info: PME BACKGROUND SCALING 1
Info: MIN ATOMS PER PATCH    40
Info: EMPTY PATCH LOAD       40 ATOMS
Info: INITIAL TEMPERATURE    300
Info: CENTER OF MASS MOVING INITIALLY? NO
Info: DIELECTRIC             1
Info: EXCLUDE                SCALED ONE-FOUR
Info: 1-4 ELECTROSTATICS SCALED BY 0.833333
Info: MODIFIED 1-4 VDW PARAMETERS WILL BE USED
Info: DCD FILENAME           mobley_1967551_equil.dcd
Info: DCD FREQUENCY          100000
Info: DCD FIRST STEP         100000
Info: DCD FILE WILL CONTAIN UNIT CELL DATA
Info: XST FILENAME           mobley_1967551_equil.xst
Info: XST FREQUENCY          100000
Info: NO VELOCITY DCD OUTPUT
Info: NO FORCE DCD OUTPUT
Info: OUTPUT FILENAME        mobley_1967551_equil
Info: BINARY OUTPUT FILES WILL BE USED
Info: RESTART FILENAME       mobley_1967551_equil.restart
Info: RESTART FREQUENCY      100000
Info: BINARY RESTART FILES WILL BE USED
Info: CUTOFF                 9
Info: PAIRLIST DISTANCE      11
Info: PAIRLIST SHRINK RATE   0.01
Info: PAIRLIST GROW RATE     0.01
Info: PAIRLIST TRIGGER       0.3
Info: PAIRLISTS PER CYCLE    2
Info: PAIRLISTS ENABLED
Info: MARGIN                 8
Info: HYDROGEN GROUP CUTOFF  2.5
Info: PATCH DIMENSION        21.5
Info: ENERGY OUTPUT STEPS    100000
Info: ENERGY EVALUATION STEPS    100000
Info: OUTPUT ENERGY PRECISION 4
Info: CROSSTERM ENERGY INCLUDED IN DIHEDRAL
Info: TIMING OUTPUT STEPS    1000000
Info: PRESSURE OUTPUT STEPS  100000
Info: LANGEVIN DYNAMICS ACTIVE
Info: LANGEVIN TEMPERATURE   30
Info: LANGEVIN USING BBK INTEGRATOR
Info: LANGEVIN DAMPING COEFFICIENT IS 1 INVERSE PS
Info: LANGEVIN DYNAMICS APPLIED TO HYDROGENS
Info: LANGEVIN PISTON PRESSURE CONTROL ACTIVE
Info:        TARGET PRESSURE IS 1.01325 BAR
Info:     OSCILLATION PERIOD IS 50 FS
Info:             DECAY TIME IS 25 FS
Info:     PISTON TEMPERATURE IS 300 K
Info:       PRESSURE CONTROL IS GROUP-BASED
Info:    INITIAL STRAIN RATE IS 0 0 0
Info:       CELL FLUCTUATION IS ISOTROPIC
Info: PARTICLE MESH EWALD (PME) ACTIVE
Info: PME TOLERANCE               1e-06
Info: PME EWALD COEFFICIENT       0.348832
Info: PME INTERPOLATION ORDER     4
Info: PME GRID DIMENSIONS         36 36 36
Info: PME MAXIMUM GRID SPACING    1
Info: FULL ELECTROSTATIC EVALUATION FREQUENCY      2
Info: USING VERLET I (r-RESPA) MTS SCHEME.
Info: C1 SPLITTING OF LONG RANGE ELECTROSTATICS
Info: PLACING ATOMS IN PATCHES BY HYDROGEN GROUPS
Info: RIGID BONDS TO HYDROGEN : ALL
Info:         ERROR TOLERANCE : 1e-08
Info:          MAX ITERATIONS : 100
Info: RIGID WATER USING SETTLE ALGORITHM
Info: RANDOM NUMBER SEED     1743156494
Info: USE HYDROGEN BONDS?    NO
Info: Using AMBER format force field!
Info: AMBER PARM FILE        mobley_1967551.prmtop
Info: COORDINATE PDB         mobley_1967551.pdb
Info: Exclusions will be read from PARM file!
Info: SCNB (VDW SCALING)     2
Info: USING ARITHMETIC MEAN TO COMBINE L-J SIGMA PARAMETERS
Info: BINARY COORDINATES     mobley_1967551_min.coor
Info: SUMMARY OF PARAMETERS:
Info: 6 BONDS
Info: 5 ANGLES
Info:   5 HARMONIC
Info:   0 COSINE-BASED
Info: 5 DIHEDRAL
Info: 0 IMPROPER
Info: 0 CROSSTERM
Info: 0 VDW
Info: 28 VDW_PAIRS
Info: 0 NBTHOLE_PAIRS
Info: STRUCTURE SUMMARY:
Info: 2905 ATOMS
Info: 2904 BONDS
Info: 9 ANGLES
Info: 13 DIHEDRALS
Info: 0 IMPROPERS
Info: 0 CROSSTERMS
Info: 2919 EXCLUSIONS
Info: 2902 RIGID BONDS
Info: 5813 DEGREES OF FREEDOM
Info: 969 HYDROGEN GROUPS
Info: 4 ATOMS IN LARGEST HYDROGEN GROUP
Info: 969 MIGRATION GROUPS
Info: 4 ATOMS IN LARGEST MIGRATION GROUP
Info: TOTAL MASS = 17447.5 amu
Info: TOTAL CHARGE = 1.76951e-08 e
Info: MASS DENSITY = 0.676648 g/cm^3
Info: ATOM DENSITY = 0.0678448 atoms/A^3
Info: ADDED 0 IMPLICIT EXCLUSIONS
Info: NONBONDED TABLE R-SQUARED SPACING: 0.0625
Info: NONBONDED TABLE SIZE: 705 POINTS
Info: REMOVING COM VELOCITY -0.0013803 -0.0441093 0.0374823
TCL: Running for 100000 steps
ETITLE: TS BOND ANGLE DIHED IMPRP ELECT VDW BOUNDARY MISC KINETIC TOTAL TEMP POTENTIAL TOTAL3 TEMPAVG PRESSURE GPRESSURE VOLUME PRESSAVG GPRESSAVG
ENERGY: 0 0.0262 0.1638 2.4330 0.0000 -13452.7696 2360.6536 0.0000 0.0000 1715.5842 -9373.9088 297.0312 -11089.4930 -9373.5671 297.0312 419.5475 463.7605 42818.3151 419.5475 463.7605
ENERGY: 100000 0.2778 0.5754 2.5268 0.0000 -13955.3656 2388.4455 0.0000 0.0000 173.9398 -11389.6003 30.1154 -11563.5401 -11388.9207 30.9153 -533.0376 -487.4018 29149.8042 3.4158 3.3672
TCL: Running 100000 steps at 60 kelvin.
TCL: Setting parameter langevinTemp to 60
TCL: Running for 100000 steps
ETITLE: TS BOND ANGLE DIHED IMPRP ELECT VDW BOUNDARY MISC KINETIC TOTAL TEMP POTENTIAL TOTAL3 TEMPAVG PRESSURE GPRESSURE VOLUME PRESSAVG GPRESSAVG
ENERGY: 100000 0.2778 0.5754 2.5268 0.0000 -13955.3656 2388.4455 0.0000 0.0000 173.8537 -11389.6863 30.1005 -11563.5401 -11389.2926 30.1005 -535.9164 -487.1621 29149.8042 -535.9164 -487.1621
ENERGY: 200000 0.0936 0.5729 2.4078 0.0000 -13832.7377 2360.6724 0.0000 0.0000 353.1632 -11115.8279 61.1456 -11468.9911 -11114.8723 59.9747 -474.9671 -393.5506 29272.3446 3.7437 3.8253
TCL: Running 100000 steps at 90 kelvin.
TCL: Setting parameter langevinTemp to 90
TCL: Running for 100000 steps
ETITLE: TS BOND ANGLE DIHED IMPRP ELECT VDW BOUNDARY MISC KINETIC TOTAL TEMP POTENTIAL TOTAL3 TEMPAVG PRESSURE GPRESSURE VOLUME PRESSAVG GPRESSAVG
ENERGY: 200000 0.0936 0.5729 2.4078 0.0000 -13832.7377 2360.6724 0.0000 0.0000 352.9865 -11116.0045 61.1151 -11468.9911 -11115.3680 61.1151 -444.1561 -393.2624 29272.3446 -444.1561 -393.2624
ENERGY: 300000 0.5883 1.3887 2.4784 0.0000 -13669.9789 2271.4033 0.0000 0.0000 516.2735 -10877.8467 89.3861 -11394.1202 -10876.0054 89.9592 -650.0687 -583.6003 29037.9091 4.1414 4.1672
TCL: Running 100000 steps at 120 kelvin.
TCL: Setting parameter langevinTemp to 120
TCL: Running for 100000 steps
ETITLE: TS BOND ANGLE DIHED IMPRP ELECT VDW BOUNDARY MISC KINETIC TOTAL TEMP POTENTIAL TOTAL3 TEMPAVG PRESSURE GPRESSURE VOLUME PRESSAVG GPRESSAVG
ENERGY: 300000 0.5883 1.3887 2.4784 0.0000 -13669.9789 2271.4033 0.0000 0.0000 516.0230 -10878.0972 89.3427 -11394.1202 -10877.1093 89.3427 -647.7775 -583.3537 29037.9091 -647.7775 -583.3537
ENERGY: 400000 0.1575 0.5699 2.6747 0.0000 -13600.4214 2287.0206 0.0000 0.0000 701.9250 -10608.0737 121.5292 -11309.9987 -10605.6511 119.9793 -178.9892 -164.4815 28513.1622 3.8513 3.8916
TCL: Running 100000 steps at 150 kelvin.
TCL: Setting parameter langevinTemp to 150
TCL: Running for 100000 steps
ETITLE: TS BOND ANGLE DIHED IMPRP ELECT VDW BOUNDARY MISC KINETIC TOTAL TEMP POTENTIAL TOTAL3 TEMPAVG PRESSURE GPRESSURE VOLUME PRESSAVG GPRESSAVG
ENERGY: 400000 0.1575 0.5699 2.6747 0.0000 -13600.4214 2287.0206 0.0000 0.0000 701.5900 -10608.4087 121.4712 -11309.9987 -10607.0280 121.4712 -217.2057 -163.9363 28513.1622 -217.2057 -163.9363
ENERGY: 500000 1.1758 0.9981 2.6482 0.0000 -13361.3780 2186.6304 0.0000 0.0000 856.4850 -10313.4406 148.2893 -11169.9255 -10312.1363 149.8561 -478.0990 -419.9046 28529.2696 3.7991 3.6092
TCL: Running 100000 steps at 180 kelvin.
TCL: Setting parameter langevinTemp to 180
TCL: Running for 100000 steps
ETITLE: TS BOND ANGLE DIHED IMPRP ELECT VDW BOUNDARY MISC KINETIC TOTAL TEMP POTENTIAL TOTAL3 TEMPAVG PRESSURE GPRESSURE VOLUME PRESSAVG GPRESSAVG
ENERGY: 500000 1.1758 0.9981 2.6482 0.0000 -13361.3780 2186.6304 0.0000 0.0000 856.0457 -10313.8799 148.2132 -11169.9255 -10311.9429 148.2132 -486.6388 -421.5877 28529.2696 -486.6388 -421.5877
ENERGY: 600000 0.0265 2.1415 2.4411 0.0000 -13004.9108 2147.7187 0.0000 0.0000 1068.9525 -9783.6306 185.0753 -10852.5830 -9779.8736 179.7117 286.3129 397.2537 28587.8680 4.2382 4.0553
TCL: Running 100000 steps at 210 kelvin.
TCL: Setting parameter langevinTemp to 210
TCL: Running for 100000 steps
ETITLE: TS BOND ANGLE DIHED IMPRP ELECT VDW BOUNDARY MISC KINETIC TOTAL TEMP POTENTIAL TOTAL3 TEMPAVG PRESSURE GPRESSURE VOLUME PRESSAVG GPRESSAVG
ENERGY: 600000 0.0265 2.1415 2.4411 0.0000 -13004.9108 2147.7187 0.0000 0.0000 1068.4113 -9784.1717 184.9816 -10852.5830 -9781.8008 184.9816 339.7943 399.3218 28587.8680 339.7943 399.3218
ENERGY: 700000 0.1998 3.0481 2.6219 0.0000 -12207.3908 1791.7892 0.0000 0.0000 1221.6956 -9188.0362 211.5208 -10409.7318 -9183.8439 209.2134 -1025.1156 -951.9959 28635.1819 2.3419 2.4291
TCL: Running 100000 steps at 240 kelvin.
TCL: Setting parameter langevinTemp to 240
TCL: Running for 100000 steps
ETITLE: TS BOND ANGLE DIHED IMPRP ELECT VDW BOUNDARY MISC KINETIC TOTAL TEMP POTENTIAL TOTAL3 TEMPAVG PRESSURE GPRESSURE VOLUME PRESSAVG GPRESSAVG
ENERGY: 700000 0.1998 3.0481 2.6219 0.0000 -12207.3908 1791.7892 0.0000 0.0000 1221.0919 -9188.6399 211.4163 -10409.7318 -9186.6198 211.4163 -1035.4590 -950.9689 28635.1819 -1035.4590 -950.9689
ENERGY: 800000 0.1742 2.1172 3.5708 0.0000 -11706.5167 1668.5618 0.0000 0.0000 1381.6244 -8650.4683 239.2104 -10032.0927 -8645.9541 238.8759 -654.5858 -551.4667 28723.0660 2.6741 2.6513
TCL: Running 100000 steps at 270 kelvin.
TCL: Setting parameter langevinTemp to 270
TCL: Running for 100000 steps
ETITLE: TS BOND ANGLE DIHED IMPRP ELECT VDW BOUNDARY MISC KINETIC TOTAL TEMP POTENTIAL TOTAL3 TEMPAVG PRESSURE GPRESSURE VOLUME PRESSAVG GPRESSAVG
ENERGY: 800000 0.1742 2.1172 3.5708 0.0000 -11706.5167 1668.5618 0.0000 0.0000 1380.9354 -8651.1573 239.0911 -10032.0927 -8648.5571 239.0911 -620.9002 -549.9453 28723.0660 -620.9002 -549.9453
ENERGY: 900000 0.3365 2.8808 2.7441 0.0000 -11043.3894 1540.7688 0.0000 0.0000 1496.6120 -8000.0472 259.1190 -9496.6591 -7994.6417 270.3719 -278.1743 -245.0721 29747.6553 2.7916 2.7481
TCL: Running 1000000 steps at 300 kelvin.
TCL: Setting parameter langevinTemp to 300
TCL: Running for 1000000 steps
ETITLE: TS BOND ANGLE DIHED IMPRP ELECT VDW BOUNDARY MISC KINETIC TOTAL TEMP POTENTIAL TOTAL3 TEMPAVG PRESSURE GPRESSURE VOLUME PRESSAVG GPRESSAVG
ENERGY: 900000 0.3365 2.8808 2.7441 0.0000 -11043.3894 1540.7688 0.0000 0.0000 1495.8446 -8000.8145 258.9862 -9496.6591 -7998.1140 258.9862 -334.2400 -242.2947 29747.6553 -334.2400 -242.2947
ENERGY: 1100000 0.0459 3.5662 2.4364 0.0000 -10585.4502 1470.7529 0.0000 0.0000 1723.0599 -7385.5888 298.3255 -9108.6487 -7382.7570 300.2078 487.9691 542.3271 30062.7909 3.7038 3.6620
ENERGY: 1300000 0.3295 3.9794 2.9909 0.0000 -10498.5548 1421.7388 0.0000 0.0000 1684.6509 -7384.8652 291.6755 -9069.5161 -7381.5513 299.8902 -12.9689 44.4049 30106.4405 2.7850 2.4862
ENERGY: 1500000 0.1849 1.5112 2.5176 0.0000 -10491.3850 1382.5467 0.0000 0.0000 1742.4128 -7362.2119 301.6762 -9104.6247 -7357.5744 300.0208 -439.8112 -362.2497 30618.0965 3.3324 3.1091
ENERGY: 1700000 0.0355 1.2904 3.2049 0.0000 -10481.5813 1375.0504 0.0000 0.0000 1741.9789 -7360.0212 301.6011 -9102.0001 -7358.1952 300.4751 -424.0424 -296.7726 30200.0574 3.9058 3.9589
ENERGY: 1900000 2.4099 4.5407 2.5871 0.0000 -10588.0464 1462.8077 0.0000 0.0000 1697.6430 -7418.0580 293.9249 -9115.7010 -7414.4662 299.0290 190.1366 252.1379 30295.9136 3.1230 3.1290
TCL: Exiting due to exit command.
