Info: SIMULATION PARAMETERS:
Info: TIMESTEP               2
Info: NUMBER OF STEPS        0
Info: STEPS PER CYCLE        10
Info: PERIODIC CELL BASIS 1  36.005 0 0
Info: PERIODIC CELL BASIS 2  0 35.411 0
Info: PERIODIC CELL BASIS 3  0 0 34.954
Info: PERIODIC CELL CENTER   0 0 0
Info: WRAPPING WATERS AROUND PERIODIC BOUNDARIES ON OUTPUT.
Info: WRAPPING ALL CLUSTERS AROUND PERIODIC BOUNDARIES ON OUTPUT.
Info: FIRST LDB TIMESTEP     50
Info: LAST LDB TIMESTEP     -1
Info: HOM BACKGROUND SCALING 1
Info: PME BACKGROUND SCALING 1
Info: MIN ATOMS PER PATCH    40
Info: EMPTY PATCH LOAD       40 ATOMS
Info: INITIAL TEMPERATURE    300
Info: CENTER OF MASS MOVING INITIALLY? NO
Info: DIELECTRIC             1
Info: EXCLUDE                SCALED ONE-FOUR
Info: 1-4 ELECTROSTATICS SCALED BY 0.833333
Info: MODIFIED 1-4 VDW PARAMETERS WILL BE USED
Info: DCD FILENAME           mobley_2410897_equil.dcd
Info: DCD FREQUENCY          100000
Info: DCD FIRST STEP         100000
Info: DCD FILE WILL CONTAIN UNIT CELL DATA
Info: XST FILENAME           mobley_2410897_equil.xst
Info: XST FREQUENCY          100000
Info: NO VELOCITY DCD OUTPUT
Info: NO FORCE DCD OUTPUT
Info: OUTPUT FILENAME        mobley_2410897_equil
Info: BINARY OUTPUT FILES WILL BE USED
Info: RESTART FILENAME       mobley_2410897_equil.restart
Info: RESTART FREQUENCY      100000
Info: BINARY RESTART FILES WILL BE USED
Info: CUTOFF                 9
Info: PAIRLIST DISTANCE      11
Info: PAIRLIST SHRINK RATE   0.01
Info: PAIRLIST GROW RATE     0.01
Info: PAIRLIST TRIGGER       0.3
Info: PAIRLISTS PER CYCLE    2
Info: PAIRLISTS ENABLED
Info: MARGIN                 8
Info: HYDROGEN GROUP CUTOFF  2.5
Info: PATCH DIMENSION        21.5
Info: ENERGY OUTPUT STEPS    100000
Info: ENERGY EVALUATION STEPS    100000
Info: OUTPUT ENERGY PRECISION 4
Info: CROSSTERM ENERGY INCLUDED IN DIHEDRAL
Info: TIMING OUTPUT STEPS    1000000
Info: PRESSURE OUTPUT STEPS  100000
Info: LANGEVIN DYNAMICS ACTIVE
Info: LANGEVIN TEMPERATURE   30
Info: LANGEVIN USING BBK INTEGRATOR
Info: LANGEVIN DAMPING COEFFICIENT IS 1 INVERSE PS
Info: LANGEVIN DYNAMICS APPLIED TO HYDROGENS
Info: LANGEVIN PISTON PRESSURE CONTROL ACTIVE
Info:        TARGET PRESSURE IS 1.01325 BAR
Info:     OSCILLATION PERIOD IS 50 FS
Info:             DECAY TIME IS 25 FS
Info:     PISTON TEMPERATURE IS 300 K
Info:       PRESSURE CONTROL IS GROUP-BASED
Info:    INITIAL STRAIN RATE IS 0 0 0
Info:       CELL FLUCTUATION IS ISOTROPIC
Info: PARTICLE MESH EWALD (PME) ACTIVE
Info: PME TOLERANCE               1e-06
Info: PME EWALD COEFFICIENT       0.348832
Info: PME INTERPOLATION ORDER     4
Info: PME GRID DIMENSIONS         40 36 36
Info: PME MAXIMUM GRID SPACING    1
Info: FULL ELECTROSTATIC EVALUATION FREQUENCY      2
Info: USING VERLET I (r-RESPA) MTS SCHEME.
Info: C1 SPLITTING OF LONG RANGE ELECTROSTATICS
Info: PLACING ATOMS IN PATCHES BY HYDROGEN GROUPS
Info: RIGID BONDS TO HYDROGEN : ALL
Info:         ERROR TOLERANCE : 1e-08
Info:          MAX ITERATIONS : 100
Info: RIGID WATER USING SETTLE ALGORITHM
Info: RANDOM NUMBER SEED     1743160338
Info: USE HYDROGEN BONDS?    NO
Info: Using AMBER format force field!
Info: AMBER PARM FILE        mobley_2410897.prmtop
Info: COORDINATE PDB         mobley_2410897.pdb
Info: Exclusions will be read from PARM file!
Info: SCNB (VDW SCALING)     2
Info: USING ARITHMETIC MEAN TO COMBINE L-J SIGMA PARAMETERS
Info: BINARY COORDINATES     mobley_2410897_min.coor
Info: SUMMARY OF PARAMETERS:
Info: 7 BONDS
Info: 8 ANGLES
Info:   8 HARMONIC
Info:   0 COSINE-BASED
Info: 2 DIHEDRAL
Info: 0 IMPROPER
Info: 0 CROSSTERM
Info: 0 VDW
Info: 28 VDW_PAIRS
Info: 0 NBTHOLE_PAIRS
Info: STRUCTURE SUMMARY:
Info: 2962 ATOMS
Info: 2961 BONDS
Info: 15 ANGLES
Info: 15 DIHEDRALS
Info: 0 IMPROPERS
Info: 0 CROSSTERMS
Info: 2991 EXCLUSIONS
Info: 2959 RIGID BONDS
Info: 5927 DEGREES OF FREEDOM
Info: 987 HYDROGEN GROUPS
Info: 4 ATOMS IN LARGEST HYDROGEN GROUP
Info: 987 MIGRATION GROUPS
Info: 4 ATOMS IN LARGEST MIGRATION GROUP
Info: TOTAL MASS = 17772.8 amu
Info: TOTAL CHARGE = -0.000100013 e
Info: MASS DENSITY = 0.662244 g/cm^3
Info: ATOM DENSITY = 0.0664641 atoms/A^3
Info: ADDED 0 IMPLICIT EXCLUSIONS
Info: NONBONDED TABLE R-SQUARED SPACING: 0.0625
Info: NONBONDED TABLE SIZE: 705 POINTS
Info: REMOVING COM VELOCITY -0.0750396 0.15032 -0.0294194
TCL: Running for 100000 steps
ETITLE: TS BOND ANGLE DIHED IMPRP ELECT VDW BOUNDARY MISC KINETIC TOTAL TEMP POTENTIAL TOTAL3 TEMPAVG PRESSURE GPRESSURE VOLUME PRESSAVG GPRESSAVG
ENERGY: 0 0.0052 0.2609 0.0509 0.0000 -13722.6218 2453.3359 0.0000 0.0000 1754.8607 -9514.1082 297.9875 -11268.9689 -9513.7458 297.9875 715.5356 746.6918 44565.4082 715.5356 746.6918
ENERGY: 100000 0.0619 0.7835 0.1247 0.0000 -14277.7777 2466.4942 0.0000 0.0000 179.9097 -11630.4036 30.5499 -11810.3134 -11629.8359 30.9938 -146.6885 -117.1660 28895.1354 3.0803 3.0652
TCL: Running 100000 steps at 60 kelvin.
TCL: Setting parameter langevinTemp to 60
TCL: Running for 100000 steps
ETITLE: TS BOND ANGLE DIHED IMPRP ELECT VDW BOUNDARY MISC KINETIC TOTAL TEMP POTENTIAL TOTAL3 TEMPAVG PRESSURE GPRESSURE VOLUME PRESSAVG GPRESSAVG
ENERGY: 100000 0.0619 0.7835 0.1247 0.0000 -14277.7777 2466.4942 0.0000 0.0000 179.8248 -11630.4885 30.5355 -11810.3134 -11630.0988 30.5355 -162.6168 -117.0744 28895.1354 -162.6168 -117.0744
ENERGY: 200000 0.1476 1.8971 0.3190 0.0000 -14272.0630 2525.2638 0.0000 0.0000 358.6274 -11385.8081 60.8974 -11744.4356 -11384.5908 59.8823 655.6136 674.8768 28968.7567 4.1941 4.2386
TCL: Running 100000 steps at 90 kelvin.
TCL: Setting parameter langevinTemp to 90
TCL: Running for 100000 steps
ETITLE: TS BOND ANGLE DIHED IMPRP ELECT VDW BOUNDARY MISC KINETIC TOTAL TEMP POTENTIAL TOTAL3 TEMPAVG PRESSURE GPRESSURE VOLUME PRESSAVG GPRESSAVG
ENERGY: 200000 0.1476 1.8971 0.3190 0.0000 -14272.0630 2525.2638 0.0000 0.0000 358.4449 -11385.9906 60.8664 -11744.4356 -11385.3815 60.8664 622.9188 675.4960 28968.7567 622.9188 675.4960
ENERGY: 300000 0.0499 1.6591 0.4551 0.0000 -13982.3856 2372.3415 0.0000 0.0000 517.9178 -11089.9623 87.9460 -11607.8800 -11088.6487 89.9098 -26.3800 -34.0288 28741.9437 3.3940 3.4937
TCL: Running 100000 steps at 120 kelvin.
TCL: Setting parameter langevinTemp to 120
TCL: Running for 100000 steps
ETITLE: TS BOND ANGLE DIHED IMPRP ELECT VDW BOUNDARY MISC KINETIC TOTAL TEMP POTENTIAL TOTAL3 TEMPAVG PRESSURE GPRESSURE VOLUME PRESSAVG GPRESSAVG
ENERGY: 300000 0.0499 1.6591 0.4551 0.0000 -13982.3856 2372.3415 0.0000 0.0000 517.6522 -11090.2278 87.9009 -11607.8800 -11089.3016 87.9009 -67.6375 -33.4927 28741.9437 -67.6375 -33.4927
ENERGY: 400000 0.1080 2.0954 0.2291 0.0000 -13874.7192 2350.7791 0.0000 0.0000 695.3156 -10826.1920 118.0694 -11521.5076 -10824.9122 119.7783 179.8611 215.6243 28628.7568 3.4555 3.5049
TCL: Running 100000 steps at 150 kelvin.
TCL: Setting parameter langevinTemp to 150
TCL: Running for 100000 steps
ETITLE: TS BOND ANGLE DIHED IMPRP ELECT VDW BOUNDARY MISC KINETIC TOTAL TEMP POTENTIAL TOTAL3 TEMPAVG PRESSURE GPRESSURE VOLUME PRESSAVG GPRESSAVG
ENERGY: 400000 0.1080 2.0954 0.2291 0.0000 -13874.7192 2350.7791 0.0000 0.0000 694.9636 -10826.5440 118.0097 -11521.5076 -10825.1783 118.0097 164.8563 214.4144 28628.7568 164.8563 214.4144
ENERGY: 500000 0.3758 2.1770 0.2065 0.0000 -13529.9447 2195.1118 0.0000 0.0000 870.2511 -10461.8224 147.7747 -11332.0736 -10459.6815 149.9654 -652.9243 -625.0043 28958.2025 5.6818 5.6993
TCL: Running 100000 steps at 180 kelvin.
TCL: Setting parameter langevinTemp to 180
TCL: Running for 100000 steps
ETITLE: TS BOND ANGLE DIHED IMPRP ELECT VDW BOUNDARY MISC KINETIC TOTAL TEMP POTENTIAL TOTAL3 TEMPAVG PRESSURE GPRESSURE VOLUME PRESSAVG GPRESSAVG
ENERGY: 500000 0.3758 2.1770 0.2065 0.0000 -13529.9447 2195.1118 0.0000 0.0000 869.8320 -10462.2415 147.7035 -11332.0736 -10460.0953 147.7035 -664.7940 -625.0489 28958.2025 -664.7940 -625.0489
ENERGY: 600000 0.0616 2.9324 0.7686 0.0000 -13198.8391 2139.6589 0.0000 0.0000 1062.2317 -9993.1859 180.3743 -11055.4177 -9991.7147 180.0100 -114.8797 -61.0613 29157.3348 4.5724 4.5532
TCL: Running 100000 steps at 210 kelvin.
TCL: Setting parameter langevinTemp to 210
TCL: Running for 100000 steps
ETITLE: TS BOND ANGLE DIHED IMPRP ELECT VDW BOUNDARY MISC KINETIC TOTAL TEMP POTENTIAL TOTAL3 TEMPAVG PRESSURE GPRESSURE VOLUME PRESSAVG GPRESSAVG
ENERGY: 600000 0.0616 2.9324 0.7686 0.0000 -13198.8391 2139.6589 0.0000 0.0000 1061.6883 -9993.7294 180.2820 -11055.4177 -9992.0158 180.2820 -118.0095 -61.1772 29157.3348 -118.0095 -61.1772
ENERGY: 700000 0.1511 1.5174 0.2422 0.0000 -12485.8719 1923.0248 0.0000 0.0000 1303.4087 -9257.5277 221.3279 -10560.9364 -9255.4521 209.8701 -75.4952 43.6355 29142.8379 4.0020 3.9140
TCL: Running 100000 steps at 240 kelvin.
TCL: Setting parameter langevinTemp to 240
TCL: Running for 100000 steps
ETITLE: TS BOND ANGLE DIHED IMPRP ELECT VDW BOUNDARY MISC KINETIC TOTAL TEMP POTENTIAL TOTAL3 TEMPAVG PRESSURE GPRESSURE VOLUME PRESSAVG GPRESSAVG
ENERGY: 700000 0.1511 1.5174 0.2422 0.0000 -12485.8719 1923.0248 0.0000 0.0000 1302.7859 -9258.1505 221.2221 -10560.9364 -9256.1453 221.2221 -61.9301 41.5372 29142.8379 -61.9301 41.5372
ENERGY: 800000 0.4363 2.3888 0.6764 0.0000 -11785.4625 1640.4909 0.0000 0.0000 1410.8208 -8730.6494 239.5672 -10141.4702 -8725.9043 240.7123 -750.6635 -695.8772 29330.7180 2.2557 2.3161
TCL: Running 100000 steps at 270 kelvin.
TCL: Setting parameter langevinTemp to 270
TCL: Running for 100000 steps
ETITLE: TS BOND ANGLE DIHED IMPRP ELECT VDW BOUNDARY MISC KINETIC TOTAL TEMP POTENTIAL TOTAL3 TEMPAVG PRESSURE GPRESSURE VOLUME PRESSAVG GPRESSAVG
ENERGY: 800000 0.4363 2.3888 0.6764 0.0000 -11785.4625 1640.4909 0.0000 0.0000 1410.1015 -8731.3687 239.4450 -10141.4702 -8728.8224 239.4450 -770.7945 -694.1581 29330.7180 -770.7945 -694.1581
ENERGY: 900000 0.6142 4.1784 0.5561 0.0000 -11275.9305 1609.9448 0.0000 0.0000 1568.6757 -8091.9613 266.3720 -9660.6370 -8091.4500 270.6890 202.3600 228.7993 30072.9640 1.9058 1.9357
TCL: Running 1000000 steps at 300 kelvin.
TCL: Setting parameter langevinTemp to 300
TCL: Running for 1000000 steps
ETITLE: TS BOND ANGLE DIHED IMPRP ELECT VDW BOUNDARY MISC KINETIC TOTAL TEMP POTENTIAL TOTAL3 TEMPAVG PRESSURE GPRESSURE VOLUME PRESSAVG GPRESSAVG
ENERGY: 900000 0.6142 4.1784 0.5561 0.0000 -11275.9305 1609.9448 0.0000 0.0000 1567.8827 -8092.7543 266.2374 -9660.6370 -8090.4255 266.2374 130.4182 226.1402 30072.9640 130.4182 226.1402
ENERGY: 1100000 0.1398 3.6571 0.2215 0.0000 -10809.4942 1418.2119 0.0000 0.0000 1701.8465 -7685.4175 288.9854 -9387.2640 -7682.3645 299.3477 -338.1088 -276.4926 30210.5733 2.0495 1.9483
ENERGY: 1300000 0.5603 3.7602 0.1536 0.0000 -10760.8440 1436.6378 0.0000 0.0000 1782.0929 -7537.6390 302.6118 -9319.7319 -7532.8394 300.2679 -111.5240 -64.9593 30506.5272 3.2054 3.1908
ENERGY: 1500000 0.0444 5.3490 1.2160 0.0000 -10745.8626 1450.9449 0.0000 0.0000 1740.0110 -7548.2973 295.4660 -9288.3083 -7543.4032 299.9427 -294.2206 -192.0847 30996.3512 4.7326 4.5621
ENERGY: 1700000 0.2754 4.8730 0.4744 0.0000 -10863.8715 1484.0818 0.0000 0.0000 1802.6499 -7571.5169 306.1025 -9374.1669 -7570.2033 300.1006 253.3641 299.0651 30197.8941 1.7536 1.9380
ENERGY: 1900000 1.5537 1.7096 0.0746 0.0000 -10791.4069 1422.9874 0.0000 0.0000 1773.9684 -7591.1132 301.2322 -9365.0816 -7587.8049 299.2643 -295.9383 -124.6102 30115.5819 3.3573 3.2489
TCL: Exiting due to exit command.
