Info: SIMULATION PARAMETERS:
Info: TIMESTEP               2
Info: NUMBER OF STEPS        0
Info: STEPS PER CYCLE        10
Info: PERIODIC CELL BASIS 1  34.647 0 0
Info: PERIODIC CELL BASIS 2  0 32.293 0
Info: PERIODIC CELL BASIS 3  0 0 38.617
Info: PERIODIC CELL CENTER   0 0 0
Info: WRAPPING WATERS AROUND PERIODIC BOUNDARIES ON OUTPUT.
Info: WRAPPING ALL CLUSTERS AROUND PERIODIC BOUNDARIES ON OUTPUT.
Info: FIRST LDB TIMESTEP     50
Info: LAST LDB TIMESTEP     -1
Info: HOM BACKGROUND SCALING 1
Info: PME BACKGROUND SCALING 1
Info: MIN ATOMS PER PATCH    40
Info: EMPTY PATCH LOAD       40 ATOMS
Info: INITIAL TEMPERATURE    300
Info: CENTER OF MASS MOVING INITIALLY? NO
Info: DIELECTRIC             1
Info: EXCLUDE                SCALED ONE-FOUR
Info: 1-4 ELECTROSTATICS SCALED BY 0.833333
Info: MODIFIED 1-4 VDW PARAMETERS WILL BE USED
Info: DCD FILENAME           mobley_2295058_equil.dcd
Info: DCD FREQUENCY          100000
Info: DCD FIRST STEP         100000
Info: DCD FILE WILL CONTAIN UNIT CELL DATA
Info: XST FILENAME           mobley_2295058_equil.xst
Info: XST FREQUENCY          100000
Info: NO VELOCITY DCD OUTPUT
Info: NO FORCE DCD OUTPUT
Info: OUTPUT FILENAME        mobley_2295058_equil
Info: BINARY OUTPUT FILES WILL BE USED
Info: RESTART FILENAME       mobley_2295058_equil.restart
Info: RESTART FREQUENCY      100000
Info: BINARY RESTART FILES WILL BE USED
Info: CUTOFF                 9
Info: PAIRLIST DISTANCE      11
Info: PAIRLIST SHRINK RATE   0.01
Info: PAIRLIST GROW RATE     0.01
Info: PAIRLIST TRIGGER       0.3
Info: PAIRLISTS PER CYCLE    2
Info: PAIRLISTS ENABLED
Info: MARGIN                 8
Info: HYDROGEN GROUP CUTOFF  2.5
Info: PATCH DIMENSION        21.5
Info: ENERGY OUTPUT STEPS    100000
Info: ENERGY EVALUATION STEPS    100000
Info: OUTPUT ENERGY PRECISION 4
Info: CROSSTERM ENERGY INCLUDED IN DIHEDRAL
Info: TIMING OUTPUT STEPS    1000000
Info: PRESSURE OUTPUT STEPS  100000
Info: LANGEVIN DYNAMICS ACTIVE
Info: LANGEVIN TEMPERATURE   30
Info: LANGEVIN USING BBK INTEGRATOR
Info: LANGEVIN DAMPING COEFFICIENT IS 1 INVERSE PS
Info: LANGEVIN DYNAMICS APPLIED TO HYDROGENS
Info: LANGEVIN PISTON PRESSURE CONTROL ACTIVE
Info:        TARGET PRESSURE IS 1.01325 BAR
Info:     OSCILLATION PERIOD IS 50 FS
Info:             DECAY TIME IS 25 FS
Info:     PISTON TEMPERATURE IS 300 K
Info:       PRESSURE CONTROL IS GROUP-BASED
Info:    INITIAL STRAIN RATE IS 0 0 0
Info:       CELL FLUCTUATION IS ISOTROPIC
Info: PARTICLE MESH EWALD (PME) ACTIVE
Info: PME TOLERANCE               1e-06
Info: PME EWALD COEFFICIENT       0.348832
Info: PME INTERPOLATION ORDER     4
Info: PME GRID DIMENSIONS         36 36 40
Info: PME MAXIMUM GRID SPACING    1
Info: FULL ELECTROSTATIC EVALUATION FREQUENCY      2
Info: USING VERLET I (r-RESPA) MTS SCHEME.
Info: C1 SPLITTING OF LONG RANGE ELECTROSTATICS
Info: PLACING ATOMS IN PATCHES BY HYDROGEN GROUPS
Info: RIGID BONDS TO HYDROGEN : ALL
Info:         ERROR TOLERANCE : 1e-08
Info:          MAX ITERATIONS : 100
Info: RIGID WATER USING SETTLE ALGORITHM
Info: RANDOM NUMBER SEED     1743233033
Info: USE HYDROGEN BONDS?    NO
Info: Using AMBER format force field!
Info: AMBER PARM FILE        mobley_2295058.prmtop
Info: COORDINATE PDB         mobley_2295058.pdb
Info: Exclusions will be read from PARM file!
Info: SCNB (VDW SCALING)     2
Info: USING ARITHMETIC MEAN TO COMBINE L-J SIGMA PARAMETERS
Info: BINARY COORDINATES     mobley_2295058_min.coor
Info: SUMMARY OF PARAMETERS:
Info: 11 BONDS
Info: 11 ANGLES
Info:   11 HARMONIC
Info:   0 COSINE-BASED
Info: 7 DIHEDRAL
Info: 0 IMPROPER
Info: 0 CROSSTERM
Info: 0 VDW
Info: 45 VDW_PAIRS
Info: 0 NBTHOLE_PAIRS
Info: STRUCTURE SUMMARY:
Info: 2938 ATOMS
Info: 2938 BONDS
Info: 29 ANGLES
Info: 43 DIHEDRALS
Info: 0 IMPROPERS
Info: 0 CROSSTERMS
Info: 2999 EXCLUSIONS
Info: 2927 RIGID BONDS
Info: 5887 DEGREES OF FREEDOM
Info: 984 HYDROGEN GROUPS
Info: 4 ATOMS IN LARGEST HYDROGEN GROUP
Info: 984 MIGRATION GROUPS
Info: 4 ATOMS IN LARGEST MIGRATION GROUP
Info: TOTAL MASS = 17681.7 amu
Info: TOTAL CHARGE = -0.000200037 e
Info: MASS DENSITY = 0.679565 g/cm^3
Info: ATOM DENSITY = 0.0679985 atoms/A^3
Info: ADDED 0 IMPLICIT EXCLUSIONS
Info: NONBONDED TABLE R-SQUARED SPACING: 0.0625
Info: NONBONDED TABLE SIZE: 705 POINTS
Info: REMOVING COM VELOCITY -0.0268226 -0.0500657 0.144107
TCL: Running for 100000 steps
ETITLE: TS BOND ANGLE DIHED IMPRP ELECT VDW BOUNDARY MISC KINETIC TOTAL TEMP POTENTIAL TOTAL3 TEMPAVG PRESSURE GPRESSURE VOLUME PRESSAVG GPRESSAVG
ENERGY: 0 0.3078 0.3971 0.0715 0.0000 -13676.5646 2412.2952 0.0000 0.0000 1704.4940 -9558.9990 291.4015 -11263.4930 -9558.6820 291.4015 366.9950 397.5954 43206.8456 366.9950 397.5954
ENERGY: 100000 0.9581 0.8246 0.7225 0.0000 -14179.4960 2518.2451 0.0000 0.0000 175.3788 -11483.3669 29.9829 -11658.7457 -11483.0097 30.8633 504.3922 582.6453 29066.1154 3.0645 3.0393
TCL: Running 100000 steps at 60 kelvin.
TCL: Setting parameter langevinTemp to 60
TCL: Running for 100000 steps
ETITLE: TS BOND ANGLE DIHED IMPRP ELECT VDW BOUNDARY MISC KINETIC TOTAL TEMP POTENTIAL TOTAL3 TEMPAVG PRESSURE GPRESSURE VOLUME PRESSAVG GPRESSAVG
ENERGY: 100000 0.9581 0.8246 0.7225 0.0000 -14179.4960 2518.2451 0.0000 0.0000 175.2926 -11483.4531 29.9681 -11658.7457 -11483.1263 29.9681 526.2370 582.5958 29066.1154 526.2370 582.5958
ENERGY: 200000 1.0722 1.5010 1.2162 0.0000 -13996.0808 2397.3012 0.0000 0.0000 354.5627 -11240.4275 60.6163 -11594.9902 -11239.3408 59.9026 -317.1875 -253.3813 29033.3401 3.4674 3.4363
TCL: Running 100000 steps at 90 kelvin.
TCL: Setting parameter langevinTemp to 90
TCL: Running for 100000 steps
ETITLE: TS BOND ANGLE DIHED IMPRP ELECT VDW BOUNDARY MISC KINETIC TOTAL TEMP POTENTIAL TOTAL3 TEMPAVG PRESSURE GPRESSURE VOLUME PRESSAVG GPRESSAVG
ENERGY: 200000 1.0722 1.5010 1.2162 0.0000 -13996.0808 2397.3012 0.0000 0.0000 354.3854 -11240.6048 60.5860 -11594.9902 -11239.6460 60.5860 -319.3731 -253.5466 29033.3401 -319.3731 -253.5466
ENERGY: 300000 0.6268 2.6393 1.2806 0.0000 -13935.9718 2375.0909 0.0000 0.0000 529.4375 -11026.8968 90.5130 -11556.3343 -11025.4078 90.1020 -151.7421 -129.2779 28732.3627 3.6007 3.6909
TCL: Running 100000 steps at 120 kelvin.
TCL: Setting parameter langevinTemp to 120
TCL: Running for 100000 steps
ETITLE: TS BOND ANGLE DIHED IMPRP ELECT VDW BOUNDARY MISC KINETIC TOTAL TEMP POTENTIAL TOTAL3 TEMPAVG PRESSURE GPRESSURE VOLUME PRESSAVG GPRESSAVG
ENERGY: 300000 0.6268 2.6393 1.2806 0.0000 -13935.9718 2375.0909 0.0000 0.0000 529.1778 -11027.1565 90.4686 -11556.3343 -11025.9550 90.4686 -180.4954 -129.4863 28732.3627 -180.4954 -129.4863
ENERGY: 400000 4.1882 2.5995 2.5688 0.0000 -13830.3692 2386.8855 0.0000 0.0000 678.3481 -10755.7791 115.9709 -11434.1272 -10754.7707 120.0564 380.8123 460.8065 28555.8332 3.6838 3.6716
TCL: Running 100000 steps at 150 kelvin.
TCL: Setting parameter langevinTemp to 150
TCL: Running for 100000 steps
ETITLE: TS BOND ANGLE DIHED IMPRP ELECT VDW BOUNDARY MISC KINETIC TOTAL TEMP POTENTIAL TOTAL3 TEMPAVG PRESSURE GPRESSURE VOLUME PRESSAVG GPRESSAVG
ENERGY: 400000 4.1882 2.5995 2.5688 0.0000 -13830.3692 2386.8855 0.0000 0.0000 677.9840 -10756.1432 115.9086 -11434.1272 -10755.0942 115.9086 415.0369 460.2439 28555.8332 415.0369 460.2439
ENERGY: 500000 2.2526 1.6828 1.8589 0.0000 -13516.2110 2278.3168 0.0000 0.0000 888.2162 -10343.8838 151.8501 -11232.1000 -10342.3691 149.7942 197.6296 271.2056 28696.9943 3.1028 3.1156
TCL: Running 100000 steps at 180 kelvin.
TCL: Setting parameter langevinTemp to 180
TCL: Running for 100000 steps
ETITLE: TS BOND ANGLE DIHED IMPRP ELECT VDW BOUNDARY MISC KINETIC TOTAL TEMP POTENTIAL TOTAL3 TEMPAVG PRESSURE GPRESSURE VOLUME PRESSAVG GPRESSAVG
ENERGY: 500000 2.2526 1.6828 1.8589 0.0000 -13516.2111 2278.3168 0.0000 0.0000 887.7869 -10344.3131 151.7767 -11232.1000 -10342.5542 151.7767 210.3258 271.2571 28696.9943 210.3258 271.2571
ENERGY: 600000 2.8915 3.4723 1.5753 0.0000 -13061.1383 2100.2958 0.0000 0.0000 1065.2434 -9887.6600 182.1148 -10952.9034 -9885.9541 180.1312 -102.7661 34.6102 28551.8839 5.4163 5.3924
TCL: Running 100000 steps at 210 kelvin.
TCL: Setting parameter langevinTemp to 210
TCL: Running for 100000 steps
ETITLE: TS BOND ANGLE DIHED IMPRP ELECT VDW BOUNDARY MISC KINETIC TOTAL TEMP POTENTIAL TOTAL3 TEMPAVG PRESSURE GPRESSURE VOLUME PRESSAVG GPRESSAVG
ENERGY: 600000 2.8915 3.4723 1.5753 0.0000 -13061.1383 2100.2958 0.0000 0.0000 1064.6979 -9888.2054 182.0215 -10952.9034 -9886.4737 182.0215 -29.7727 34.2698 28551.8839 -29.7727 34.2698
ENERGY: 700000 3.0554 4.2812 3.3457 0.0000 -12442.8219 1921.7142 0.0000 0.0000 1223.4951 -9286.9303 209.1696 -10510.4254 -9284.3331 209.8011 179.8163 294.6371 28715.3199 3.6020 3.7461
TCL: Running 100000 steps at 240 kelvin.
TCL: Setting parameter langevinTemp to 240
TCL: Running for 100000 steps
ETITLE: TS BOND ANGLE DIHED IMPRP ELECT VDW BOUNDARY MISC KINETIC TOTAL TEMP POTENTIAL TOTAL3 TEMPAVG PRESSURE GPRESSURE VOLUME PRESSAVG GPRESSAVG
ENERGY: 700000 3.0554 4.2812 3.3457 0.0000 -12442.8219 1921.7142 0.0000 0.0000 1222.8689 -9287.5565 209.0626 -10510.4254 -9285.5668 209.0626 191.9215 294.3118 28715.3199 191.9215 294.3118
ENERGY: 800000 3.7068 2.4524 4.1595 0.0000 -11708.8065 1700.0110 0.0000 0.0000 1397.9094 -8600.5674 238.9876 -9998.4768 -8596.6225 239.3419 16.7929 111.1468 28904.9134 3.7455 3.7010
TCL: Running 100000 steps at 270 kelvin.
TCL: Setting parameter langevinTemp to 270
TCL: Running for 100000 steps
ETITLE: TS BOND ANGLE DIHED IMPRP ELECT VDW BOUNDARY MISC KINETIC TOTAL TEMP POTENTIAL TOTAL3 TEMPAVG PRESSURE GPRESSURE VOLUME PRESSAVG GPRESSAVG
ENERGY: 800000 3.7068 2.4524 4.1595 0.0000 -11708.8065 1700.0110 0.0000 0.0000 1397.1901 -8601.2868 238.8646 -9998.4768 -8599.1442 238.8646 23.5174 112.5112 28904.9134 23.5174 112.5112
ENERGY: 900000 3.7637 5.3925 8.3240 0.0000 -11213.4160 1563.4865 0.0000 0.0000 1532.1325 -8100.3167 261.9345 -9632.4492 -8095.6097 270.2233 108.3676 111.8635 29408.4476 2.7304 2.5463
TCL: Running 1000000 steps at 300 kelvin.
TCL: Setting parameter langevinTemp to 300
TCL: Running for 1000000 steps
ETITLE: TS BOND ANGLE DIHED IMPRP ELECT VDW BOUNDARY MISC KINETIC TOTAL TEMP POTENTIAL TOTAL3 TEMPAVG PRESSURE GPRESSURE VOLUME PRESSAVG GPRESSAVG
ENERGY: 900000 3.7637 5.3925 8.3240 0.0000 -11213.4160 1563.4865 0.0000 0.0000 1531.4013 -8101.0480 261.8095 -9632.4492 -8098.6117 261.8095 36.6811 114.4447 29408.4476 36.6811 114.4447
ENERGY: 1100000 4.3930 3.5070 5.9717 0.0000 -10602.4598 1391.9331 0.0000 0.0000 1738.6213 -7458.0337 297.2360 -9196.6551 -7452.8487 300.6102 -428.1125 -364.0164 30371.4830 3.2557 3.2890
ENERGY: 1300000 4.6194 2.8655 3.7136 0.0000 -10588.9136 1406.1540 0.0000 0.0000 1749.3756 -7422.1855 299.0745 -9171.5611 -7419.8106 299.8507 24.4302 130.3367 30386.7026 4.5102 4.4371
ENERGY: 1500000 3.1131 3.3572 6.9630 0.0000 -10529.7491 1349.6441 0.0000 0.0000 1749.5192 -7417.1524 299.0991 -9166.6716 -7415.9915 299.4770 -705.4045 -584.8741 30706.6241 3.7860 3.7404
ENERGY: 1700000 2.4396 4.1003 7.4731 0.0000 -10637.8552 1376.3893 0.0000 0.0000 1712.8355 -7534.6173 292.8276 -9247.4529 -7532.7938 300.3670 -686.7506 -659.9215 30510.3214 3.8911 4.0039
ENERGY: 1900000 2.1112 4.0255 1.7738 0.0000 -10561.3633 1344.0097 0.0000 0.0000 1790.6399 -7418.8032 306.1291 -9209.4431 -7415.9984 300.7666 -541.4731 -447.6005 30042.6470 3.3347 3.2385
TCL: Exiting due to exit command.
