Info: SIMULATION PARAMETERS:
Info: TIMESTEP               2
Info: NUMBER OF STEPS        0
Info: STEPS PER CYCLE        10
Info: PERIODIC CELL BASIS 1  36.592 0 0
Info: PERIODIC CELL BASIS 2  0 35.779 0
Info: PERIODIC CELL BASIS 3  0 0 34.471
Info: PERIODIC CELL CENTER   0 0 0
Info: WRAPPING WATERS AROUND PERIODIC BOUNDARIES ON OUTPUT.
Info: WRAPPING ALL CLUSTERS AROUND PERIODIC BOUNDARIES ON OUTPUT.
Info: FIRST LDB TIMESTEP     50
Info: LAST LDB TIMESTEP     -1
Info: HOM BACKGROUND SCALING 1
Info: PME BACKGROUND SCALING 1
Info: MIN ATOMS PER PATCH    40
Info: EMPTY PATCH LOAD       40 ATOMS
Info: INITIAL TEMPERATURE    300
Info: CENTER OF MASS MOVING INITIALLY? NO
Info: DIELECTRIC             1
Info: EXCLUDE                SCALED ONE-FOUR
Info: 1-4 ELECTROSTATICS SCALED BY 0.833333
Info: MODIFIED 1-4 VDW PARAMETERS WILL BE USED
Info: DCD FILENAME           mobley_3211679_equil.dcd
Info: DCD FREQUENCY          100000
Info: DCD FIRST STEP         100000
Info: DCD FILE WILL CONTAIN UNIT CELL DATA
Info: XST FILENAME           mobley_3211679_equil.xst
Info: XST FREQUENCY          100000
Info: NO VELOCITY DCD OUTPUT
Info: NO FORCE DCD OUTPUT
Info: OUTPUT FILENAME        mobley_3211679_equil
Info: BINARY OUTPUT FILES WILL BE USED
Info: RESTART FILENAME       mobley_3211679_equil.restart
Info: RESTART FREQUENCY      100000
Info: BINARY RESTART FILES WILL BE USED
Info: CUTOFF                 9
Info: PAIRLIST DISTANCE      11
Info: PAIRLIST SHRINK RATE   0.01
Info: PAIRLIST GROW RATE     0.01
Info: PAIRLIST TRIGGER       0.3
Info: PAIRLISTS PER CYCLE    2
Info: PAIRLISTS ENABLED
Info: MARGIN                 8
Info: HYDROGEN GROUP CUTOFF  2.5
Info: PATCH DIMENSION        21.5
Info: ENERGY OUTPUT STEPS    100000
Info: ENERGY EVALUATION STEPS    100000
Info: OUTPUT ENERGY PRECISION 4
Info: CROSSTERM ENERGY INCLUDED IN DIHEDRAL
Info: TIMING OUTPUT STEPS    1000000
Info: PRESSURE OUTPUT STEPS  100000
Info: LANGEVIN DYNAMICS ACTIVE
Info: LANGEVIN TEMPERATURE   30
Info: LANGEVIN USING BBK INTEGRATOR
Info: LANGEVIN DAMPING COEFFICIENT IS 1 INVERSE PS
Info: LANGEVIN DYNAMICS APPLIED TO HYDROGENS
Info: LANGEVIN PISTON PRESSURE CONTROL ACTIVE
Info:        TARGET PRESSURE IS 1.01325 BAR
Info:     OSCILLATION PERIOD IS 50 FS
Info:             DECAY TIME IS 25 FS
Info:     PISTON TEMPERATURE IS 300 K
Info:       PRESSURE CONTROL IS GROUP-BASED
Info:    INITIAL STRAIN RATE IS 0 0 0
Info:       CELL FLUCTUATION IS ISOTROPIC
Info: PARTICLE MESH EWALD (PME) ACTIVE
Info: PME TOLERANCE               1e-06
Info: PME EWALD COEFFICIENT       0.348832
Info: PME INTERPOLATION ORDER     4
Info: PME GRID DIMENSIONS         40 36 36
Info: PME MAXIMUM GRID SPACING    1
Info: FULL ELECTROSTATIC EVALUATION FREQUENCY      2
Info: USING VERLET I (r-RESPA) MTS SCHEME.
Info: C1 SPLITTING OF LONG RANGE ELECTROSTATICS
Info: PLACING ATOMS IN PATCHES BY HYDROGEN GROUPS
Info: RIGID BONDS TO HYDROGEN : ALL
Info:         ERROR TOLERANCE : 1e-08
Info:          MAX ITERATIONS : 100
Info: RIGID WATER USING SETTLE ALGORITHM
Info: RANDOM NUMBER SEED     1743212972
Info: USE HYDROGEN BONDS?    NO
Info: Using AMBER format force field!
Info: AMBER PARM FILE        mobley_3211679.prmtop
Info: COORDINATE PDB         mobley_3211679.pdb
Info: Exclusions will be read from PARM file!
Info: SCNB (VDW SCALING)     2
Info: USING ARITHMETIC MEAN TO COMBINE L-J SIGMA PARAMETERS
Info: BINARY COORDINATES     mobley_3211679_min.coor
Info: SUMMARY OF PARAMETERS:
Info: 7 BONDS
Info: 8 ANGLES
Info:   8 HARMONIC
Info:   0 COSINE-BASED
Info: 12 DIHEDRAL
Info: 0 IMPROPER
Info: 0 CROSSTERM
Info: 0 VDW
Info: 21 VDW_PAIRS
Info: 0 NBTHOLE_PAIRS
Info: STRUCTURE SUMMARY:
Info: 2983 ATOMS
Info: 2983 BONDS
Info: 30 ANGLES
Info: 56 DIHEDRALS
Info: 0 IMPROPERS
Info: 0 CROSSTERMS
Info: 3053 EXCLUSIONS
Info: 2977 RIGID BONDS
Info: 5972 DEGREES OF FREEDOM
Info: 995 HYDROGEN GROUPS
Info: 3 ATOMS IN LARGEST HYDROGEN GROUP
Info: 995 MIGRATION GROUPS
Info: 3 ATOMS IN LARGEST MIGRATION GROUP
Info: TOTAL MASS = 17900 amu
Info: TOTAL CHARGE = -0.000200011 e
Info: MASS DENSITY = 0.658633 g/cm^3
Info: ATOM DENSITY = 0.0660975 atoms/A^3
Info: ADDED 0 IMPLICIT EXCLUSIONS
Info: NONBONDED TABLE R-SQUARED SPACING: 0.0625
Info: NONBONDED TABLE SIZE: 705 POINTS
Info: REMOVING COM VELOCITY 0.0944409 -0.184028 0.108926
TCL: Running for 100000 steps
ETITLE: TS BOND ANGLE DIHED IMPRP ELECT VDW BOUNDARY MISC KINETIC TOTAL TEMP POTENTIAL TOTAL3 TEMPAVG PRESSURE GPRESSURE VOLUME PRESSAVG GPRESSAVG
ENERGY: 0 0.1050 0.1665 4.0709 0.0000 -13803.8518 2450.4440 0.0000 0.0000 1807.9401 -9541.1254 304.6875 -11349.0654 -9540.7569 304.6875 629.2296 663.2376 45130.3008 629.2296 663.2376
ENERGY: 100000 0.4889 0.5636 4.1554 0.0000 -14309.8157 2508.1492 0.0000 0.0000 175.6316 -11620.8270 29.5987 -11796.4586 -11620.3010 30.9120 133.4803 183.5883 29822.4336 3.6403 3.6361
TCL: Running 100000 steps at 60 kelvin.
TCL: Setting parameter langevinTemp to 60
TCL: Running for 100000 steps
ETITLE: TS BOND ANGLE DIHED IMPRP ELECT VDW BOUNDARY MISC KINETIC TOTAL TEMP POTENTIAL TOTAL3 TEMPAVG PRESSURE GPRESSURE VOLUME PRESSAVG GPRESSAVG
ENERGY: 100000 0.4889 0.5636 4.1554 0.0000 -14309.8157 2508.1492 0.0000 0.0000 175.5473 -11620.9113 29.5845 -11796.4586 -11620.6184 29.5845 136.1367 183.7761 29822.4336 136.1367 183.7761
ENERGY: 200000 0.2520 1.4353 4.4125 0.0000 -14270.4806 2489.7994 0.0000 0.0000 347.7915 -11426.7898 58.6124 -11774.5813 -11426.0394 59.9389 241.0922 306.0771 29217.6313 4.1241 4.1579
TCL: Running 100000 steps at 90 kelvin.
TCL: Setting parameter langevinTemp to 90
TCL: Running for 100000 steps
ETITLE: TS BOND ANGLE DIHED IMPRP ELECT VDW BOUNDARY MISC KINETIC TOTAL TEMP POTENTIAL TOTAL3 TEMPAVG PRESSURE GPRESSURE VOLUME PRESSAVG GPRESSAVG
ENERGY: 200000 0.2520 1.4353 4.4125 0.0000 -14270.4806 2489.7994 0.0000 0.0000 347.6074 -11426.9739 58.5814 -11774.5813 -11426.1089 58.5814 255.0386 305.4287 29217.6313 255.0386 305.4287
ENERGY: 300000 0.3090 1.1574 4.3897 0.0000 -14029.5592 2341.3853 0.0000 0.0000 546.4270 -11135.8908 92.0879 -11682.3178 -11134.1188 89.6755 -441.2457 -400.5651 28913.2363 4.7376 4.6525
TCL: Running 100000 steps at 120 kelvin.
TCL: Setting parameter langevinTemp to 120
TCL: Running for 100000 steps
ETITLE: TS BOND ANGLE DIHED IMPRP ELECT VDW BOUNDARY MISC KINETIC TOTAL TEMP POTENTIAL TOTAL3 TEMPAVG PRESSURE GPRESSURE VOLUME PRESSAVG GPRESSAVG
ENERGY: 300000 0.3090 1.1574 4.3897 0.0000 -14029.5592 2341.3853 0.0000 0.0000 546.1633 -11136.1545 92.0435 -11682.3178 -11135.0005 92.0435 -441.3714 -400.3577 28913.2363 -441.3714 -400.3577
ENERGY: 400000 1.1582 3.1887 5.2622 0.0000 -13910.1317 2338.5231 0.0000 0.0000 722.4314 -10839.5681 121.7495 -11561.9995 -10837.8920 119.9780 -256.8912 -203.2654 29059.4264 3.7947 3.9508
TCL: Running 100000 steps at 150 kelvin.
TCL: Setting parameter langevinTemp to 150
TCL: Running for 100000 steps
ETITLE: TS BOND ANGLE DIHED IMPRP ELECT VDW BOUNDARY MISC KINETIC TOTAL TEMP POTENTIAL TOTAL3 TEMPAVG PRESSURE GPRESSURE VOLUME PRESSAVG GPRESSAVG
ENERGY: 400000 1.1582 3.1887 5.2622 0.0000 -13910.1317 2338.5231 0.0000 0.0000 722.0481 -10839.9514 121.6849 -11561.9995 -10838.3138 121.6849 -252.2635 -203.0878 29059.4264 -252.2635 -203.0878
ENERGY: 500000 0.8484 2.5706 5.6918 0.0000 -13737.0865 2325.2383 0.0000 0.0000 897.6601 -10505.0773 151.2803 -11402.7373 -10504.2159 149.9387 246.4527 302.9163 29106.8118 4.0068 3.9364
TCL: Running 100000 steps at 180 kelvin.
TCL: Setting parameter langevinTemp to 180
TCL: Running for 100000 steps
ETITLE: TS BOND ANGLE DIHED IMPRP ELECT VDW BOUNDARY MISC KINETIC TOTAL TEMP POTENTIAL TOTAL3 TEMPAVG PRESSURE GPRESSURE VOLUME PRESSAVG GPRESSAVG
ENERGY: 500000 0.8484 2.5706 5.6918 0.0000 -13737.0865 2325.2383 0.0000 0.0000 897.2148 -10505.5226 151.2053 -11402.7373 -10503.8678 151.2053 248.2497 300.6092 29106.8118 248.2497 300.6092
ENERGY: 600000 0.9762 6.2300 4.6090 0.0000 -13344.5075 2222.9922 0.0000 0.0000 1089.8838 -10019.8164 183.6753 -11109.7001 -10018.4732 179.9169 677.3309 769.4211 28775.7807 3.3485 3.3143
TCL: Running 100000 steps at 210 kelvin.
TCL: Setting parameter langevinTemp to 210
TCL: Running for 100000 steps
ETITLE: TS BOND ANGLE DIHED IMPRP ELECT VDW BOUNDARY MISC KINETIC TOTAL TEMP POTENTIAL TOTAL3 TEMPAVG PRESSURE GPRESSURE VOLUME PRESSAVG GPRESSAVG
ENERGY: 600000 0.9762 6.2300 4.6090 0.0000 -13344.5075 2222.9922 0.0000 0.0000 1089.3304 -10020.3698 183.5820 -11109.7001 -10018.3541 183.5820 698.5392 767.4935 28775.7807 698.5392 767.4935
ENERGY: 700000 1.3204 5.1058 5.0982 0.0000 -12569.9652 1915.5863 0.0000 0.0000 1247.7474 -9395.1072 210.2797 -10642.8546 -9391.8182 209.9404 253.7007 291.0500 28511.8817 3.2782 3.1549
TCL: Running 100000 steps at 240 kelvin.
TCL: Setting parameter langevinTemp to 240
TCL: Running for 100000 steps
ETITLE: TS BOND ANGLE DIHED IMPRP ELECT VDW BOUNDARY MISC KINETIC TOTAL TEMP POTENTIAL TOTAL3 TEMPAVG PRESSURE GPRESSURE VOLUME PRESSAVG GPRESSAVG
ENERGY: 700000 1.3204 5.1058 5.0982 0.0000 -12569.9652 1915.5863 0.0000 0.0000 1247.1509 -9395.7037 210.1791 -10642.8546 -9393.7144 210.1791 210.9325 292.2523 28511.8817 210.9325 292.2523
ENERGY: 800000 0.2229 6.7405 4.6169 0.0000 -11950.7366 1734.1463 0.0000 0.0000 1444.8835 -8760.1265 243.5025 -10205.0101 -8758.1894 240.0220 -256.9171 -213.6228 29746.1658 3.3484 3.3095
TCL: Running 100000 steps at 270 kelvin.
TCL: Setting parameter langevinTemp to 270
TCL: Running for 100000 steps
ETITLE: TS BOND ANGLE DIHED IMPRP ELECT VDW BOUNDARY MISC KINETIC TOTAL TEMP POTENTIAL TOTAL3 TEMPAVG PRESSURE GPRESSURE VOLUME PRESSAVG GPRESSAVG
ENERGY: 800000 0.2229 6.7405 4.6169 0.0000 -11950.7366 1734.1463 0.0000 0.0000 1444.1794 -8760.8307 243.3838 -10205.0101 -8758.2929 243.3838 -281.9730 -214.4892 29746.1658 -281.9730 -214.4892
ENERGY: 900000 1.1151 8.1369 4.9850 0.0000 -11482.8609 1678.0403 0.0000 0.0000 1574.2412 -8216.3423 265.3028 -9790.5835 -8212.4990 270.1244 319.4571 460.7362 30135.1623 3.1787 3.0694
TCL: Running 1000000 steps at 300 kelvin.
TCL: Setting parameter langevinTemp to 300
TCL: Running for 1000000 steps
ETITLE: TS BOND ANGLE DIHED IMPRP ELECT VDW BOUNDARY MISC KINETIC TOTAL TEMP POTENTIAL TOTAL3 TEMPAVG PRESSURE GPRESSURE VOLUME PRESSAVG GPRESSAVG
ENERGY: 900000 1.1151 8.1369 4.9850 0.0000 -11482.8609 1678.0403 0.0000 0.0000 1573.4221 -8217.1614 265.1648 -9790.5835 -8214.5562 265.1648 392.1445 461.8533 30135.1623 392.1445 461.8533
ENERGY: 1100000 1.1121 6.3380 6.3640 0.0000 -10846.1183 1509.5616 0.0000 0.0000 1771.7774 -7550.9653 298.5931 -9322.7427 -7549.8225 299.5434 675.0449 716.1551 30566.6433 3.0144 3.0629
ENERGY: 1300000 1.0642 5.4633 5.6244 0.0000 -10521.9904 1317.3665 0.0000 0.0000 1808.2282 -7384.2438 304.7360 -9192.4720 -7380.7894 300.3836 -788.2323 -632.1674 30859.5178 2.1586 1.9231
ENERGY: 1500000 4.0856 5.7760 5.3595 0.0000 -10881.5731 1485.1846 0.0000 0.0000 1764.4559 -7616.7114 297.3592 -9381.1673 -7612.4830 300.7440 561.7724 598.7378 29839.2362 3.1973 3.3218
ENERGY: 1700000 3.5513 4.4259 5.2396 0.0000 -10839.0542 1443.5095 0.0000 0.0000 1804.2848 -7578.0430 304.0715 -9382.3278 -7572.6619 300.3204 -159.6937 -129.5224 30715.2387 3.2261 3.0822
ENERGY: 1900000 1.1941 5.9681 5.1609 0.0000 -10675.8351 1306.4567 0.0000 0.0000 1764.2446 -7592.8107 297.3236 -9357.0553 -7588.1786 299.3197 -1396.1664 -1308.6182 31050.3997 3.8820 3.8038
TCL: Exiting due to exit command.
