Info: SIMULATION PARAMETERS:
Info: TIMESTEP               2
Info: NUMBER OF STEPS        0
Info: STEPS PER CYCLE        10
Info: PERIODIC CELL BASIS 1  35.436 0 0
Info: PERIODIC CELL BASIS 2  0 39.115 0
Info: PERIODIC CELL BASIS 3  0 0 31.855
Info: PERIODIC CELL CENTER   0 0 0
Info: WRAPPING WATERS AROUND PERIODIC BOUNDARIES ON OUTPUT.
Info: WRAPPING ALL CLUSTERS AROUND PERIODIC BOUNDARIES ON OUTPUT.
Info: FIRST LDB TIMESTEP     50
Info: LAST LDB TIMESTEP     -1
Info: HOM BACKGROUND SCALING 1
Info: PME BACKGROUND SCALING 1
Info: MIN ATOMS PER PATCH    40
Info: EMPTY PATCH LOAD       40 ATOMS
Info: INITIAL TEMPERATURE    300
Info: CENTER OF MASS MOVING INITIALLY? NO
Info: DIELECTRIC             1
Info: EXCLUDE                SCALED ONE-FOUR
Info: 1-4 ELECTROSTATICS SCALED BY 0.833333
Info: MODIFIED 1-4 VDW PARAMETERS WILL BE USED
Info: DCD FILENAME           mobley_4759887_equil.dcd
Info: DCD FREQUENCY          100000
Info: DCD FIRST STEP         100000
Info: DCD FILE WILL CONTAIN UNIT CELL DATA
Info: XST FILENAME           mobley_4759887_equil.xst
Info: XST FREQUENCY          100000
Info: NO VELOCITY DCD OUTPUT
Info: NO FORCE DCD OUTPUT
Info: OUTPUT FILENAME        mobley_4759887_equil
Info: BINARY OUTPUT FILES WILL BE USED
Info: RESTART FILENAME       mobley_4759887_equil.restart
Info: RESTART FREQUENCY      100000
Info: BINARY RESTART FILES WILL BE USED
Info: CUTOFF                 9
Info: PAIRLIST DISTANCE      11
Info: PAIRLIST SHRINK RATE   0.01
Info: PAIRLIST GROW RATE     0.01
Info: PAIRLIST TRIGGER       0.3
Info: PAIRLISTS PER CYCLE    2
Info: PAIRLISTS ENABLED
Info: MARGIN                 8
Info: HYDROGEN GROUP CUTOFF  2.5
Info: PATCH DIMENSION        21.5
Info: ENERGY OUTPUT STEPS    100000
Info: ENERGY EVALUATION STEPS    100000
Info: OUTPUT ENERGY PRECISION 4
Info: CROSSTERM ENERGY INCLUDED IN DIHEDRAL
Info: TIMING OUTPUT STEPS    1000000
Info: PRESSURE OUTPUT STEPS  100000
Info: LANGEVIN DYNAMICS ACTIVE
Info: LANGEVIN TEMPERATURE   30
Info: LANGEVIN USING BBK INTEGRATOR
Info: LANGEVIN DAMPING COEFFICIENT IS 1 INVERSE PS
Info: LANGEVIN DYNAMICS APPLIED TO HYDROGENS
Info: LANGEVIN PISTON PRESSURE CONTROL ACTIVE
Info:        TARGET PRESSURE IS 1.01325 BAR
Info:     OSCILLATION PERIOD IS 50 FS
Info:             DECAY TIME IS 25 FS
Info:     PISTON TEMPERATURE IS 300 K
Info:       PRESSURE CONTROL IS GROUP-BASED
Info:    INITIAL STRAIN RATE IS 0 0 0
Info:       CELL FLUCTUATION IS ISOTROPIC
Info: PARTICLE MESH EWALD (PME) ACTIVE
Info: PME TOLERANCE               1e-06
Info: PME EWALD COEFFICIENT       0.348832
Info: PME INTERPOLATION ORDER     4
Info: PME GRID DIMENSIONS         36 40 32
Info: PME MAXIMUM GRID SPACING    1
Info: FULL ELECTROSTATIC EVALUATION FREQUENCY      2
Info: USING VERLET I (r-RESPA) MTS SCHEME.
Info: C1 SPLITTING OF LONG RANGE ELECTROSTATICS
Info: PLACING ATOMS IN PATCHES BY HYDROGEN GROUPS
Info: RIGID BONDS TO HYDROGEN : ALL
Info:         ERROR TOLERANCE : 1e-08
Info:          MAX ITERATIONS : 100
Info: RIGID WATER USING SETTLE ALGORITHM
Info: RANDOM NUMBER SEED     1743258559
Info: USE HYDROGEN BONDS?    NO
Info: Using AMBER format force field!
Info: AMBER PARM FILE        mobley_4759887.prmtop
Info: COORDINATE PDB         mobley_4759887.pdb
Info: Exclusions will be read from PARM file!
Info: SCNB (VDW SCALING)     2
Info: USING ARITHMETIC MEAN TO COMBINE L-J SIGMA PARAMETERS
Info: BINARY COORDINATES     mobley_4759887_min.coor
Info: SUMMARY OF PARAMETERS:
Info: 6 BONDS
Info: 7 ANGLES
Info: 6 DIHEDRAL
Info: 0 IMPROPER
Info: 0 CROSSTERM
Info: 0 VDW
Info: 21 VDW_PAIRS
Info: 0 NBTHOLE_PAIRS
Info: STRUCTURE SUMMARY:
Info: 2960 ATOMS
Info: 2959 BONDS
Info: 42 ANGLES
Info: 62 DIHEDRALS
Info: 0 IMPROPERS
Info: 0 CROSSTERMS
Info: 3055 EXCLUSIONS
Info: 2952 RIGID BONDS
Info: 5928 DEGREES OF FREEDOM
Info: 987 HYDROGEN GROUPS
Info: 4 ATOMS IN LARGEST HYDROGEN GROUP
Info: 987 MIGRATION GROUPS
Info: 4 ATOMS IN LARGEST MIGRATION GROUP
Info: TOTAL MASS = 17863.8 amu
Info: TOTAL CHARGE = 3.72529e-09 e
Info: MASS DENSITY = 0.671841 g/cm^3
Info: ATOM DENSITY = 0.0670388 atoms/A^3
Info: ADDED 0 IMPLICIT EXCLUSIONS
Info: NONBONDED TABLE R-SQUARED SPACING: 0.0625
Info: NONBONDED TABLE SIZE: 705 POINTS
Info: REMOVING COM VELOCITY -0.0269502 -0.0576243 0.136166
TCL: Running for 100000 steps
ETITLE: TS BOND ANGLE DIHED IMPRP ELECT VDW BOUNDARY MISC KINETIC TOTAL TEMP POTENTIAL TOTAL3 TEMPAVG PRESSURE GPRESSURE VOLUME PRESSAVG GPRESSAVG
ENERGY: 0 0.0480 0.3143 1.6691 0.0000 -13755.2249 2440.5660 0.0000 0.0000 1739.3095 -9573.3180 295.2970 -11312.6275 -9572.9624 295.2970 402.2315 433.6984 44153.5510 402.2315 433.6984
ENERGY: 100000 0.3046 1.3771 1.8074 0.0000 -14081.5754 2355.8788 0.0000 0.0000 176.8440 -11545.3636 30.0243 -11722.2076 -11544.9861 30.8812 -1228.1187 -1168.7573 29841.9626 5.0038 5.0075
TCL: Running 100000 steps at 60 kelvin.
TCL: Setting parameter langevinTemp to 60
TCL: Running for 100000 steps
ETITLE: TS BOND ANGLE DIHED IMPRP ELECT VDW BOUNDARY MISC KINETIC TOTAL TEMP POTENTIAL TOTAL3 TEMPAVG PRESSURE GPRESSURE VOLUME PRESSAVG GPRESSAVG
ENERGY: 100000 0.3046 1.3771 1.8074 0.0000 -14081.5754 2355.8788 0.0000 0.0000 176.7541 -11545.4535 30.0090 -11722.2076 -11544.9436 30.0090 -1229.2659 -1168.8466 29841.9626 -1229.2659 -1168.8466
ENERGY: 200000 0.2602 2.7434 1.9802 0.0000 -14119.3097 2500.8166 0.0000 0.0000 361.0728 -11252.4365 61.3023 -11613.5093 -11250.9140 59.9843 479.4112 511.2987 29553.5327 3.7915 3.8005
TCL: Running 100000 steps at 90 kelvin.
TCL: Setting parameter langevinTemp to 90
TCL: Running for 100000 steps
ETITLE: TS BOND ANGLE DIHED IMPRP ELECT VDW BOUNDARY MISC KINETIC TOTAL TEMP POTENTIAL TOTAL3 TEMPAVG PRESSURE GPRESSURE VOLUME PRESSAVG GPRESSAVG
ENERGY: 200000 0.2602 2.7434 1.9802 0.0000 -14119.3097 2500.8166 0.0000 0.0000 360.9020 -11252.6073 61.2733 -11613.5093 -11251.8570 61.2733 463.0860 511.9059 29553.5327 463.0860 511.9059
ENERGY: 300000 0.4956 3.8874 2.5176 0.0000 -13818.3599 2282.4938 0.0000 0.0000 525.4755 -11003.4899 89.2143 -11528.9655 -11002.5407 89.9930 -802.7147 -786.6323 29268.6692 3.9930 3.9736
TCL: Running 100000 steps at 120 kelvin.
TCL: Setting parameter langevinTemp to 120
TCL: Running for 100000 steps
ETITLE: TS BOND ANGLE DIHED IMPRP ELECT VDW BOUNDARY MISC KINETIC TOTAL TEMP POTENTIAL TOTAL3 TEMPAVG PRESSURE GPRESSURE VOLUME PRESSAVG GPRESSAVG
ENERGY: 300000 0.4956 3.8874 2.5176 0.0000 -13818.3599 2282.4938 0.0000 0.0000 525.2144 -11003.7511 89.1700 -11528.9655 -11002.4318 89.1700 -829.2048 -787.2123 29268.6692 -829.2048 -787.2123
ENERGY: 400000 0.5084 2.4481 2.3884 0.0000 -13698.2645 2259.9430 0.0000 0.0000 692.5832 -10740.3935 117.5856 -11432.9767 -10738.4492 120.3328 -372.4084 -310.3664 28851.1341 4.6137 4.5518
TCL: Running 100000 steps at 150 kelvin.
TCL: Setting parameter langevinTemp to 150
TCL: Running for 100000 steps
ETITLE: TS BOND ANGLE DIHED IMPRP ELECT VDW BOUNDARY MISC KINETIC TOTAL TEMP POTENTIAL TOTAL3 TEMPAVG PRESSURE GPRESSURE VOLUME PRESSAVG GPRESSAVG
ENERGY: 400000 0.5084 2.4481 2.3884 0.0000 -13698.2645 2259.9430 0.0000 0.0000 692.2303 -10740.7464 117.5257 -11432.9767 -10739.4933 117.5257 -374.8513 -310.0859 28851.1341 -374.8513 -310.0859
ENERGY: 500000 0.5666 3.7085 3.6718 0.0000 -13517.3249 2275.0194 0.0000 0.0000 902.0363 -10332.3224 153.1462 -11234.3587 -10330.8338 149.9345 405.2368 502.6050 28955.6548 4.5932 4.5599
TCL: Running 100000 steps at 180 kelvin.
TCL: Setting parameter langevinTemp to 180
TCL: Running for 100000 steps
ETITLE: TS BOND ANGLE DIHED IMPRP ELECT VDW BOUNDARY MISC KINETIC TOTAL TEMP POTENTIAL TOTAL3 TEMPAVG PRESSURE GPRESSURE VOLUME PRESSAVG GPRESSAVG
ENERGY: 500000 0.5666 3.7085 3.6718 0.0000 -13517.3249 2275.0194 0.0000 0.0000 901.5952 -10332.7635 153.0713 -11234.3587 -10331.1793 153.0713 441.8714 502.1979 28955.6548 441.8714 502.1979
ENERGY: 600000 1.8701 4.6530 2.6346 0.0000 -13129.1384 2162.2666 0.0000 0.0000 1077.6013 -9880.1128 182.9533 -10957.7141 -9876.2030 180.2330 493.6822 617.8416 28892.1647 3.9085 3.9030
TCL: Running 100000 steps at 210 kelvin.
TCL: Setting parameter langevinTemp to 210
TCL: Running for 100000 steps
ETITLE: TS BOND ANGLE DIHED IMPRP ELECT VDW BOUNDARY MISC KINETIC TOTAL TEMP POTENTIAL TOTAL3 TEMPAVG PRESSURE GPRESSURE VOLUME PRESSAVG GPRESSAVG
ENERGY: 600000 1.8701 4.6530 2.6346 0.0000 -13129.1384 2162.2666 0.0000 0.0000 1077.0813 -9880.6328 182.8650 -10957.7141 -9878.6094 182.8650 554.6984 618.9384 28892.1647 554.6984 618.9384
ENERGY: 700000 1.5406 8.2165 2.4487 0.0000 -12159.9017 1701.9882 0.0000 0.0000 1233.3895 -9212.3181 209.4028 -10445.7077 -9210.7173 209.7197 -1860.6481 -1737.6483 29575.5516 3.4403 3.3842
TCL: Running 100000 steps at 240 kelvin.
TCL: Setting parameter langevinTemp to 240
TCL: Running for 100000 steps
ETITLE: TS BOND ANGLE DIHED IMPRP ELECT VDW BOUNDARY MISC KINETIC TOTAL TEMP POTENTIAL TOTAL3 TEMPAVG PRESSURE GPRESSURE VOLUME PRESSAVG GPRESSAVG
ENERGY: 700000 1.5406 8.2165 2.4487 0.0000 -12159.9017 1701.9882 0.0000 0.0000 1232.7504 -9212.9573 209.2943 -10445.7077 -9210.5604 209.2943 -1813.8760 -1738.2760 29575.5516 -1813.8760 -1738.2760
ENERGY: 800000 1.7133 11.8229 3.7744 0.0000 -11687.5420 1594.8642 0.0000 0.0000 1392.4369 -8682.9303 236.4056 -10075.3672 -8678.9449 240.6299 -1192.3426 -1105.5150 29337.1549 2.6300 2.6240
TCL: Running 100000 steps at 270 kelvin.
TCL: Setting parameter langevinTemp to 270
TCL: Running for 100000 steps
ETITLE: TS BOND ANGLE DIHED IMPRP ELECT VDW BOUNDARY MISC KINETIC TOTAL TEMP POTENTIAL TOTAL3 TEMPAVG PRESSURE GPRESSURE VOLUME PRESSAVG GPRESSAVG
ENERGY: 800000 1.7133 11.8229 3.7744 0.0000 -11687.5420 1594.8642 0.0000 0.0000 1391.7244 -8683.6428 236.2846 -10075.3672 -8681.1675 236.2846 -1193.2029 -1103.6076 29337.1549 -1193.2029 -1103.6076
ENERGY: 900000 1.5807 8.0778 2.6184 0.0000 -11233.3782 1545.6533 0.0000 0.0000 1600.3181 -8075.1299 271.6993 -9675.4481 -8073.3905 269.8888 -105.1090 -68.3138 29651.0656 3.5864 3.5975
TCL: Running 1000000 steps at 300 kelvin.
TCL: Setting parameter langevinTemp to 300
TCL: Running for 1000000 steps
ETITLE: TS BOND ANGLE DIHED IMPRP ELECT VDW BOUNDARY MISC KINETIC TOTAL TEMP POTENTIAL TOTAL3 TEMPAVG PRESSURE GPRESSURE VOLUME PRESSAVG GPRESSAVG
ENERGY: 900000 1.5807 8.0778 2.6184 0.0000 -11233.3782 1545.6533 0.0000 0.0000 1599.5164 -8075.9316 271.5632 -9675.4480 -8073.6863 271.5632 -146.6659 -70.5817 29651.0656 -146.6659 -70.5817
ENERGY: 1100000 3.5592 9.1351 3.3109 0.0000 -10593.5119 1368.5298 0.0000 0.0000 1784.5957 -7424.3811 302.9856 -9208.9768 -7421.5371 300.5171 -154.9859 -112.5937 30211.5647 3.5692 3.5843
ENERGY: 1300000 4.9701 12.7465 3.4593 0.0000 -10555.0190 1347.8866 0.0000 0.0000 1780.4127 -7405.5438 302.2754 -9185.9565 -7402.8464 300.3828 -638.1317 -509.1634 30377.6887 2.7492 2.6488
ENERGY: 1500000 1.7116 13.0159 5.5597 0.0000 -10578.5890 1313.1773 0.0000 0.0000 1772.7640 -7472.3605 300.9769 -9245.1245 -7469.3803 300.8061 -1016.6339 -934.3537 30448.4969 2.1802 2.2623
ENERGY: 1700000 1.6699 10.2436 3.8477 0.0000 -10750.3452 1453.3123 0.0000 0.0000 1817.8858 -7463.3858 308.6376 -9281.2716 -7463.8891 300.3623 278.1600 342.5799 30232.9970 3.5697 3.5816
ENERGY: 1900000 1.4725 6.8314 3.3377 0.0000 -10607.0316 1391.9398 0.0000 0.0000 1741.2932 -7462.1571 295.6338 -9203.4502 -7458.9877 299.5823 -387.6792 -338.1766 30811.8558 4.0360 3.8364
TCL: Exiting due to exit command.
