Info: SIMULATION PARAMETERS:
Info: TIMESTEP               2
Info: NUMBER OF STEPS        0
Info: STEPS PER CYCLE        10
Info: PERIODIC CELL BASIS 1  32.265 0 0
Info: PERIODIC CELL BASIS 2  0 35.779 0
Info: PERIODIC CELL BASIS 3  0 0 37.638
Info: PERIODIC CELL CENTER   0 0 0
Info: WRAPPING WATERS AROUND PERIODIC BOUNDARIES ON OUTPUT.
Info: WRAPPING ALL CLUSTERS AROUND PERIODIC BOUNDARIES ON OUTPUT.
Info: FIRST LDB TIMESTEP     50
Info: LAST LDB TIMESTEP     -1
Info: HOM BACKGROUND SCALING 1
Info: PME BACKGROUND SCALING 1
Info: MIN ATOMS PER PATCH    40
Info: EMPTY PATCH LOAD       40 ATOMS
Info: INITIAL TEMPERATURE    300
Info: CENTER OF MASS MOVING INITIALLY? NO
Info: DIELECTRIC             1
Info: EXCLUDE                SCALED ONE-FOUR
Info: 1-4 ELECTROSTATICS SCALED BY 0.833333
Info: MODIFIED 1-4 VDW PARAMETERS WILL BE USED
Info: DCD FILENAME           mobley_6248915_equil.dcd
Info: DCD FREQUENCY          100000
Info: DCD FIRST STEP         100000
Info: DCD FILE WILL CONTAIN UNIT CELL DATA
Info: XST FILENAME           mobley_6248915_equil.xst
Info: XST FREQUENCY          100000
Info: NO VELOCITY DCD OUTPUT
Info: NO FORCE DCD OUTPUT
Info: OUTPUT FILENAME        mobley_6248915_equil
Info: BINARY OUTPUT FILES WILL BE USED
Info: RESTART FILENAME       mobley_6248915_equil.restart
Info: RESTART FREQUENCY      100000
Info: BINARY RESTART FILES WILL BE USED
Info: CUTOFF                 9
Info: PAIRLIST DISTANCE      11
Info: PAIRLIST SHRINK RATE   0.01
Info: PAIRLIST GROW RATE     0.01
Info: PAIRLIST TRIGGER       0.3
Info: PAIRLISTS PER CYCLE    2
Info: PAIRLISTS ENABLED
Info: MARGIN                 8
Info: HYDROGEN GROUP CUTOFF  2.5
Info: PATCH DIMENSION        21.5
Info: ENERGY OUTPUT STEPS    100000
Info: ENERGY EVALUATION STEPS    100000
Info: OUTPUT ENERGY PRECISION 4
Info: CROSSTERM ENERGY INCLUDED IN DIHEDRAL
Info: TIMING OUTPUT STEPS    1000000
Info: PRESSURE OUTPUT STEPS  100000
Info: LANGEVIN DYNAMICS ACTIVE
Info: LANGEVIN TEMPERATURE   30
Info: LANGEVIN USING BBK INTEGRATOR
Info: LANGEVIN DAMPING COEFFICIENT IS 1 INVERSE PS
Info: LANGEVIN DYNAMICS APPLIED TO HYDROGENS
Info: LANGEVIN PISTON PRESSURE CONTROL ACTIVE
Info:        TARGET PRESSURE IS 1.01325 BAR
Info:     OSCILLATION PERIOD IS 50 FS
Info:             DECAY TIME IS 25 FS
Info:     PISTON TEMPERATURE IS 300 K
Info:       PRESSURE CONTROL IS GROUP-BASED
Info:    INITIAL STRAIN RATE IS 0 0 0
Info:       CELL FLUCTUATION IS ISOTROPIC
Info: PARTICLE MESH EWALD (PME) ACTIVE
Info: PME TOLERANCE               1e-06
Info: PME EWALD COEFFICIENT       0.348832
Info: PME INTERPOLATION ORDER     4
Info: PME GRID DIMENSIONS         36 36 40
Info: PME MAXIMUM GRID SPACING    1
Info: FULL ELECTROSTATIC EVALUATION FREQUENCY      2
Info: USING VERLET I (r-RESPA) MTS SCHEME.
Info: C1 SPLITTING OF LONG RANGE ELECTROSTATICS
Info: PLACING ATOMS IN PATCHES BY HYDROGEN GROUPS
Info: RIGID BONDS TO HYDROGEN : ALL
Info:         ERROR TOLERANCE : 1e-08
Info:          MAX ITERATIONS : 100
Info: RIGID WATER USING SETTLE ALGORITHM
Info: RANDOM NUMBER SEED     1743262814
Info: USE HYDROGEN BONDS?    NO
Info: Using AMBER format force field!
Info: AMBER PARM FILE        mobley_6248915.prmtop
Info: COORDINATE PDB         mobley_6248915.pdb
Info: Exclusions will be read from PARM file!
Info: SCNB (VDW SCALING)     2
Info: USING ARITHMETIC MEAN TO COMBINE L-J SIGMA PARAMETERS
Info: BINARY COORDINATES     mobley_6248915_min.coor
Info: SUMMARY OF PARAMETERS:
Info: 7 BONDS
Info: 9 ANGLES
Info:   9 HARMONIC
Info:   0 COSINE-BASED
Info: 7 DIHEDRAL
Info: 0 IMPROPER
Info: 0 CROSSTERM
Info: 0 VDW
Info: 28 VDW_PAIRS
Info: 0 NBTHOLE_PAIRS
Info: STRUCTURE SUMMARY:
Info: 2935 ATOMS
Info: 2934 BONDS
Info: 51 ANGLES
Info: 79 DIHEDRALS
Info: 0 IMPROPERS
Info: 0 CROSSTERMS
Info: 3054 EXCLUSIONS
Info: 2926 RIGID BONDS
Info: 5879 DEGREES OF FREEDOM
Info: 978 HYDROGEN GROUPS
Info: 4 ATOMS IN LARGEST HYDROGEN GROUP
Info: 978 MIGRATION GROUPS
Info: 4 ATOMS IN LARGEST MIGRATION GROUP
Info: TOTAL MASS = 17586.7 amu
Info: TOTAL CHARGE = 2.6077e-08 e
Info: MASS DENSITY = 0.672138 g/cm^3
Info: ATOM DENSITY = 0.0675494 atoms/A^3
Info: ADDED 0 IMPLICIT EXCLUSIONS
Info: NONBONDED TABLE R-SQUARED SPACING: 0.0625
Info: NONBONDED TABLE SIZE: 705 POINTS
Info: REMOVING COM VELOCITY -0.0202084 -0.0169424 -0.00391143
TCL: Running for 100000 steps
ETITLE: TS BOND ANGLE DIHED IMPRP ELECT VDW BOUNDARY MISC KINETIC TOTAL TEMP POTENTIAL TOTAL3 TEMPAVG PRESSURE GPRESSURE VOLUME PRESSAVG GPRESSAVG
ENERGY: 0 0.0754 0.4160 2.2442 0.0000 -13522.3048 2338.0926 0.0000 0.0000 1810.9465 -9370.5301 310.0220 -11181.4766 -9370.1686 310.0220 240.2124 278.1284 43449.6623 240.2124 278.1284
ENERGY: 100000 0.3221 1.7816 2.7478 0.0000 -14017.3962 2403.5459 0.0000 0.0000 175.0424 -11433.9565 29.9661 -11608.9989 -11433.5466 30.8849 -439.0990 -360.0205 29054.0660 4.3752 4.3614
TCL: Running 100000 steps at 60 kelvin.
TCL: Setting parameter langevinTemp to 60
TCL: Running for 100000 steps
ETITLE: TS BOND ANGLE DIHED IMPRP ELECT VDW BOUNDARY MISC KINETIC TOTAL TEMP POTENTIAL TOTAL3 TEMPAVG PRESSURE GPRESSURE VOLUME PRESSAVG GPRESSAVG
ENERGY: 100000 0.3221 1.7816 2.7478 0.0000 -14017.3962 2403.5459 0.0000 0.0000 174.9536 -11434.0453 29.9509 -11608.9989 -11433.6377 29.9509 -415.4009 -360.1419 29054.0660 -415.4009 -360.1419
ENERGY: 200000 0.8285 3.4505 3.2757 0.0000 -13898.8335 2345.4775 0.0000 0.0000 350.2626 -11195.5386 59.9626 -11545.8012 -11194.3697 59.8953 -545.9049 -490.9288 28659.1692 5.1633 5.1652
TCL: Running 100000 steps at 90 kelvin.
TCL: Setting parameter langevinTemp to 90
TCL: Running for 100000 steps
ETITLE: TS BOND ANGLE DIHED IMPRP ELECT VDW BOUNDARY MISC KINETIC TOTAL TEMP POTENTIAL TOTAL3 TEMPAVG PRESSURE GPRESSURE VOLUME PRESSAVG GPRESSAVG
ENERGY: 200000 0.8285 3.4505 3.2757 0.0000 -13898.8335 2345.4775 0.0000 0.0000 350.0873 -11195.7140 59.9326 -11545.8012 -11195.0257 59.9326 -534.2919 -490.5811 28659.1692 -534.2919 -490.5811
ENERGY: 300000 0.8123 2.6632 3.3783 0.0000 -13770.2915 2327.9263 0.0000 0.0000 506.5793 -10928.9322 86.7230 -11435.5115 -10928.0617 89.9591 -198.1692 -193.3674 28687.9990 3.5376 3.6745
TCL: Running 100000 steps at 120 kelvin.
TCL: Setting parameter langevinTemp to 120
TCL: Running for 100000 steps
ETITLE: TS BOND ANGLE DIHED IMPRP ELECT VDW BOUNDARY MISC KINETIC TOTAL TEMP POTENTIAL TOTAL3 TEMPAVG PRESSURE GPRESSURE VOLUME PRESSAVG GPRESSAVG
ENERGY: 300000 0.8123 2.6632 3.3783 0.0000 -13770.2915 2327.9263 0.0000 0.0000 506.3158 -10929.1957 86.6779 -11435.5115 -10928.1456 86.6779 -239.1055 -193.7508 28687.9990 -239.1055 -193.7508
ENERGY: 400000 0.7863 9.0440 2.7721 0.0000 -13559.1209 2232.8136 0.0000 0.0000 711.6484 -10602.0566 121.8295 -11313.7050 -10600.7119 119.9880 -364.9936 -367.8968 29006.9925 4.7997 4.7442
TCL: Running 100000 steps at 150 kelvin.
TCL: Setting parameter langevinTemp to 150
TCL: Running for 100000 steps
ETITLE: TS BOND ANGLE DIHED IMPRP ELECT VDW BOUNDARY MISC KINETIC TOTAL TEMP POTENTIAL TOTAL3 TEMPAVG PRESSURE GPRESSURE VOLUME PRESSAVG GPRESSAVG
ENERGY: 400000 0.7863 9.0440 2.7721 0.0000 -13559.1209 2232.8136 0.0000 0.0000 711.3017 -10602.4032 121.7701 -11313.7050 -10601.1307 121.7701 -420.6456 -368.6521 29006.9925 -420.6456 -368.6521
ENERGY: 500000 1.2820 8.2504 3.3120 0.0000 -13450.6533 2254.6615 0.0000 0.0000 852.7639 -10330.3834 145.9875 -11183.1473 -10328.8333 149.8250 164.3381 223.1835 28562.1115 4.6995 4.8167
TCL: Running 100000 steps at 180 kelvin.
TCL: Setting parameter langevinTemp to 180
TCL: Running for 100000 steps
ETITLE: TS BOND ANGLE DIHED IMPRP ELECT VDW BOUNDARY MISC KINETIC TOTAL TEMP POTENTIAL TOTAL3 TEMPAVG PRESSURE GPRESSURE VOLUME PRESSAVG GPRESSAVG
ENERGY: 500000 1.2820 8.2504 3.3120 0.0000 -13450.6533 2254.6615 0.0000 0.0000 852.3328 -10330.8145 145.9137 -11183.1473 -10329.3403 145.9137 168.8208 223.7853 28562.1115 168.8208 223.7853
ENERGY: 600000 2.9730 6.3677 3.5181 0.0000 -12979.5708 2060.0454 0.0000 0.0000 1047.9409 -9858.7256 179.4005 -10906.6665 -9855.3598 179.6901 -649.1996 -575.1580 28838.4039 4.1032 4.2432
TCL: Running 100000 steps at 210 kelvin.
TCL: Setting parameter langevinTemp to 210
TCL: Running for 100000 steps
ETITLE: TS BOND ANGLE DIHED IMPRP ELECT VDW BOUNDARY MISC KINETIC TOTAL TEMP POTENTIAL TOTAL3 TEMPAVG PRESSURE GPRESSURE VOLUME PRESSAVG GPRESSAVG
ENERGY: 600000 2.9730 6.3677 3.5181 0.0000 -12979.5708 2060.0454 0.0000 0.0000 1047.4153 -9859.2512 179.3105 -10906.6665 -9857.0191 179.3105 -633.1886 -574.2713 28838.4039 -633.1886 -574.2713
ENERGY: 700000 0.9198 11.1858 4.5039 0.0000 -12263.2043 1843.6277 0.0000 0.0000 1228.0942 -9174.8729 210.2416 -10402.9671 -9170.5697 209.5729 -297.7320 -203.5451 28606.1505 3.5964 3.7769
TCL: Running 100000 steps at 240 kelvin.
TCL: Setting parameter langevinTemp to 240
TCL: Running for 100000 steps
ETITLE: TS BOND ANGLE DIHED IMPRP ELECT VDW BOUNDARY MISC KINETIC TOTAL TEMP POTENTIAL TOTAL3 TEMPAVG PRESSURE GPRESSURE VOLUME PRESSAVG GPRESSAVG
ENERGY: 700000 0.9198 11.1858 4.5039 0.0000 -12263.2043 1843.6277 0.0000 0.0000 1227.4916 -9175.4755 210.1384 -10402.9671 -9173.0752 210.1384 -278.5279 -201.4757 28606.1505 -278.5279 -201.4757
ENERGY: 800000 2.3194 6.3518 4.4214 0.0000 -11514.3527 1579.4607 0.0000 0.0000 1400.6016 -8521.1978 239.7737 -9921.7994 -8518.5324 240.1926 -833.9044 -729.8010 28735.9629 3.4747 3.5009
TCL: Running 100000 steps at 270 kelvin.
TCL: Setting parameter langevinTemp to 270
TCL: Running for 100000 steps
ETITLE: TS BOND ANGLE DIHED IMPRP ELECT VDW BOUNDARY MISC KINETIC TOTAL TEMP POTENTIAL TOTAL3 TEMPAVG PRESSURE GPRESSURE VOLUME PRESSAVG GPRESSAVG
ENERGY: 800000 2.3194 6.3518 4.4214 0.0000 -11514.3527 1579.4607 0.0000 0.0000 1399.8962 -8521.9032 239.6529 -9921.7994 -8519.4079 239.6529 -804.5305 -729.2004 28735.9629 -804.5305 -729.2004
ENERGY: 900000 3.0993 13.2334 4.1519 0.0000 -11215.3265 1622.9841 0.0000 0.0000 1573.5299 -7998.3278 269.3779 -9571.8576 -7998.1813 270.2372 554.0580 640.3459 29303.7230 4.0595 4.2912
TCL: Running 1000000 steps at 300 kelvin.
TCL: Setting parameter langevinTemp to 300
TCL: Running for 1000000 steps
ETITLE: TS BOND ANGLE DIHED IMPRP ELECT VDW BOUNDARY MISC KINETIC TOTAL TEMP POTENTIAL TOTAL3 TEMPAVG PRESSURE GPRESSURE VOLUME PRESSAVG GPRESSAVG
ENERGY: 900000 3.0993 13.2334 4.1519 0.0000 -11215.3265 1622.9841 0.0000 0.0000 1572.7262 -7999.1314 269.2403 -9571.8576 -7996.6909 269.2403 542.6422 639.0148 29303.7230 542.6422 639.0148
ENERGY: 1100000 3.2595 12.8701 5.3409 0.0000 -10620.6880 1422.9156 0.0000 0.0000 1747.3019 -7429.0000 299.1265 -9176.3019 -7428.0552 300.1801 71.1763 127.2583 29849.6193 4.6696 4.6423
ENERGY: 1300000 2.7708 12.1403 3.9150 0.0000 -10691.8002 1465.5954 0.0000 0.0000 1732.8647 -7474.5140 296.6549 -9207.3787 -7471.2499 299.9602 89.1473 318.2516 29786.7746 3.4907 3.6945
ENERGY: 1500000 1.0964 18.5354 3.5869 0.0000 -10632.2309 1472.4828 0.0000 0.0000 1719.4007 -7417.1286 294.3500 -9136.5293 -7415.6072 300.1487 419.8081 456.6485 30329.9161 3.8183 3.8364
ENERGY: 1700000 3.8822 8.2282 5.6218 0.0000 -10478.0325 1405.8574 0.0000 0.0000 1744.2242 -7310.2188 298.5996 -9054.4429 -7303.7979 300.8483 -58.3421 45.3052 30444.5894 3.9269 3.8907
ENERGY: 1900000 4.3019 11.5255 6.1170 0.0000 -10596.9856 1450.2930 0.0000 0.0000 1810.2213 -7314.5268 309.8979 -9124.7481 -7308.4429 300.4651 92.5302 157.6202 30393.8505 4.4745 4.2479
TCL: Exiting due to exit command.
