Info: SIMULATION PARAMETERS:
Info: TIMESTEP               2
Info: NUMBER OF STEPS        0
Info: STEPS PER CYCLE        10
Info: PERIODIC CELL BASIS 1  31.0046 0 0
Info: PERIODIC CELL BASIS 2  0 31.3597 0
Info: PERIODIC CELL BASIS 3  0 0 31.566
Info: PERIODIC CELL CENTER   0 0 0
Info: WRAPPING WATERS AROUND PERIODIC BOUNDARIES ON OUTPUT.
Info: WRAPPING ALL CLUSTERS AROUND PERIODIC BOUNDARIES ON OUTPUT.
Info: FIRST LDB TIMESTEP     50
Info: LAST LDB TIMESTEP     -1
Info: HOM BACKGROUND SCALING 1
Info: PME BACKGROUND SCALING 1
Info: MIN ATOMS PER PATCH    40
Info: EMPTY PATCH LOAD       40 ATOMS
Info: VELOCITY FILE          mobley_9029594_equil.vel
Info: CENTER OF MASS MOVING INITIALLY? NO
Info: DIELECTRIC             1
Info: EXCLUDE                SCALED ONE-FOUR
Info: 1-4 ELECTROSTATICS SCALED BY 0.833333
Info: MODIFIED 1-4 VDW PARAMETERS WILL BE USED
Info: DCD FILENAME           mobley_9029594_prod.dcd
Info: DCD FREQUENCY          100000
Info: DCD FIRST STEP         100000
Info: DCD FILE WILL CONTAIN UNIT CELL DATA
Info: XST FILENAME           mobley_9029594_prod.xst
Info: XST FREQUENCY          100000
Info: NO VELOCITY DCD OUTPUT
Info: NO FORCE DCD OUTPUT
Info: OUTPUT FILENAME        mobley_9029594_prod
Info: BINARY OUTPUT FILES WILL BE USED
Info: RESTART FILENAME       mobley_9029594_prod.restart
Info: RESTART FREQUENCY      100000
Info: BINARY RESTART FILES WILL BE USED
Info: CUTOFF                 9
Info: PAIRLIST DISTANCE      11
Info: PAIRLIST SHRINK RATE   0.01
Info: PAIRLIST GROW RATE     0.01
Info: PAIRLIST TRIGGER       0.3
Info: PAIRLISTS PER CYCLE    2
Info: PAIRLISTS ENABLED
Info: MARGIN                 2
Info: HYDROGEN GROUP CUTOFF  2.5
Info: PATCH DIMENSION        15.5
Info: ENERGY OUTPUT STEPS    100000
Info: ENERGY EVALUATION STEPS    100000
Info: OUTPUT ENERGY PRECISION 4
Info: CROSSTERM ENERGY INCLUDED IN DIHEDRAL
Info: TIMING OUTPUT STEPS    1000000
Info: PRESSURE OUTPUT STEPS  100000
Info: ALCHEMICAL FEP ON
Info: FEP CURRENT LAMBDA VALUE     0
Info: FEP COMPARISON LAMBDA VALUE  0.05
Info: FEP INTRA-ALCHEMICAL NON-BONDED INTERACTIONS WILL BE RETAINED
Info: FEP INTRA-ALCHEMICAL BONDED INTERACTIONS WILL BE RETAINED
Info: FEP VDW SHIFTING COEFFICIENT 5
Info: FEP ELEC. ACTIVE FOR ANNIHILATED PARTICLES BETWEEN LAMBDA = 0 AND LAMBDA = 0.5
Info: FEP ELEC. ACTIVE FOR EXNIHILATED PARTICLES BETWEEN LAMBDA = 0.5 AND LAMBDA = 1
Info: FEP VDW ACTIVE FOR ANNIHILATED PARTICLES BETWEEN LAMBDA = 0 AND LAMBDA = 1
Info: FEP VDW ACTIVE FOR EXNIHILATED PARTICLES BETWEEN LAMBDA = 0 AND LAMBDA = 1
Info: FEP BOND ACTIVE FOR ANNIHILATED PARTICLES BETWEEN LAMBDA = 1 AND LAMBDA = 1
Info: FEP BOND ACTIVE FOR EXNIHILATED PARTICLES BETWEEN LAMBDA = 0 AND LAMBDA = 0
Info: LANGEVIN DYNAMICS ACTIVE
Info: LANGEVIN TEMPERATURE   300
Info: LANGEVIN USING BBK INTEGRATOR
Info: LANGEVIN DAMPING COEFFICIENT IS 1 INVERSE PS
Info: LANGEVIN DYNAMICS APPLIED TO HYDROGENS
Info: LANGEVIN PISTON PRESSURE CONTROL ACTIVE
Info:        TARGET PRESSURE IS 1.01325 BAR
Info:     OSCILLATION PERIOD IS 50 FS
Info:             DECAY TIME IS 25 FS
Info:     PISTON TEMPERATURE IS 300 K
Info:       PRESSURE CONTROL IS GROUP-BASED
Info:    INITIAL STRAIN RATE IS -0.00035852 -0.00035852 -0.00035852
Info:       CELL FLUCTUATION IS ISOTROPIC
Info: PARTICLE MESH EWALD (PME) ACTIVE
Info: PME TOLERANCE               1e-06
Info: PME EWALD COEFFICIENT       0.348832
Info: PME INTERPOLATION ORDER     4
Info: PME GRID DIMENSIONS         32 32 32
Info: PME MAXIMUM GRID SPACING    1
Info: PME CALCULATION WILL BE PERFORMED ON GPU
Info: FULL ELECTROSTATIC EVALUATION FREQUENCY      2
Info: USING VERLET I (r-RESPA) MTS SCHEME.
Info: C1 SPLITTING OF LONG RANGE ELECTROSTATICS
Info: PLACING ATOMS IN PATCHES BY HYDROGEN GROUPS
Info: RIGID BONDS TO HYDROGEN : ALL
Info:         ERROR TOLERANCE : 1e-08
Info:          MAX ITERATIONS : 100
Info: RIGID WATER USING SETTLE ALGORITHM
Info: RANDOM NUMBER SEED     1743464538
Info: USE HYDROGEN BONDS?    NO
Info: Using AMBER format force field!
Info: AMBER PARM FILE        mobley_9029594.prmtop
Info: COORDINATE PDB         mobley_9029594.pdb
Info: Exclusions will be read from PARM file!
Info: SCNB (VDW SCALING)     2
Info: USING ARITHMETIC MEAN TO COMBINE L-J SIGMA PARAMETERS
Info: BINARY COORDINATES     mobley_9029594_equil.coor
Info: SUMMARY OF PARAMETERS:
Info: 4 BONDS
Info: 2 ANGLES
Info:   2 HARMONIC
Info:   0 COSINE-BASED
Info: 0 DIHEDRAL
Info: 0 IMPROPER
Info: 0 CROSSTERM
Info: 0 VDW
Info: 15 VDW_PAIRS
Info: 0 NBTHOLE_PAIRS
Info: To read alchdata from file: mobley_9029594.pdb
Info: To read alchflag data from column: 5
Info: STRUCTURE SUMMARY:
Info: 2975 ATOMS
Info: 2974 BONDS
Info: 6 ANGLES
Info: 0 DIHEDRALS
Info: 0 IMPROPERS
Info: 0 CROSSTERMS
Info: 2980 EXCLUSIONS
Info: 2973 RIGID BONDS
Info: ALCH: 0 ATOMS TO DISAPPEAR IN FINAL STATE
Info: ALCH: 5 ATOMS TO APPEAR IN FINAL STATE
Info: 5952 DEGREES OF FREEDOM
Info: 992 HYDROGEN GROUPS
Info: 4 ATOMS IN LARGEST HYDROGEN GROUP
Info: 992 MIGRATION GROUPS
Info: 4 ATOMS IN LARGEST MIGRATION GROUP
Info: TOTAL MASS = 17869.9 amu
Info: TOTAL CHARGE = 7.45058e-09 e
Info: MASS DENSITY = 0.966858 g/cm^3
Info: ATOM DENSITY = 0.0969324 atoms/A^3
Info: ADDED 0 IMPLICIT EXCLUSIONS
Info: NONBONDED TABLE R-SQUARED SPACING: 0.0625
Info: NONBONDED TABLE SIZE: 705 POINTS
Info: REDUCING NUMBER OF PATCHES TO IMPROVE LOAD BALANCE
Info: REMOVING COM VELOCITY 0.0361045 -0.0880735 -0.0472856
Info: Use 3D box decompostion in PME FFT.
Info: Updated CUDA force table with 4096 elements.
Info: Updated CUDA LJ table with 5 x 5 elements.
Info: Found 8 unique exclusion lists needing 8 bytes
TCL: Running for 1500000 steps
ETITLE: TS BOND ANGLE DIHED IMPRP ELECT VDW BOUNDARY MISC KINETIC TOTAL TEMP POTENTIAL TOTALAVG TEMPAVG PRESSURE GPRESSURE VOLUME PRESSAVG GPRESSAVG
ENERGY: 0 0.0829 3.4917 0.0000 0.0000 -10910.9576 1480.4863 0.0000 0.0000 1789.5038 -7637.3929 302.5938 -9426.8967 -7637.3929 302.5938 -26.3587 49.2536 30691.4894 -26.3587 49.2536
ENERGY: 300000 0.0265 2.6784 0.0000 0.0000 -10758.8528 1374.7359 0.0000 0.0000 1749.2216 -7632.1905 295.7824 -9381.4120 -7608.2095 300.7623 -897.3749 -791.1244 30578.4801 -613.9734 -586.1309
ENERGY: 600000 0.0510 1.9320 0.0000 0.0000 -10830.7743 1422.0047 0.0000 0.0000 1768.0343 -7638.7523 298.9635 -9406.7866 -7626.0322 298.1717 -335.3810 -316.0543 30284.6597 -417.3974 -374.8919
ENERGY: 900000 1.7715 3.3176 0.0000 0.0000 -10923.6433 1527.3639 0.0000 0.0000 1793.3018 -7597.8885 303.2361 -9391.1903 -7615.9965 297.8701 890.9390 910.6456 29913.7584 -344.9652 -293.1414
ENERGY: 1200000 0.0131 4.1320 0.0000 0.0000 -10872.1913 1434.2440 0.0000 0.0000 1775.1537 -7658.6485 300.1673 -9433.8022 -7616.8574 298.1125 -223.7238 -189.6669 30262.4442 -306.2756 -248.0363
ENERGY: 1500000 0.3437 2.8151 0.0000 0.0000 -10808.9033 1458.3930 0.0000 0.0000 1767.9836 -7579.3680 298.9549 -9347.3516 -7597.0263 299.0375 -119.2358 -54.7665 30653.1131 -278.9652 -223.3277
TCL: Running FEP window   2: Lambda1 0.05   Lambda2 0.1    [dLambda 0.05  ]
TCL: Setting parameter firsttimestep to 0
TCL: Setting parameter alchLambda to 0.05
Info: NONBONDED TABLE R-SQUARED SPACING: 0.0625
Info: NONBONDED TABLE SIZE: 705 POINTS
TCL: Setting parameter alchLambda2 to 0.1
Info: NONBONDED TABLE R-SQUARED SPACING: 0.0625
Info: NONBONDED TABLE SIZE: 705 POINTS
TCL: Running for 1500000 steps
ETITLE: TS BOND ANGLE DIHED IMPRP ELECT VDW BOUNDARY MISC KINETIC TOTAL TEMP POTENTIAL TOTALAVG TEMPAVG PRESSURE GPRESSURE VOLUME PRESSAVG GPRESSAVG
ENERGY: 0 0.3437 2.8151 0.0000 0.0000 -10808.9029 1459.0613 0.0000 0.0000 1767.0965 -7579.5863 298.8049 -9346.6828 -7579.5863 298.8049 -134.5146 -53.8340 30653.1131 -134.5146 -53.8340
ENERGY: 300000 0.0533 0.9929 0.0000 0.0000 -10809.4580 1525.2681 0.0000 0.0000 1769.7903 -7513.3534 299.2604 -9283.1437 -7577.9951 296.5095 830.6746 895.8823 30650.0454 96.2782 149.3821
ENERGY: 600000 0.4534 1.4696 0.0000 0.0000 -10771.0441 1423.6741 0.0000 0.0000 1771.7659 -7573.6810 299.5945 -9345.4470 -7575.0945 297.3690 -171.1366 -154.1380 30620.0209 -124.5104 -63.2670
ENERGY: 900000 0.0942 2.4669 0.0000 0.0000 -10793.2785 1493.2757 0.0000 0.0000 1798.7015 -7498.7403 304.1491 -9297.4418 -7568.6471 300.3987 505.6814 526.7205 30869.8171 -55.9057 5.6662
ENERGY: 1200000 1.3913 1.3463 0.0000 0.0000 -10847.0937 1462.2856 0.0000 0.0000 1766.7049 -7615.3656 298.7387 -9382.0705 -7571.8327 300.6604 -275.1921 -148.1301 30633.0046 -46.1089 14.0858
ENERGY: 1500000 0.0093 1.9359 0.0000 0.0000 -10651.8441 1387.3696 0.0000 0.0000 1773.7075 -7488.8218 299.9228 -9262.5293 -7566.0989 300.5855 -411.8021 -352.5725 30826.0202 -64.6506 -2.6722
TCL: Running FEP window   3: Lambda1 0.1    Lambda2 0.15000000000000002 [dLambda 0.05000000000000002]
TCL: Setting parameter firsttimestep to 0
TCL: Setting parameter alchLambda to 0.1
Info: NONBONDED TABLE R-SQUARED SPACING: 0.0625
Info: NONBONDED TABLE SIZE: 705 POINTS
TCL: Setting parameter alchLambda2 to 0.15000000000000002
Info: NONBONDED TABLE R-SQUARED SPACING: 0.0625
Info: NONBONDED TABLE SIZE: 705 POINTS
TCL: Running for 1500000 steps
ETITLE: TS BOND ANGLE DIHED IMPRP ELECT VDW BOUNDARY MISC KINETIC TOTAL TEMP POTENTIAL TOTALAVG TEMPAVG PRESSURE GPRESSURE VOLUME PRESSAVG GPRESSAVG
ENERGY: 0 0.0093 1.9359 0.0000 0.0000 -10651.8457 1387.7116 0.0000 0.0000 1772.8358 -7489.3532 299.7754 -9262.1889 -7489.3532 299.7754 -449.5234 -352.1360 30826.0202 -449.5234 -352.1360
ENERGY: 300000 0.0586 0.9741 0.0000 0.0000 -10824.3188 1405.3506 0.0000 0.0000 1748.4225 -7669.5130 295.6473 -9417.9355 -7599.3429 296.5795 -275.6324 -223.3326 30202.5772 -221.7694 -154.5322
ENERGY: 600000 0.0031 2.3233 0.0000 0.0000 -10676.7102 1379.3142 0.0000 0.0000 1755.9320 -7539.1375 296.9171 -9295.0695 -7572.2975 297.6895 -833.7342 -763.7001 31253.3561 -316.3369 -251.9774
ENERGY: 900000 0.1923 1.7691 0.0000 0.0000 -10857.9785 1439.1978 0.0000 0.0000 1760.9580 -7655.8614 297.7669 -9416.8193 -7583.0154 297.4553 17.8208 -12.4406 30139.7278 -211.3416 -160.2577
ENERGY: 1200000 0.0101 2.2948 0.0000 0.0000 -10738.2568 1401.7884 0.0000 0.0000 1795.6857 -7538.4778 303.6392 -9334.1635 -7588.2526 298.3072 -454.6929 -380.8639 30648.8373 -203.1480 -148.3613
ENERGY: 1500000 0.2606 0.5563 0.0000 0.0000 -10922.6564 1555.5838 0.0000 0.0000 1813.1169 -7553.1388 306.5867 -9366.2557 -7586.8940 299.4064 827.4453 820.5632 30378.7714 -92.4614 -45.2143
TCL: Running FEP window   4: Lambda1 0.15000000000000002 Lambda2 0.2    [dLambda 0.04999999999999999]
TCL: Setting parameter firsttimestep to 0
TCL: Setting parameter alchLambda to 0.15000000000000002
Info: NONBONDED TABLE R-SQUARED SPACING: 0.0625
Info: NONBONDED TABLE SIZE: 705 POINTS
TCL: Setting parameter alchLambda2 to 0.2
Info: NONBONDED TABLE R-SQUARED SPACING: 0.0625
Info: NONBONDED TABLE SIZE: 705 POINTS
TCL: Running for 1500000 steps
ETITLE: TS BOND ANGLE DIHED IMPRP ELECT VDW BOUNDARY MISC KINETIC TOTAL TEMP POTENTIAL TOTALAVG TEMPAVG PRESSURE GPRESSURE VOLUME PRESSAVG GPRESSAVG
ENERGY: 0 0.2606 0.5563 0.0000 0.0000 -10922.6558 1555.7635 0.0000 0.0000 1812.2501 -7553.8252 306.4401 -9366.0753 -7553.8252 306.4401 744.5317 820.8157 30378.7714 744.5317 820.8157
ENERGY: 300000 0.0251 1.5777 0.0000 0.0000 -10875.7101 1422.3702 0.0000 0.0000 1733.1584 -7718.5786 293.0662 -9451.7370 -7592.1450 300.4679 -381.8183 -327.0344 30217.7453 -26.3316 68.3273
ENERGY: 600000 0.1911 0.5964 0.0000 0.0000 -10933.2105 1568.2826 0.0000 0.0000 1771.8233 -7592.3172 299.6042 -9364.1404 -7587.3814 298.2056 1033.0916 1092.9560 30060.4776 46.3586 131.2424
ENERGY: 900000 0.1812 1.3314 0.0000 0.0000 -10737.2032 1400.2203 0.0000 0.0000 1800.8532 -7534.6170 304.5130 -9335.4702 -7582.8957 297.2826 -400.6151 -416.8373 30784.7258 -109.4622 -47.3653
ENERGY: 1200000 0.0143 1.8660 0.0000 0.0000 -10809.5736 1489.9704 0.0000 0.0000 1755.2085 -7562.5143 296.7947 -9317.7228 -7581.6394 297.7263 389.6415 481.7101 30615.2313 -56.3811 12.7550
ENERGY: 1500000 0.2001 1.2644 0.0000 0.0000 -10825.1957 1462.1028 0.0000 0.0000 1729.4440 -7632.1845 292.4381 -9361.6285 -7581.2655 298.1678 88.0500 150.8570 30317.8776 -69.5722 -1.6066
TCL: Running FEP window   5: Lambda1 0.2    Lambda2 0.25   [dLambda 0.04999999999999999]
TCL: Setting parameter firsttimestep to 0
TCL: Setting parameter alchLambda to 0.2
Info: NONBONDED TABLE R-SQUARED SPACING: 0.0625
Info: NONBONDED TABLE SIZE: 705 POINTS
TCL: Setting parameter alchLambda2 to 0.25
Info: NONBONDED TABLE R-SQUARED SPACING: 0.0625
Info: NONBONDED TABLE SIZE: 705 POINTS
TCL: Running for 1500000 steps
ETITLE: TS BOND ANGLE DIHED IMPRP ELECT VDW BOUNDARY MISC KINETIC TOTAL TEMP POTENTIAL TOTALAVG TEMPAVG PRESSURE GPRESSURE VOLUME PRESSAVG GPRESSAVG
ENERGY: 0 0.2001 1.2644 0.0000 0.0000 -10825.1963 1462.8074 0.0000 0.0000 1728.5557 -7632.3688 292.2879 -9360.9245 -7632.3688 292.2879 65.3548 151.7095 30317.8776 65.3548 151.7095
ENERGY: 300000 0.0021 2.4963 0.0000 0.0000 -10863.0534 1488.7076 0.0000 0.0000 1783.7561 -7588.0914 301.6219 -9371.8475 -7605.5224 294.4349 206.2966 204.1886 30593.0753 33.9595 85.7906
ENERGY: 600000 0.3682 1.1579 0.0000 0.0000 -10790.4778 1383.5687 0.0000 0.0000 1805.2986 -7600.0844 305.2646 -9405.3830 -7585.5678 298.7026 -616.4265 -612.4547 30709.9567 -189.1131 -132.6625
ENERGY: 900000 0.1776 2.4219 0.0000 0.0000 -10787.7297 1411.6046 0.0000 0.0000 1745.1976 -7628.3280 295.1019 -9373.5256 -7578.8680 300.0422 -522.7865 -502.5783 30878.1379 -196.7059 -137.3488
ENERGY: 1200000 0.0184 1.6812 0.0000 0.0000 -10724.1976 1382.3674 0.0000 0.0000 1816.1363 -7523.9943 307.0972 -9340.1307 -7574.7536 300.7858 -570.7496 -430.3509 30617.8549 -221.7658 -155.5598
ENERGY: 1500000 0.6889 2.5902 0.0000 0.0000 -10930.2827 1525.2598 0.0000 0.0000 1720.9069 -7680.8369 290.9945 -9401.7438 -7575.8398 300.6428 473.2029 518.2135 30178.8212 -122.0486 -56.5273
TCL: Running FEP window   6: Lambda1 0.25   Lambda2 0.3    [dLambda 0.04999999999999999]
TCL: Setting parameter firsttimestep to 0
TCL: Setting parameter alchLambda to 0.25
Info: NONBONDED TABLE R-SQUARED SPACING: 0.0625
Info: NONBONDED TABLE SIZE: 705 POINTS
TCL: Setting parameter alchLambda2 to 0.3
Info: NONBONDED TABLE R-SQUARED SPACING: 0.0625
Info: NONBONDED TABLE SIZE: 705 POINTS
TCL: Running for 1500000 steps
ETITLE: TS BOND ANGLE DIHED IMPRP ELECT VDW BOUNDARY MISC KINETIC TOTAL TEMP POTENTIAL TOTALAVG TEMPAVG PRESSURE GPRESSURE VOLUME PRESSAVG GPRESSAVG
ENERGY: 0 0.6889 2.5902 0.0000 0.0000 -10930.2825 1525.6573 0.0000 0.0000 1720.0548 -7681.2913 290.8505 -9401.3461 -7681.2913 290.8505 441.5543 522.4769 30178.8212 441.5543 522.4769
ENERGY: 300000 0.0653 2.1871 0.0000 0.0000 -10771.7101 1465.4391 0.0000 0.0000 1761.5806 -7542.4379 297.8722 -9304.0186 -7616.9519 298.1564 141.4009 182.1773 30726.1171 285.2819 330.7060
ENERGY: 600000 0.1293 1.5443 0.0000 0.0000 -11064.4642 1528.0159 0.0000 0.0000 1784.4630 -7750.3116 301.7415 -9534.7747 -7630.3836 297.8899 85.2157 154.0358 30336.1463 140.7355 185.8251
ENERGY: 900000 0.3067 1.2578 0.0000 0.0000 -10780.9959 1387.5765 0.0000 0.0000 1792.4116 -7599.4433 303.0855 -9391.8549 -7618.4495 298.6404 -568.2172 -541.3608 30465.6897 18.3284 58.7030
ENERGY: 1200000 0.0792 0.4393 0.0000 0.0000 -10685.0146 1329.6400 0.0000 0.0000 1776.3457 -7578.5103 300.3689 -9354.8560 -7615.3102 299.3453 -1205.4502 -1143.4594 31167.5449 -86.6912 -41.5601
ENERGY: 1500000 0.0652 4.9215 0.0000 0.0000 -10789.8106 1429.1761 0.0000 0.0000 1714.7196 -7640.9281 289.9483 -9355.6478 -7614.6837 298.8804 -137.1942 -157.7098 30420.7310 -131.2275 -86.6504
TCL: Running FEP window   7: Lambda1 0.3    Lambda2 0.35   [dLambda 0.04999999999999999]
TCL: Setting parameter firsttimestep to 0
TCL: Setting parameter alchLambda to 0.3
Info: NONBONDED TABLE R-SQUARED SPACING: 0.0625
Info: NONBONDED TABLE SIZE: 705 POINTS
TCL: Setting parameter alchLambda2 to 0.35
Info: NONBONDED TABLE R-SQUARED SPACING: 0.0625
Info: NONBONDED TABLE SIZE: 705 POINTS
TCL: Running for 1500000 steps
ETITLE: TS BOND ANGLE DIHED IMPRP ELECT VDW BOUNDARY MISC KINETIC TOTAL TEMP POTENTIAL TOTALAVG TEMPAVG PRESSURE GPRESSURE VOLUME PRESSAVG GPRESSAVG
ENERGY: 0 0.0652 4.9215 0.0000 0.0000 -10789.8120 1429.3346 0.0000 0.0000 1713.8394 -7641.6513 289.7995 -9355.4907 -7641.6513 289.7995 -249.3678 -159.4808 30420.7310 -249.3678 -159.4808
ENERGY: 300000 0.5489 4.7092 0.0000 0.0000 -10694.5168 1376.5497 0.0000 0.0000 1749.0393 -7563.6696 295.7515 -9312.7089 -7602.9090 295.5069 -684.3061 -622.1277 31057.2656 -355.4556 -275.6339
ENERGY: 600000 0.4007 0.6655 0.0000 0.0000 -10751.9644 1429.4721 0.0000 0.0000 1797.0669 -7524.3593 303.8727 -9321.4262 -7593.9552 296.7432 -351.0866 -322.2619 31098.0155 -300.5906 -236.4986
ENERGY: 900000 0.0003 0.6507 0.0000 0.0000 -10699.8670 1355.9880 0.0000 0.0000 1754.2936 -7588.9344 296.6400 -9343.2280 -7585.3142 298.2414 -731.8056 -675.2045 30696.1132 -390.0927 -334.8705
ENERGY: 1200000 0.1348 1.5798 0.0000 0.0000 -10734.4928 1415.2097 0.0000 0.0000 1759.9141 -7557.6544 297.5904 -9317.5685 -7581.8510 298.6242 -220.4510 -134.1928 30467.1330 -254.8067 -199.5591
ENERGY: 1500000 0.0674 1.1480 0.0000 0.0000 -10761.7791 1464.0667 0.0000 0.0000 1833.1655 -7463.3314 309.9768 -9296.4970 -7576.4548 300.1108 39.6496 140.0642 30831.3103 -174.1131 -113.1483
TCL: Running FEP window   8: Lambda1 0.35   Lambda2 0.39999999999999997 [dLambda 0.04999999999999999]
TCL: Setting parameter firsttimestep to 0
TCL: Setting parameter alchLambda to 0.35
Info: NONBONDED TABLE R-SQUARED SPACING: 0.0625
Info: NONBONDED TABLE SIZE: 705 POINTS
TCL: Setting parameter alchLambda2 to 0.39999999999999997
Info: NONBONDED TABLE R-SQUARED SPACING: 0.0625
Info: NONBONDED TABLE SIZE: 705 POINTS
TCL: Running for 1500000 steps
ETITLE: TS BOND ANGLE DIHED IMPRP ELECT VDW BOUNDARY MISC KINETIC TOTAL TEMP POTENTIAL TOTALAVG TEMPAVG PRESSURE GPRESSURE VOLUME PRESSAVG GPRESSAVG
ENERGY: 0 0.0674 1.1480 0.0000 0.0000 -10761.7793 1464.1080 0.0000 0.0000 1832.2706 -7464.1853 309.8254 -9296.4559 -7464.1853 309.8254 61.6031 142.6547 30831.3103 61.6031 142.6547
ENERGY: 300000 0.0316 0.9107 0.0000 0.0000 -10906.9159 1564.3827 0.0000 0.0000 1824.2158 -7517.3751 308.4634 -9341.5908 -7538.1213 302.8575 1095.0118 1150.1945 30206.8704 435.4687 488.3163
ENERGY: 600000 0.0134 2.1852 0.0000 0.0000 -10834.5690 1453.0129 0.0000 0.0000 1837.0084 -7542.3491 310.6266 -9379.3575 -7573.2179 302.1475 -235.5490 -190.8218 31033.1753 91.4586 146.5758
ENERGY: 900000 0.0330 1.5377 0.0000 0.0000 -10855.6399 1489.9646 0.0000 0.0000 1779.4766 -7584.6280 300.8983 -9364.1046 -7588.2158 301.3098 164.9728 249.4035 30593.8217 88.1580 149.9928
ENERGY: 1200000 0.1676 1.0075 0.0000 0.0000 -10655.1789 1378.6339 0.0000 0.0000 1777.0911 -7498.2788 300.4949 -9275.3699 -7570.6474 301.4836 -343.0074 -247.8335 30482.2498 -41.9793 26.0864
ENERGY: 1500000 0.2073 1.6874 0.0000 0.0000 -10850.1594 1422.0285 0.0000 0.0000 1759.5359 -7666.7003 297.5265 -9426.2361 -7584.3315 300.3126 -660.1797 -627.8723 30861.2127 -62.2603 7.9172
TCL: Running FEP window   9: Lambda1 0.39999999999999997 Lambda2 0.44999999999999996 [dLambda 0.04999999999999999]
TCL: Setting parameter firsttimestep to 0
TCL: Setting parameter alchLambda to 0.39999999999999997
Info: NONBONDED TABLE R-SQUARED SPACING: 0.0625
Info: NONBONDED TABLE SIZE: 705 POINTS
TCL: Setting parameter alchLambda2 to 0.44999999999999996
Info: NONBONDED TABLE R-SQUARED SPACING: 0.0625
Info: NONBONDED TABLE SIZE: 705 POINTS
TCL: Running for 1500000 steps
ETITLE: TS BOND ANGLE DIHED IMPRP ELECT VDW BOUNDARY MISC KINETIC TOTAL TEMP POTENTIAL TOTALAVG TEMPAVG PRESSURE GPRESSURE VOLUME PRESSAVG GPRESSAVG
ENERGY: 0 0.2073 1.6874 0.0000 0.0000 -10850.1599 1422.9578 0.0000 0.0000 1758.6941 -7666.6133 297.3841 -9425.3074 -7666.6133 297.3841 -701.7065 -619.0648 30861.2127 -701.7065 -619.0648
ENERGY: 300000 0.4931 0.4204 0.0000 0.0000 -10757.9477 1453.3102 0.0000 0.0000 1817.0451 -7486.6790 307.2509 -9303.7241 -7553.6845 304.5349 -82.9860 10.5508 30935.8111 -112.2113 -21.4041
ENERGY: 600000 0.1543 0.9929 0.0000 0.0000 -10832.1449 1507.4987 0.0000 0.0000 1821.2722 -7502.2269 307.9657 -9323.4990 -7527.0504 305.8759 435.4078 529.2835 30588.1317 -175.0971 -95.0061
ENERGY: 900000 0.3452 1.7928 0.0000 0.0000 -10782.5425 1423.9928 0.0000 0.0000 1769.6991 -7586.7126 299.2450 -9356.4117 -7545.1035 302.6441 -469.1483 -341.4693 31034.6821 -69.6475 0.9874
ENERGY: 1200000 0.0097 1.5846 0.0000 0.0000 -10722.8697 1409.5112 0.0000 0.0000 1722.5396 -7589.2247 291.2706 -9311.7643 -7568.2835 300.7603 -417.5653 -356.0759 31175.0057 -99.1062 -30.4243
ENERGY: 1500000 0.4965 3.3335 0.0000 0.0000 -10680.9053 1310.1138 0.0000 0.0000 1798.1900 -7568.7715 304.0626 -9366.9615 -7569.8110 300.6121 -1553.9244 -1462.2618 31440.4335 -148.7626 -83.1437
TCL: Running FEP window  10: Lambda1 0.44999999999999996 Lambda2 0.49999999999999994 [dLambda 0.04999999999999999]
TCL: Setting parameter firsttimestep to 0
TCL: Setting parameter alchLambda to 0.44999999999999996
Info: NONBONDED TABLE R-SQUARED SPACING: 0.0625
Info: NONBONDED TABLE SIZE: 705 POINTS
TCL: Setting parameter alchLambda2 to 0.49999999999999994
Info: NONBONDED TABLE R-SQUARED SPACING: 0.0625
Info: NONBONDED TABLE SIZE: 705 POINTS
TCL: Running for 1500000 steps
ETITLE: TS BOND ANGLE DIHED IMPRP ELECT VDW BOUNDARY MISC KINETIC TOTAL TEMP POTENTIAL TOTALAVG TEMPAVG PRESSURE GPRESSURE VOLUME PRESSAVG GPRESSAVG
ENERGY: 0 0.4965 3.3335 0.0000 0.0000 -10680.9056 1310.1204 0.0000 0.0000 1797.3073 -7569.6478 303.9134 -9366.9551 -7569.6478 303.9134 -1542.8914 -1461.2653 31440.4335 -1542.8914 -1461.2653
ENERGY: 300000 0.1809 1.4358 0.0000 0.0000 -10831.1137 1492.4262 0.0000 0.0000 1795.8697 -7541.2010 303.6703 -9337.0707 -7556.4611 302.7981 358.5511 405.8498 30669.5677 -184.4421 -110.0692
ENERGY: 600000 0.2869 2.5796 0.0000 0.0000 -10795.8235 1439.7610 0.0000 0.0000 1797.2183 -7555.9777 303.8983 -9353.1960 -7556.6592 303.6938 -42.2669 10.6507 30454.5217 -22.8797 44.4321
ENERGY: 900000 1.2661 0.8251 0.0000 0.0000 -10912.3791 1513.3481 0.0000 0.0000 1785.1178 -7611.8220 301.8522 -9396.9398 -7572.7172 302.0667 505.7432 543.8837 30131.2713 110.5983 156.2398
ENERGY: 1200000 0.2347 1.0117 0.0000 0.0000 -10767.4147 1414.1527 0.0000 0.0000 1755.8274 -7596.1884 296.8994 -9352.0157 -7577.7943 301.2084 -308.7481 -249.0469 30618.6603 41.1529 94.7509
ENERGY: 1500000 1.6112 2.1801 0.0000 0.0000 -10796.8049 1436.0786 0.0000 0.0000 1765.1024 -7591.8325 298.4677 -9356.9349 -7576.9670 300.4235 -478.4907 -423.3022 31110.0078 -4.1725 51.7703
TCL: Running FEP window  11: Lambda1 0.49999999999999994 Lambda2 0.5499999999999999 [dLambda 0.04999999999999999]
TCL: Setting parameter firsttimestep to 0
TCL: Setting parameter alchLambda to 0.49999999999999994
Info: NONBONDED TABLE R-SQUARED SPACING: 0.0625
Info: NONBONDED TABLE SIZE: 705 POINTS
TCL: Setting parameter alchLambda2 to 0.5499999999999999
Info: NONBONDED TABLE R-SQUARED SPACING: 0.0625
Info: NONBONDED TABLE SIZE: 705 POINTS
TCL: Running for 1500000 steps
ETITLE: TS BOND ANGLE DIHED IMPRP ELECT VDW BOUNDARY MISC KINETIC TOTAL TEMP POTENTIAL TOTALAVG TEMPAVG PRESSURE GPRESSURE VOLUME PRESSAVG GPRESSAVG
ENERGY: 0 1.6112 2.1801 0.0000 0.0000 -10796.8048 1436.0236 0.0000 0.0000 1764.2481 -7592.7418 298.3233 -9356.9899 -7592.7418 298.3233 -501.8223 -422.1267 31110.0078 -501.8223 -422.1267
ENERGY: 300000 0.0593 2.2175 0.0000 0.0000 -10740.4890 1393.5984 0.0000 0.0000 1758.8440 -7585.7698 297.4095 -9344.6138 -7574.2515 299.7196 -345.8519 -306.9155 30364.1671 -351.6569 -283.0667
ENERGY: 600000 0.2613 1.1460 0.0000 0.0000 -10825.2038 1516.5817 0.0000 0.0000 1761.0596 -7546.1552 297.7841 -9307.2147 -7582.8451 298.0088 510.2287 568.1339 30834.4844 -166.5519 -96.9382
ENERGY: 900000 2.6979 1.2536 0.0000 0.0000 -10770.2649 1433.3974 0.0000 0.0000 1796.8932 -7536.0228 303.8433 -9332.9160 -7588.3250 299.2327 -385.2149 -288.1573 30688.5341 -271.0806 -208.8557
ENERGY: 1200000 0.2260 0.7102 0.0000 0.0000 -10858.4915 1496.2432 0.0000 0.0000 1730.3765 -7630.9356 292.5958 -9361.3120 -7591.7670 298.0814 205.7254 242.3656 30693.2835 -228.2528 -170.7343
ENERGY: 1500000 0.5775 1.8332 0.0000 0.0000 -10814.5698 1453.5146 0.0000 0.0000 1760.6303 -7598.0142 297.7115 -9358.6445 -7587.9390 298.4491 -64.9306 34.3767 30594.3010 -189.1621 -130.9959
TCL: Running FEP window  12: Lambda1 0.5499999999999999 Lambda2 0.6    [dLambda 0.050000000000000044]
TCL: Setting parameter firsttimestep to 0
TCL: Setting parameter alchLambda to 0.5499999999999999
Info: NONBONDED TABLE R-SQUARED SPACING: 0.0625
Info: NONBONDED TABLE SIZE: 705 POINTS
TCL: Setting parameter alchLambda2 to 0.6
Info: NONBONDED TABLE R-SQUARED SPACING: 0.0625
Info: NONBONDED TABLE SIZE: 705 POINTS
TCL: Running for 1500000 steps
ETITLE: TS BOND ANGLE DIHED IMPRP ELECT VDW BOUNDARY MISC KINETIC TOTAL TEMP POTENTIAL TOTALAVG TEMPAVG PRESSURE GPRESSURE VOLUME PRESSAVG GPRESSAVG
ENERGY: 0 0.5775 1.8332 0.0000 0.0000 -10814.5970 1453.4643 0.0000 0.0000 1759.7726 -7598.9494 297.5665 -9358.7221 -7598.9494 297.5665 -53.2980 35.3283 30594.3010 -53.2980 35.3283
ENERGY: 300000 0.0419 0.4021 0.0000 0.0000 -10812.4980 1504.0339 0.0000 0.0000 1772.2924 -7535.7278 299.6835 -9308.0202 -7588.3268 299.9245 411.6667 529.9958 30646.1362 408.1459 503.8578
ENERGY: 600000 0.1497 1.0092 0.0000 0.0000 -10738.8699 1429.5434 0.0000 0.0000 1820.0190 -7488.1485 307.7538 -9308.1675 -7577.8356 301.2640 -146.0130 -122.7338 30843.4878 225.8267 308.9023
ENERGY: 900000 0.3034 2.1887 0.0000 0.0000 -10859.4409 1398.6459 0.0000 0.0000 1680.1767 -7778.1262 284.1073 -9458.3029 -7602.1268 300.5064 -804.9845 -741.3129 30620.0523 101.9995 183.5293
ENERGY: 1200000 0.5214 1.0673 0.0000 0.0000 -10852.6153 1486.1685 0.0000 0.0000 1750.0860 -7614.7721 295.9285 -9364.8581 -7602.7947 299.5140 203.3127 297.2316 30303.9545 109.4206 192.0042
ENERGY: 1500000 1.4737 2.1855 0.0000 0.0000 -10850.3938 1482.4935 0.0000 0.0000 1791.7726 -7572.4686 302.9775 -9364.2412 -7600.5306 299.3015 -53.9403 74.2502 30857.2110 55.1520 146.0990
TCL: Running FEP window  13: Lambda1 0.6    Lambda2 0.65   [dLambda 0.050000000000000044]
TCL: Setting parameter firsttimestep to 0
TCL: Setting parameter alchLambda to 0.6
Info: NONBONDED TABLE R-SQUARED SPACING: 0.0625
Info: NONBONDED TABLE SIZE: 705 POINTS
TCL: Setting parameter alchLambda2 to 0.65
Info: NONBONDED TABLE R-SQUARED SPACING: 0.0625
Info: NONBONDED TABLE SIZE: 705 POINTS
TCL: Running for 1500000 steps
ETITLE: TS BOND ANGLE DIHED IMPRP ELECT VDW BOUNDARY MISC KINETIC TOTAL TEMP POTENTIAL TOTALAVG TEMPAVG PRESSURE GPRESSURE VOLUME PRESSAVG GPRESSAVG
ENERGY: 0 1.4737 2.1855 0.0000 0.0000 -10850.5481 1482.5844 0.0000 0.0000 1790.9358 -7573.3688 302.8360 -9364.3046 -7573.3688 302.8360 -14.9521 76.1199 30857.2110 -14.9521 76.1199
ENERGY: 300000 0.0532 2.0919 0.0000 0.0000 -10771.1256 1444.6973 0.0000 0.0000 1714.0860 -7610.1972 289.8412 -9324.2832 -7583.4793 298.4122 74.8176 132.0311 30601.5741 166.0396 236.1317
ENERGY: 600000 0.4409 2.3258 0.0000 0.0000 -10902.7335 1560.8921 0.0000 0.0000 1800.5467 -7538.5281 304.4611 -9339.0747 -7573.2414 298.9776 1279.8948 1323.0884 30101.5979 307.9790 374.5462
ENERGY: 900000 0.0045 2.9044 0.0000 0.0000 -10859.2411 1511.9057 0.0000 0.0000 1713.4737 -7630.9529 289.7376 -9344.4266 -7576.4566 298.4870 388.5685 434.5035 30775.9102 85.4622 133.6300
ENERGY: 1200000 1.2533 2.0036 0.0000 0.0000 -10811.5551 1438.0774 0.0000 0.0000 1757.9270 -7612.2939 297.2544 -9370.2208 -7584.1066 298.2573 -223.1692 -191.5191 30547.8039 -60.7224 -2.7353
ENERGY: 1500000 2.7892 0.6662 0.0000 0.0000 -10946.0544 1558.5105 0.0000 0.0000 1781.7605 -7602.3281 301.2845 -9384.0886 -7587.2983 298.6700 731.6570 797.6720 30352.0581 18.0815 70.5923
TCL: Running FEP window  14: Lambda1 0.65   Lambda2 0.7000000000000001 [dLambda 0.050000000000000044]
TCL: Setting parameter firsttimestep to 0
TCL: Setting parameter alchLambda to 0.65
Info: NONBONDED TABLE R-SQUARED SPACING: 0.0625
Info: NONBONDED TABLE SIZE: 705 POINTS
TCL: Setting parameter alchLambda2 to 0.7000000000000001
Info: NONBONDED TABLE R-SQUARED SPACING: 0.0625
Info: NONBONDED TABLE SIZE: 705 POINTS
TCL: Running for 1500000 steps
ETITLE: TS BOND ANGLE DIHED IMPRP ELECT VDW BOUNDARY MISC KINETIC TOTAL TEMP POTENTIAL TOTALAVG TEMPAVG PRESSURE GPRESSURE VOLUME PRESSAVG GPRESSAVG
ENERGY: 0 2.7892 0.6662 0.0000 0.0000 -10946.1860 1558.7317 0.0000 0.0000 1780.8447 -7603.1543 301.1296 -9383.9990 -7603.1543 301.1296 714.1591 801.0492 30352.0581 714.1591 801.0492
ENERGY: 300000 0.0002 0.6154 0.0000 0.0000 -10819.8662 1428.4763 0.0000 0.0000 1758.3151 -7632.4593 297.3200 -9390.7744 -7608.0577 298.0608 -470.3511 -409.7972 30875.8532 -326.8179 -259.5235
ENERGY: 600000 0.0005 1.8393 0.0000 0.0000 -10778.5333 1448.6141 0.0000 0.0000 1805.8942 -7522.1850 305.3654 -9328.0793 -7592.1927 299.3381 -23.4414 73.7630 30692.8165 -215.5493 -146.2885
ENERGY: 900000 0.0000 1.3344 0.0000 0.0000 -10672.3234 1345.8994 0.0000 0.0000 1873.7780 -7451.3116 316.8441 -9325.0896 -7590.5495 301.4235 -820.8628 -749.6584 31046.5945 -211.6225 -151.8671
ENERGY: 1200000 0.1382 5.8743 0.0000 0.0000 -10811.8745 1456.7984 0.0000 0.0000 1800.3506 -7548.7131 304.4280 -9349.0637 -7585.1976 302.6476 140.9009 173.5540 30321.1963 -98.8299 -41.2590
ENERGY: 1500000 0.3221 2.1056 0.0000 0.0000 -10710.1033 1418.5268 0.0000 0.0000 1753.9149 -7535.2338 296.5760 -9289.1488 -7583.5401 301.1051 -363.5954 -325.8123 31110.4569 -48.9738 5.9817
TCL: Running FEP window  15: Lambda1 0.7000000000000001 Lambda2 0.7500000000000001 [dLambda 0.050000000000000044]
TCL: Setting parameter firsttimestep to 0
TCL: Setting parameter alchLambda to 0.7000000000000001
Info: NONBONDED TABLE R-SQUARED SPACING: 0.0625
Info: NONBONDED TABLE SIZE: 705 POINTS
TCL: Setting parameter alchLambda2 to 0.7500000000000001
Info: NONBONDED TABLE R-SQUARED SPACING: 0.0625
Info: NONBONDED TABLE SIZE: 705 POINTS
TCL: Running for 1500000 steps
ETITLE: TS BOND ANGLE DIHED IMPRP ELECT VDW BOUNDARY MISC KINETIC TOTAL TEMP POTENTIAL TOTALAVG TEMPAVG PRESSURE GPRESSURE VOLUME PRESSAVG GPRESSAVG
ENERGY: 0 0.3221 2.1056 0.0000 0.0000 -10710.2845 1418.7317 0.0000 0.0000 1753.0584 -7536.0667 296.4312 -9289.1251 -7536.0667 296.4312 -388.6167 -321.3175 31110.4569 -388.6167 -321.3175
ENERGY: 300000 0.3937 2.0178 0.0000 0.0000 -10633.2665 1335.1485 0.0000 0.0000 1783.0879 -7512.6186 301.5090 -9295.7065 -7549.0001 297.6187 -901.8273 -817.2928 30750.2919 -677.0130 -616.7816
ENERGY: 600000 0.8196 2.5365 0.0000 0.0000 -10983.8471 1650.6133 0.0000 0.0000 1817.3274 -7512.5503 307.2986 -9329.8777 -7556.6807 300.0212 1651.4619 1675.6173 30450.0660 -124.1386 -77.9262
ENERGY: 900000 0.0009 1.2324 0.0000 0.0000 -10776.2272 1431.8047 0.0000 0.0000 1732.0634 -7611.1258 292.8810 -9343.1892 -7568.0930 299.1496 -336.7241 -221.5786 30726.2680 -115.2033 -52.7111
ENERGY: 1200000 0.0285 3.5656 0.0000 0.0000 -10700.2881 1418.4074 0.0000 0.0000 1791.5272 -7486.7595 302.9360 -9278.2867 -7555.8558 300.0429 9.7071 44.2577 30714.8673 -115.3502 -49.3780
ENERGY: 1500000 0.1431 1.6855 0.0000 0.0000 -10804.1854 1479.4746 0.0000 0.0000 1792.7635 -7530.1188 303.1450 -9322.8823 -7560.4425 299.7641 304.8016 380.3072 30443.3713 -11.4458 50.2663
TCL: Running FEP window  16: Lambda1 0.7500000000000001 Lambda2 0.8000000000000002 [dLambda 0.050000000000000044]
TCL: Setting parameter firsttimestep to 0
TCL: Setting parameter alchLambda to 0.7500000000000001
Info: NONBONDED TABLE R-SQUARED SPACING: 0.0625
Info: NONBONDED TABLE SIZE: 705 POINTS
TCL: Setting parameter alchLambda2 to 0.8000000000000002
Info: NONBONDED TABLE R-SQUARED SPACING: 0.0625
Info: NONBONDED TABLE SIZE: 705 POINTS
TCL: Running for 1500000 steps
ETITLE: TS BOND ANGLE DIHED IMPRP ELECT VDW BOUNDARY MISC KINETIC TOTAL TEMP POTENTIAL TOTALAVG TEMPAVG PRESSURE GPRESSURE VOLUME PRESSAVG GPRESSAVG
ENERGY: 0 0.1431 1.6855 0.0000 0.0000 -10804.4011 1479.5957 0.0000 0.0000 1791.9304 -7531.0465 303.0042 -9322.9769 -7531.0465 303.0042 302.7451 384.8474 30443.3713 302.7451 384.8474
ENERGY: 300000 0.1061 0.8849 0.0000 0.0000 -10885.4807 1458.5761 0.0000 0.0000 1770.0092 -7655.9043 299.2974 -9425.9135 -7593.9178 299.4705 -338.8040 -324.0594 30958.5470 363.7142 408.3352
ENERGY: 600000 0.5901 0.6104 0.0000 0.0000 -10654.9443 1327.0689 0.0000 0.0000 1781.5317 -7545.1431 301.2458 -9326.6748 -7587.0546 301.5640 -854.4333 -760.8332 30542.4321 146.6643 206.8807
ENERGY: 900000 0.0892 1.3496 0.0000 0.0000 -10809.7045 1424.3829 0.0000 0.0000 1834.4104 -7549.4725 310.1873 -9383.8829 -7566.6646 302.9642 -418.8625 -388.6323 30892.1106 38.3876 94.1676
ENERGY: 1200000 0.0734 1.5515 0.0000 0.0000 -10855.8226 1492.1904 0.0000 0.0000 1734.8365 -7627.1708 293.3499 -9362.0073 -7570.8783 301.3884 116.4888 108.6972 30821.5370 24.4094 78.5931
ENERGY: 1500000 0.5723 2.4941 0.0000 0.0000 -10951.2663 1548.3881 0.0000 0.0000 1751.2962 -7648.5155 296.1332 -9399.8117 -7575.5993 301.3783 785.7192 803.9505 30523.9378 96.4311 144.3725
TCL: Running FEP window  17: Lambda1 0.8000000000000002 Lambda2 0.8500000000000002 [dLambda 0.050000000000000044]
TCL: Setting parameter firsttimestep to 0
TCL: Setting parameter alchLambda to 0.8000000000000002
Info: NONBONDED TABLE R-SQUARED SPACING: 0.0625
Info: NONBONDED TABLE SIZE: 705 POINTS
TCL: Setting parameter alchLambda2 to 0.8500000000000002
Info: NONBONDED TABLE R-SQUARED SPACING: 0.0625
Info: NONBONDED TABLE SIZE: 705 POINTS
TCL: Running for 1500000 steps
ETITLE: TS BOND ANGLE DIHED IMPRP ELECT VDW BOUNDARY MISC KINETIC TOTAL TEMP POTENTIAL TOTALAVG TEMPAVG PRESSURE GPRESSURE VOLUME PRESSAVG GPRESSAVG
ENERGY: 0 0.5723 2.4941 0.0000 0.0000 -10951.7375 1548.4368 0.0000 0.0000 1750.4386 -7649.7956 295.9882 -9400.2342 -7649.7956 295.9882 724.6990 806.9726 30523.9378 724.6990 806.9726
ENERGY: 300000 0.3078 1.2730 0.0000 0.0000 -10784.5805 1458.8405 0.0000 0.0000 1772.7294 -7551.4299 299.7574 -9324.1592 -7593.6051 298.4497 195.2021 285.4562 30371.6292 465.5454 557.0123
ENERGY: 600000 0.5098 1.3861 0.0000 0.0000 -10934.7576 1524.5522 0.0000 0.0000 1776.2816 -7632.0279 300.3580 -9408.3095 -7607.0397 298.1807 250.1353 346.3303 30649.5289 340.0520 413.5885
ENERGY: 900000 0.2936 1.5616 0.0000 0.0000 -10912.8095 1526.0028 0.0000 0.0000 1787.4506 -7597.5009 302.2467 -9384.9515 -7618.7279 296.9131 345.3186 443.5372 30683.5356 250.6241 327.9033
ENERGY: 1200000 0.0098 2.0732 0.0000 0.0000 -11003.0177 1535.8966 0.0000 0.0000 1736.0367 -7729.0013 293.5529 -9465.0380 -7625.5531 297.0288 337.7342 433.1541 30326.1147 127.2053 210.0490
ENERGY: 1500000 0.3448 3.4330 0.0000 0.0000 -10896.0389 1506.4036 0.0000 0.0000 1781.3188 -7604.5386 301.2098 -9385.8574 -7625.3403 297.5371 289.0239 308.9072 30807.9415 43.5465 117.3666
TCL: Running FEP window  18: Lambda1 0.8500000000000002 Lambda2 0.9000000000000002 [dLambda 0.050000000000000044]
TCL: Setting parameter firsttimestep to 0
TCL: Setting parameter alchLambda to 0.8500000000000002
Info: NONBONDED TABLE R-SQUARED SPACING: 0.0625
Info: NONBONDED TABLE SIZE: 705 POINTS
TCL: Setting parameter alchLambda2 to 0.9000000000000002
Info: NONBONDED TABLE R-SQUARED SPACING: 0.0625
Info: NONBONDED TABLE SIZE: 705 POINTS
TCL: Running for 1500000 steps
ETITLE: TS BOND ANGLE DIHED IMPRP ELECT VDW BOUNDARY MISC KINETIC TOTAL TEMP POTENTIAL TOTALAVG TEMPAVG PRESSURE GPRESSURE VOLUME PRESSAVG GPRESSAVG
ENERGY: 0 0.3448 3.4330 0.0000 0.0000 -10896.5478 1506.7994 0.0000 0.0000 1780.4589 -7605.5116 301.0644 -9385.9705 -7605.5116 301.0644 227.7193 317.2834 30807.9415 227.7193 317.2834
ENERGY: 300000 0.2596 0.4371 0.0000 0.0000 -10782.6766 1427.3333 0.0000 0.0000 1760.2550 -7594.3916 297.6481 -9354.6466 -7609.9792 299.2340 -278.5599 -242.7045 30604.5957 242.7496 336.0894
ENERGY: 600000 0.3421 4.4975 0.0000 0.0000 -10891.4492 1553.1351 0.0000 0.0000 1804.5549 -7528.9197 305.1389 -9333.4745 -7584.6729 299.1850 1023.8088 1094.9376 30257.9341 310.0555 386.4708
ENERGY: 900000 0.0689 2.1419 0.0000 0.0000 -10792.0182 1425.5872 0.0000 0.0000 1781.3861 -7582.8341 301.2212 -9364.2203 -7595.5489 298.3850 -221.0746 -207.6779 30566.1081 200.5594 263.1961
ENERGY: 1200000 0.1651 1.4014 0.0000 0.0000 -10869.0147 1531.3077 0.0000 0.0000 1814.8920 -7521.2485 306.8868 -9336.1405 -7582.2632 299.4603 798.9415 892.6434 30339.6434 221.2813 294.0077
ENERGY: 1500000 0.0835 6.3277 0.0000 0.0000 -10803.2810 1440.3200 0.0000 0.0000 1723.9028 -7632.6470 291.5011 -9356.5498 -7576.8268 299.7690 -142.4579 -43.9607 30463.2597 161.1221 237.6591
TCL: Running FEP window  19: Lambda1 0.9000000000000002 Lambda2 0.9500000000000003 [dLambda 0.050000000000000044]
TCL: Setting parameter firsttimestep to 0
TCL: Setting parameter alchLambda to 0.9000000000000002
Info: NONBONDED TABLE R-SQUARED SPACING: 0.0625
Info: NONBONDED TABLE SIZE: 705 POINTS
TCL: Setting parameter alchLambda2 to 0.9500000000000003
Info: NONBONDED TABLE R-SQUARED SPACING: 0.0625
Info: NONBONDED TABLE SIZE: 705 POINTS
TCL: Running for 1500000 steps
ETITLE: TS BOND ANGLE DIHED IMPRP ELECT VDW BOUNDARY MISC KINETIC TOTAL TEMP POTENTIAL TOTALAVG TEMPAVG PRESSURE GPRESSURE VOLUME PRESSAVG GPRESSAVG
ENERGY: 0 0.0835 6.3277 0.0000 0.0000 -10803.4873 1440.6202 0.0000 0.0000 1723.0135 -7633.4424 291.3508 -9356.4559 -7633.4424 291.3508 -125.2966 -37.3455 30463.2597 -125.2966 -37.3455
ENERGY: 300000 0.1039 0.5765 0.0000 0.0000 -10824.4680 1462.6897 0.0000 0.0000 1720.5050 -7640.5929 290.9266 -9361.0978 -7610.8485 292.9750 27.7815 93.9336 30438.6405 -214.8919 -164.0514
ENERGY: 600000 0.1875 3.5513 0.0000 0.0000 -10877.9475 1453.7725 0.0000 0.0000 1763.8667 -7656.5695 298.2588 -9420.4361 -7611.3806 294.3280 -302.1877 -203.3501 30737.9717 -151.0215 -101.8591
ENERGY: 900000 0.5344 0.6773 0.0000 0.0000 -10597.4260 1324.9152 0.0000 0.0000 1770.7363 -7500.5628 299.4204 -9271.2991 -7603.6140 294.9026 -1041.9326 -1039.3522 31292.8277 -304.2421 -259.8875
ENERGY: 1200000 0.3373 0.7374 0.0000 0.0000 -10842.5709 1367.2117 0.0000 0.0000 1747.3484 -7726.9360 295.4656 -9474.2844 -7616.8760 294.6894 -1156.7951 -1067.8982 30791.7509 -349.8730 -296.7138
ENERGY: 1500000 0.2601 2.4665 0.0000 0.0000 -10842.0323 1513.0528 0.0000 0.0000 1726.5754 -7599.6775 291.9530 -9326.2528 -7610.0883 295.6816 397.7204 407.7973 30832.7712 -245.4859 -188.6499
TCL: Running FEP window  20: Lambda1 0.9500000000000003 Lambda2 1.0    [dLambda 0.04999999999999971]
TCL: Setting parameter firsttimestep to 0
TCL: Setting parameter alchLambda to 0.9500000000000003
Info: NONBONDED TABLE R-SQUARED SPACING: 0.0625
Info: NONBONDED TABLE SIZE: 705 POINTS
TCL: Setting parameter alchLambda2 to 1.0
Info: NONBONDED TABLE R-SQUARED SPACING: 0.0625
Info: NONBONDED TABLE SIZE: 705 POINTS
TCL: Running for 1500000 steps
ETITLE: TS BOND ANGLE DIHED IMPRP ELECT VDW BOUNDARY MISC KINETIC TOTAL TEMP POTENTIAL TOTALAVG TEMPAVG PRESSURE GPRESSURE VOLUME PRESSAVG GPRESSAVG
ENERGY: 0 0.2601 2.4665 0.0000 0.0000 -10842.6815 1513.4259 0.0000 0.0000 1725.6716 -7600.8575 291.8002 -9326.5290 -7600.8575 291.8002 354.0490 414.9850 30832.7712 354.0490 414.9850
ENERGY: 300000 0.0795 0.6142 0.0000 0.0000 -10887.3038 1518.3038 0.0000 0.0000 1750.6878 -7617.6185 296.0303 -9368.3063 -7576.9091 298.9211 587.9059 619.5216 30396.7598 302.9403 346.6689
ENERGY: 600000 0.0251 1.9887 0.0000 0.0000 -10881.1331 1494.7042 0.0000 0.0000 1772.9572 -7611.4578 299.7959 -9384.4150 -7601.9756 298.6734 380.8999 423.1140 30702.7764 198.0633 239.1996
ENERGY: 900000 0.0663 0.5129 0.0000 0.0000 -10814.7887 1419.7944 0.0000 0.0000 1768.5760 -7625.8390 299.0551 -9394.4151 -7608.1661 298.8754 -327.6205 -229.9623 30514.4003 227.5773 276.1373
ENERGY: 1200000 0.7824 2.1513 0.0000 0.0000 -10709.7400 1397.4922 0.0000 0.0000 1770.1463 -7539.1677 299.3206 -9309.3141 -7596.5321 298.9641 -287.0463 -247.8245 30825.0733 213.3748 266.7375
ENERGY: 1500000 0.1724 1.0560 0.0000 0.0000 -10736.5081 1388.5162 0.0000 0.0000 1798.7950 -7547.9685 304.1649 -9346.7635 -7596.8633 298.7011 -536.2517 -450.0654 30800.1996 99.2793 155.8351
TCL: Exiting due to exit command.
