Info: SIMULATION PARAMETERS:
Info: TIMESTEP               2
Info: NUMBER OF STEPS        0
Info: STEPS PER CYCLE        10
Info: PERIODIC CELL BASIS 1  36.592 0 0
Info: PERIODIC CELL BASIS 2  0 34.1 0
Info: PERIODIC CELL BASIS 3  0 0 35.723
Info: PERIODIC CELL CENTER   0 0 0
Info: WRAPPING WATERS AROUND PERIODIC BOUNDARIES ON OUTPUT.
Info: WRAPPING ALL CLUSTERS AROUND PERIODIC BOUNDARIES ON OUTPUT.
Info: FIRST LDB TIMESTEP     50
Info: LAST LDB TIMESTEP     -1
Info: HOM BACKGROUND SCALING 1
Info: PME BACKGROUND SCALING 1
Info: MIN ATOMS PER PATCH    40
Info: EMPTY PATCH LOAD       40 ATOMS
Info: INITIAL TEMPERATURE    300
Info: CENTER OF MASS MOVING INITIALLY? NO
Info: DIELECTRIC             1
Info: EXCLUDE                SCALED ONE-FOUR
Info: 1-4 ELECTROSTATICS SCALED BY 0.833333
Info: MODIFIED 1-4 VDW PARAMETERS WILL BE USED
Info: DCD FILENAME           mobley_3105103_equil.dcd
Info: DCD FREQUENCY          100000
Info: DCD FIRST STEP         100000
Info: DCD FILE WILL CONTAIN UNIT CELL DATA
Info: XST FILENAME           mobley_3105103_equil.xst
Info: XST FREQUENCY          100000
Info: NO VELOCITY DCD OUTPUT
Info: NO FORCE DCD OUTPUT
Info: OUTPUT FILENAME        mobley_3105103_equil
Info: BINARY OUTPUT FILES WILL BE USED
Info: RESTART FILENAME       mobley_3105103_equil.restart
Info: RESTART FREQUENCY      100000
Info: BINARY RESTART FILES WILL BE USED
Info: CUTOFF                 9
Info: PAIRLIST DISTANCE      11
Info: PAIRLIST SHRINK RATE   0.01
Info: PAIRLIST GROW RATE     0.01
Info: PAIRLIST TRIGGER       0.3
Info: PAIRLISTS PER CYCLE    2
Info: PAIRLISTS ENABLED
Info: MARGIN                 8
Info: HYDROGEN GROUP CUTOFF  2.5
Info: PATCH DIMENSION        21.5
Info: ENERGY OUTPUT STEPS    100000
Info: ENERGY EVALUATION STEPS    100000
Info: OUTPUT ENERGY PRECISION 4
Info: CROSSTERM ENERGY INCLUDED IN DIHEDRAL
Info: TIMING OUTPUT STEPS    1000000
Info: PRESSURE OUTPUT STEPS  100000
Info: LANGEVIN DYNAMICS ACTIVE
Info: LANGEVIN TEMPERATURE   30
Info: LANGEVIN USING BBK INTEGRATOR
Info: LANGEVIN DAMPING COEFFICIENT IS 1 INVERSE PS
Info: LANGEVIN DYNAMICS APPLIED TO HYDROGENS
Info: LANGEVIN PISTON PRESSURE CONTROL ACTIVE
Info:        TARGET PRESSURE IS 1.01325 BAR
Info:     OSCILLATION PERIOD IS 50 FS
Info:             DECAY TIME IS 25 FS
Info:     PISTON TEMPERATURE IS 300 K
Info:       PRESSURE CONTROL IS GROUP-BASED
Info:    INITIAL STRAIN RATE IS 0 0 0
Info:       CELL FLUCTUATION IS ISOTROPIC
Info: PARTICLE MESH EWALD (PME) ACTIVE
Info: PME TOLERANCE               1e-06
Info: PME EWALD COEFFICIENT       0.348832
Info: PME INTERPOLATION ORDER     4
Info: PME GRID DIMENSIONS         40 36 36
Info: PME MAXIMUM GRID SPACING    1
Info: FULL ELECTROSTATIC EVALUATION FREQUENCY      2
Info: USING VERLET I (r-RESPA) MTS SCHEME.
Info: C1 SPLITTING OF LONG RANGE ELECTROSTATICS
Info: PLACING ATOMS IN PATCHES BY HYDROGEN GROUPS
Info: RIGID BONDS TO HYDROGEN : ALL
Info:         ERROR TOLERANCE : 1e-08
Info:          MAX ITERATIONS : 100
Info: RIGID WATER USING SETTLE ALGORITHM
Info: RANDOM NUMBER SEED     1743222819
Info: USE HYDROGEN BONDS?    NO
Info: Using AMBER format force field!
Info: AMBER PARM FILE        mobley_3105103.prmtop
Info: COORDINATE PDB         mobley_3105103.pdb
Info: Exclusions will be read from PARM file!
Info: SCNB (VDW SCALING)     2
Info: USING ARITHMETIC MEAN TO COMBINE L-J SIGMA PARAMETERS
Info: BINARY COORDINATES     mobley_3105103_min.coor
Info: SUMMARY OF PARAMETERS:
Info: 13 BONDS
Info: 20 ANGLES
Info:   20 HARMONIC
Info:   0 COSINE-BASED
Info: 14 DIHEDRAL
Info: 0 IMPROPER
Info: 0 CROSSTERM
Info: 0 VDW
Info: 45 VDW_PAIRS
Info: 0 NBTHOLE_PAIRS
Info: STRUCTURE SUMMARY:
Info: 2943 ATOMS
Info: 2943 BONDS
Info: 48 ANGLES
Info: 88 DIHEDRALS
Info: 0 IMPROPERS
Info: 0 CROSSTERMS
Info: 3051 EXCLUSIONS
Info: 2929 RIGID BONDS
Info: 5900 DEGREES OF FREEDOM
Info: 986 HYDROGEN GROUPS
Info: 4 ATOMS IN LARGEST HYDROGEN GROUP
Info: 986 MIGRATION GROUPS
Info: 4 ATOMS IN LARGEST MIGRATION GROUP
Info: TOTAL MASS = 17728.2 amu
Info: TOTAL CHARGE = 2.6077e-08 e
Info: MASS DENSITY = 0.660444 g/cm^3
Info: ATOM DENSITY = 0.066024 atoms/A^3
Info: ADDED 0 IMPLICIT EXCLUSIONS
Info: NONBONDED TABLE R-SQUARED SPACING: 0.0625
Info: NONBONDED TABLE SIZE: 705 POINTS
Info: REMOVING COM VELOCITY -0.18611 -0.154974 0.202408
TCL: Running for 100000 steps
ETITLE: TS BOND ANGLE DIHED IMPRP ELECT VDW BOUNDARY MISC KINETIC TOTAL TEMP POTENTIAL TOTAL3 TEMPAVG PRESSURE GPRESSURE VOLUME PRESSAVG GPRESSAVG
ENERGY: 0 2.4726 9.0842 12.0001 0.0000 -13701.3698 2408.2100 0.0000 0.0000 1731.3947 -9538.2082 295.3483 -11269.6029 -9537.8594 295.3483 432.0645 466.7519 44574.7021 432.0645 466.7519
ENERGY: 100000 3.2147 11.0075 11.9416 0.0000 -14234.8220 2468.8602 0.0000 0.0000 172.8710 -11566.9268 29.4890 -11739.7979 -11566.2231 30.8608 -212.1743 -154.4440 29994.1150 2.9727 2.9475
TCL: Running 100000 steps at 60 kelvin.
TCL: Setting parameter langevinTemp to 60
TCL: Running for 100000 steps
ETITLE: TS BOND ANGLE DIHED IMPRP ELECT VDW BOUNDARY MISC KINETIC TOTAL TEMP POTENTIAL TOTAL3 TEMPAVG PRESSURE GPRESSURE VOLUME PRESSAVG GPRESSAVG
ENERGY: 100000 3.2147 11.0075 11.9416 0.0000 -14234.8220 2468.8602 0.0000 0.0000 172.7872 -11567.0107 29.4747 -11739.7979 -11566.6752 29.4747 -208.0700 -154.3764 29994.1150 -208.0700 -154.3764
ENERGY: 200000 2.4310 12.0363 12.5717 0.0000 -14237.4454 2550.1706 0.0000 0.0000 343.5385 -11316.6973 58.6022 -11660.2358 -11315.7387 59.9071 868.6585 912.9498 29739.3286 3.9254 3.9138
TCL: Running 100000 steps at 90 kelvin.
TCL: Setting parameter langevinTemp to 90
TCL: Running for 100000 steps
ETITLE: TS BOND ANGLE DIHED IMPRP ELECT VDW BOUNDARY MISC KINETIC TOTAL TEMP POTENTIAL TOTAL3 TEMPAVG PRESSURE GPRESSURE VOLUME PRESSAVG GPRESSAVG
ENERGY: 200000 2.4310 12.0363 12.5717 0.0000 -14237.4454 2550.1706 0.0000 0.0000 343.3705 -11316.8653 58.5735 -11660.2358 -11316.1530 58.5735 864.2221 912.6636 29739.3286 864.2221 912.6636
ENERGY: 300000 4.3682 11.4185 13.1317 0.0000 -14013.1791 2437.4027 0.0000 0.0000 519.4183 -11027.4397 88.6045 -11546.8580 -11026.5149 89.9903 426.2292 477.8863 29663.0075 3.9018 3.9422
TCL: Running 100000 steps at 120 kelvin.
TCL: Setting parameter langevinTemp to 120
TCL: Running for 100000 steps
ETITLE: TS BOND ANGLE DIHED IMPRP ELECT VDW BOUNDARY MISC KINETIC TOTAL TEMP POTENTIAL TOTAL3 TEMPAVG PRESSURE GPRESSURE VOLUME PRESSAVG GPRESSAVG
ENERGY: 300000 4.3682 11.4185 13.1317 0.0000 -14013.1791 2437.4027 0.0000 0.0000 519.1461 -11027.7119 88.5580 -11546.8580 -11026.8744 88.5580 430.1550 477.9090 29663.0075 430.1550 477.9090
ENERGY: 400000 3.2762 13.9108 13.9722 0.0000 -13864.0693 2314.3792 0.0000 0.0000 710.0396 -10808.4913 121.1214 -11518.5308 -10805.4135 119.8483 -155.9832 -87.1977 28984.6034 5.2401 5.0050
TCL: Running 100000 steps at 150 kelvin.
TCL: Setting parameter langevinTemp to 150
TCL: Running for 100000 steps
ETITLE: TS BOND ANGLE DIHED IMPRP ELECT VDW BOUNDARY MISC KINETIC TOTAL TEMP POTENTIAL TOTAL3 TEMPAVG PRESSURE GPRESSURE VOLUME PRESSAVG GPRESSAVG
ENERGY: 400000 3.2762 13.9108 13.9722 0.0000 -13864.0693 2314.3792 0.0000 0.0000 709.6906 -10808.8402 121.0619 -11518.5308 -10807.4706 121.0619 -144.0712 -86.8828 28984.6034 -144.0712 -86.8828
ENERGY: 500000 5.7828 11.5541 18.1446 0.0000 -13812.0583 2414.2835 0.0000 0.0000 886.1711 -10476.1222 151.1666 -11362.2933 -10474.8298 149.8338 1180.5130 1244.2156 28990.5072 3.2606 3.2580
TCL: Running 100000 steps at 180 kelvin.
TCL: Setting parameter langevinTemp to 180
TCL: Running for 100000 steps
ETITLE: TS BOND ANGLE DIHED IMPRP ELECT VDW BOUNDARY MISC KINETIC TOTAL TEMP POTENTIAL TOTAL3 TEMPAVG PRESSURE GPRESSURE VOLUME PRESSAVG GPRESSAVG
ENERGY: 500000 5.7828 11.5541 18.1446 0.0000 -13812.0583 2414.2835 0.0000 0.0000 885.7239 -10476.5693 151.0904 -11362.2933 -10474.8962 151.0904 1189.7388 1243.8307 28990.5072 1189.7388 1243.8307
ENERGY: 600000 5.9967 20.2430 13.0082 0.0000 -13205.4707 2100.0740 0.0000 0.0000 1075.7743 -9990.3745 183.5099 -11066.1488 -9987.5463 180.0930 -137.4884 -111.1360 28822.7502 3.3694 3.4154
TCL: Running 100000 steps at 210 kelvin.
TCL: Setting parameter langevinTemp to 210
TCL: Running for 100000 steps
ETITLE: TS BOND ANGLE DIHED IMPRP ELECT VDW BOUNDARY MISC KINETIC TOTAL TEMP POTENTIAL TOTAL3 TEMPAVG PRESSURE GPRESSURE VOLUME PRESSAVG GPRESSAVG
ENERGY: 600000 5.9967 20.2430 13.0082 0.0000 -13205.4707 2100.0740 0.0000 0.0000 1075.2529 -9990.8958 183.4210 -11066.1488 -9988.3044 183.4210 -170.7830 -111.2274 28822.7502 -170.7830 -111.2274
ENERGY: 700000 4.6932 17.8129 13.9988 0.0000 -12631.0053 2072.9510 0.0000 0.0000 1242.8967 -9278.6528 212.0183 -10521.5494 -9275.6003 209.9691 1759.0913 1805.6471 28584.1450 3.3017 3.4374
TCL: Running 100000 steps at 240 kelvin.
TCL: Setting parameter langevinTemp to 240
TCL: Running for 100000 steps
ETITLE: TS BOND ANGLE DIHED IMPRP ELECT VDW BOUNDARY MISC KINETIC TOTAL TEMP POTENTIAL TOTAL3 TEMPAVG PRESSURE GPRESSURE VOLUME PRESSAVG GPRESSAVG
ENERGY: 700000 4.6932 17.8129 13.9988 0.0000 -12631.0053 2072.9510 0.0000 0.0000 1242.2668 -9279.2826 211.9109 -10521.5494 -9277.4374 211.9109 1734.6531 1806.8927 28584.1450 1734.6531 1806.8927
ENERGY: 800000 5.6957 19.2941 17.0270 0.0000 -11792.2569 1618.1587 0.0000 0.0000 1415.3067 -8716.7748 241.4287 -10132.0815 -8713.1315 239.4365 -823.4140 -817.5640 29343.6003 3.5531 3.4320
TCL: Running 100000 steps at 270 kelvin.
TCL: Setting parameter langevinTemp to 270
TCL: Running for 100000 steps
ETITLE: TS BOND ANGLE DIHED IMPRP ELECT VDW BOUNDARY MISC KINETIC TOTAL TEMP POTENTIAL TOTAL3 TEMPAVG PRESSURE GPRESSURE VOLUME PRESSAVG GPRESSAVG
ENERGY: 800000 5.6957 19.2941 17.0270 0.0000 -11792.2569 1618.1587 0.0000 0.0000 1414.6096 -8717.4718 241.3098 -10132.0815 -8714.7384 241.3098 -891.0620 -818.6893 29343.6003 -891.0620 -818.6893
ENERGY: 900000 6.7812 15.7978 18.8136 0.0000 -11154.3281 1459.7507 0.0000 0.0000 1569.8372 -8083.3477 267.7892 -9653.1849 -8081.3364 270.2478 -1005.8130 -904.4917 30177.4671 4.1789 4.1747
TCL: Running 1000000 steps at 300 kelvin.
TCL: Setting parameter langevinTemp to 300
TCL: Running for 1000000 steps
ETITLE: TS BOND ANGLE DIHED IMPRP ELECT VDW BOUNDARY MISC KINETIC TOTAL TEMP POTENTIAL TOTAL3 TEMPAVG PRESSURE GPRESSURE VOLUME PRESSAVG GPRESSAVG
ENERGY: 900000 6.7812 15.7978 18.8136 0.0000 -11154.3281 1459.7507 0.0000 0.0000 1569.0779 -8084.1070 267.6596 -9653.1849 -8081.2958 267.6596 -993.4344 -906.8114 30177.4671 -993.4344 -906.8114
ENERGY: 1100000 6.9443 16.0223 14.5067 0.0000 -10868.7900 1519.4126 0.0000 0.0000 1756.0275 -7555.8765 299.5503 -9311.9041 -7550.7123 299.9258 767.7491 893.4473 30286.0917 2.9038 2.8952
ENERGY: 1300000 8.4974 16.0790 14.1588 0.0000 -10789.2316 1389.9771 0.0000 0.0000 1680.0284 -7680.4909 286.5860 -9360.5193 -7676.6681 300.7794 -258.4591 -157.4960 30228.6492 3.3562 3.3289
ENERGY: 1500000 7.3975 22.7421 17.8059 0.0000 -10711.1679 1499.8391 0.0000 0.0000 1799.0981 -7364.2853 306.8974 -9163.3834 -7361.5862 300.7243 991.5587 1044.3952 30134.3284 1.5057 1.3658
ENERGY: 1700000 9.1353 16.6764 13.7993 0.0000 -10693.2499 1365.6044 0.0000 0.0000 1819.8508 -7468.1837 310.4375 -9288.0345 -7464.8423 300.8105 -666.3555 -627.5659 30640.5897 1.9472 1.7792
ENERGY: 1900000 9.5889 22.6810 13.9629 0.0000 -10829.3512 1461.9721 0.0000 0.0000 1789.3333 -7531.8130 305.2317 -9321.1463 -7528.3669 299.9997 115.5804 249.3589 30198.3947 3.2964 3.1115
TCL: Exiting due to exit command.
