Info: SIMULATION PARAMETERS:
Info: TIMESTEP               2
Info: NUMBER OF STEPS        0
Info: STEPS PER CYCLE        10
Info: PERIODIC CELL BASIS 1  35.01 0 0
Info: PERIODIC CELL BASIS 2  0 36.451 0
Info: PERIODIC CELL BASIS 3  0 0 34.954
Info: PERIODIC CELL CENTER   0 0 0
Info: WRAPPING WATERS AROUND PERIODIC BOUNDARIES ON OUTPUT.
Info: WRAPPING ALL CLUSTERS AROUND PERIODIC BOUNDARIES ON OUTPUT.
Info: FIRST LDB TIMESTEP     50
Info: LAST LDB TIMESTEP     -1
Info: HOM BACKGROUND SCALING 1
Info: PME BACKGROUND SCALING 1
Info: MIN ATOMS PER PATCH    40
Info: EMPTY PATCH LOAD       40 ATOMS
Info: INITIAL TEMPERATURE    300
Info: CENTER OF MASS MOVING INITIALLY? NO
Info: DIELECTRIC             1
Info: EXCLUDE                SCALED ONE-FOUR
Info: 1-4 ELECTROSTATICS SCALED BY 0.833333
Info: MODIFIED 1-4 VDW PARAMETERS WILL BE USED
Info: DCD FILENAME           mobley_9139060_equil.dcd
Info: DCD FREQUENCY          100000
Info: DCD FIRST STEP         100000
Info: DCD FILE WILL CONTAIN UNIT CELL DATA
Info: XST FILENAME           mobley_9139060_equil.xst
Info: XST FREQUENCY          100000
Info: NO VELOCITY DCD OUTPUT
Info: NO FORCE DCD OUTPUT
Info: OUTPUT FILENAME        mobley_9139060_equil
Info: BINARY OUTPUT FILES WILL BE USED
Info: RESTART FILENAME       mobley_9139060_equil.restart
Info: RESTART FREQUENCY      100000
Info: BINARY RESTART FILES WILL BE USED
Info: CUTOFF                 9
Info: PAIRLIST DISTANCE      11
Info: PAIRLIST SHRINK RATE   0.01
Info: PAIRLIST GROW RATE     0.01
Info: PAIRLIST TRIGGER       0.3
Info: PAIRLISTS PER CYCLE    2
Info: PAIRLISTS ENABLED
Info: MARGIN                 8
Info: HYDROGEN GROUP CUTOFF  2.5
Info: PATCH DIMENSION        21.5
Info: ENERGY OUTPUT STEPS    100000
Info: ENERGY EVALUATION STEPS    100000
Info: OUTPUT ENERGY PRECISION 4
Info: CROSSTERM ENERGY INCLUDED IN DIHEDRAL
Info: TIMING OUTPUT STEPS    1000000
Info: PRESSURE OUTPUT STEPS  100000
Info: LANGEVIN DYNAMICS ACTIVE
Info: LANGEVIN TEMPERATURE   30
Info: LANGEVIN USING BBK INTEGRATOR
Info: LANGEVIN DAMPING COEFFICIENT IS 1 INVERSE PS
Info: LANGEVIN DYNAMICS APPLIED TO HYDROGENS
Info: LANGEVIN PISTON PRESSURE CONTROL ACTIVE
Info:        TARGET PRESSURE IS 1.01325 BAR
Info:     OSCILLATION PERIOD IS 50 FS
Info:             DECAY TIME IS 25 FS
Info:     PISTON TEMPERATURE IS 300 K
Info:       PRESSURE CONTROL IS GROUP-BASED
Info:    INITIAL STRAIN RATE IS 0 0 0
Info:       CELL FLUCTUATION IS ISOTROPIC
Info: PARTICLE MESH EWALD (PME) ACTIVE
Info: PME TOLERANCE               1e-06
Info: PME EWALD COEFFICIENT       0.348832
Info: PME INTERPOLATION ORDER     4
Info: PME GRID DIMENSIONS         36 40 36
Info: PME MAXIMUM GRID SPACING    1
Info: FULL ELECTROSTATIC EVALUATION FREQUENCY      2
Info: USING VERLET I (r-RESPA) MTS SCHEME.
Info: C1 SPLITTING OF LONG RANGE ELECTROSTATICS
Info: PLACING ATOMS IN PATCHES BY HYDROGEN GROUPS
Info: RIGID BONDS TO HYDROGEN : ALL
Info:         ERROR TOLERANCE : 1e-08
Info:          MAX ITERATIONS : 100
Info: RIGID WATER USING SETTLE ALGORITHM
Info: RANDOM NUMBER SEED     1743222084
Info: USE HYDROGEN BONDS?    NO
Info: Using AMBER format force field!
Info: AMBER PARM FILE        mobley_9139060.prmtop
Info: COORDINATE PDB         mobley_9139060.pdb
Info: Exclusions will be read from PARM file!
Info: SCNB (VDW SCALING)     2
Info: USING ARITHMETIC MEAN TO COMBINE L-J SIGMA PARAMETERS
Info: BINARY COORDINATES     mobley_9139060_min.coor
Info: SUMMARY OF PARAMETERS:
Info: 4 BONDS
Info: 3 ANGLES
Info:   3 HARMONIC
Info:   0 COSINE-BASED
Info: 5 DIHEDRAL
Info: 0 IMPROPER
Info: 0 CROSSTERM
Info: 0 VDW
Info: 10 VDW_PAIRS
Info: 0 NBTHOLE_PAIRS
Info: STRUCTURE SUMMARY:
Info: 2934 ATOMS
Info: 2934 BONDS
Info: 48 ANGLES
Info: 92 DIHEDRALS
Info: 0 IMPROPERS
Info: 0 CROSSTERMS
Info: 3051 EXCLUSIONS
Info: 2926 RIGID BONDS
Info: 5876 DEGREES OF FREEDOM
Info: 978 HYDROGEN GROUPS
Info: 4 ATOMS IN LARGEST HYDROGEN GROUP
Info: 978 MIGRATION GROUPS
Info: 4 ATOMS IN LARGEST MIGRATION GROUP
Info: TOTAL MASS = 17587.7 amu
Info: TOTAL CHARGE = -0.000200011 e
Info: MASS DENSITY = 0.654743 g/cm^3
Info: ATOM DENSITY = 0.0657751 atoms/A^3
Info: ADDED 0 IMPLICIT EXCLUSIONS
Info: NONBONDED TABLE R-SQUARED SPACING: 0.0625
Info: NONBONDED TABLE SIZE: 705 POINTS
Info: REMOVING COM VELOCITY -0.0177001 0.126507 -0.123866
TCL: Running for 100000 steps
ETITLE: TS BOND ANGLE DIHED IMPRP ELECT VDW BOUNDARY MISC KINETIC TOTAL TEMP POTENTIAL TOTAL3 TEMPAVG PRESSURE GPRESSURE VOLUME PRESSAVG GPRESSAVG
ENERGY: 0 0.2290 0.5606 4.3351 0.0000 -13550.5402 2409.5880 0.0000 0.0000 1709.3954 -9426.4321 292.7866 -11135.8274 -9426.0935 292.7866 457.6656 487.2528 44606.5300 457.6656 487.2528
ENERGY: 100000 0.5886 1.5611 4.4526 0.0000 -14137.3105 2565.7122 0.0000 0.0000 173.5030 -11391.4929 29.7177 -11564.9959 -11391.0533 30.9732 929.5892 999.2546 29207.7970 5.3883 5.4246
TCL: Running 100000 steps at 60 kelvin.
TCL: Setting parameter langevinTemp to 60
TCL: Running for 100000 steps
ETITLE: TS BOND ANGLE DIHED IMPRP ELECT VDW BOUNDARY MISC KINETIC TOTAL TEMP POTENTIAL TOTAL3 TEMPAVG PRESSURE GPRESSURE VOLUME PRESSAVG GPRESSAVG
ENERGY: 100000 0.5886 1.5611 4.4526 0.0000 -14137.3105 2565.7122 0.0000 0.0000 173.4171 -11391.5788 29.7030 -11564.9959 -11391.2048 29.7030 935.6764 999.2426 29207.7970 935.6764 999.2426
ENERGY: 200000 0.6924 2.3480 4.6746 0.0000 -13942.9263 2442.2918 0.0000 0.0000 342.4085 -11150.5110 58.6480 -11492.9195 -11149.8057 59.9296 313.0913 376.7967 29091.7377 3.0285 3.0719
TCL: Running 100000 steps at 90 kelvin.
TCL: Setting parameter langevinTemp to 90
TCL: Running for 100000 steps
ETITLE: TS BOND ANGLE DIHED IMPRP ELECT VDW BOUNDARY MISC KINETIC TOTAL TEMP POTENTIAL TOTAL3 TEMPAVG PRESSURE GPRESSURE VOLUME PRESSAVG GPRESSAVG
ENERGY: 200000 0.6924 2.3480 4.6746 0.0000 -13942.9263 2442.2918 0.0000 0.0000 342.2377 -11150.6818 58.6187 -11492.9195 -11149.9894 58.6187 314.1896 376.5745 29091.7377 314.1896 376.5745
ENERGY: 300000 1.1142 3.7713 4.4077 0.0000 -13653.6553 2234.5757 0.0000 0.0000 514.1537 -10895.6327 88.0646 -11409.7863 -10894.2665 90.1578 -1139.4583 -1074.9489 29196.7181 3.4961 3.4721
TCL: Running 100000 steps at 120 kelvin.
TCL: Setting parameter langevinTemp to 120
TCL: Running for 100000 steps
ETITLE: TS BOND ANGLE DIHED IMPRP ELECT VDW BOUNDARY MISC KINETIC TOTAL TEMP POTENTIAL TOTAL3 TEMPAVG PRESSURE GPRESSURE VOLUME PRESSAVG GPRESSAVG
ENERGY: 300000 1.1142 3.7713 4.4077 0.0000 -13653.6553 2234.5757 0.0000 0.0000 513.9019 -10895.8845 88.0215 -11409.7864 -10894.6401 88.0215 -1129.6840 -1075.4219 29196.7181 -1129.6840 -1075.4219
ENERGY: 400000 0.3355 4.4668 4.6246 0.0000 -13563.6143 2233.5964 0.0000 0.0000 697.1158 -10623.4751 119.4025 -11320.5909 -10621.3223 119.7094 -680.8953 -610.6795 28868.1662 4.1617 4.2025
TCL: Running 100000 steps at 150 kelvin.
TCL: Setting parameter langevinTemp to 150
TCL: Running for 100000 steps
ETITLE: TS BOND ANGLE DIHED IMPRP ELECT VDW BOUNDARY MISC KINETIC TOTAL TEMP POTENTIAL TOTAL3 TEMPAVG PRESSURE GPRESSURE VOLUME PRESSAVG GPRESSAVG
ENERGY: 400000 0.3355 4.4668 4.6246 0.0000 -13563.6143 2233.5964 0.0000 0.0000 696.7663 -10623.8247 119.3427 -11320.5909 -10622.1358 119.3427 -675.7297 -610.7607 28868.1662 -675.7297 -610.7607
ENERGY: 500000 2.2941 6.1916 4.8553 0.0000 -13306.5263 2138.7497 0.0000 0.0000 887.1533 -10267.2823 151.9523 -11154.4356 -10266.2240 149.7505 -940.0220 -919.2800 28994.6161 4.6526 4.7840
TCL: Running 100000 steps at 180 kelvin.
TCL: Setting parameter langevinTemp to 180
TCL: Running for 100000 steps
ETITLE: TS BOND ANGLE DIHED IMPRP ELECT VDW BOUNDARY MISC KINETIC TOTAL TEMP POTENTIAL TOTAL3 TEMPAVG PRESSURE GPRESSURE VOLUME PRESSAVG GPRESSAVG
ENERGY: 500000 2.2941 6.1916 4.8553 0.0000 -13306.5263 2138.7497 0.0000 0.0000 886.7128 -10267.7228 151.8769 -11154.4356 -10265.6066 151.8769 -980.8453 -920.4797 28994.6161 -980.8453 -920.4797
ENERGY: 600000 1.5046 7.4981 4.6670 0.0000 -13009.3564 2117.2995 0.0000 0.0000 1074.9365 -9803.4506 184.1159 -10878.3871 -9801.7925 179.9099 167.4114 241.6664 28634.7688 2.6078 2.6524
TCL: Running 100000 steps at 210 kelvin.
TCL: Setting parameter langevinTemp to 210
TCL: Running for 100000 steps
ETITLE: TS BOND ANGLE DIHED IMPRP ELECT VDW BOUNDARY MISC KINETIC TOTAL TEMP POTENTIAL TOTAL3 TEMPAVG PRESSURE GPRESSURE VOLUME PRESSAVG GPRESSAVG
ENERGY: 600000 1.5046 7.4981 4.6670 0.0000 -13009.3564 2117.2995 0.0000 0.0000 1074.4087 -9803.9784 184.0256 -10878.3871 -9801.5725 184.0256 182.5611 239.8509 28634.7688 182.5611 239.8509
ENERGY: 700000 1.5282 7.2776 4.9425 0.0000 -12172.0774 1785.6892 0.0000 0.0000 1234.7990 -9137.8409 211.4973 -10372.6399 -9134.6695 210.4013 -640.9777 -524.2869 28595.0702 2.4549 2.7895
TCL: Running 100000 steps at 240 kelvin.
TCL: Setting parameter langevinTemp to 240
TCL: Running for 100000 steps
ETITLE: TS BOND ANGLE DIHED IMPRP ELECT VDW BOUNDARY MISC KINETIC TOTAL TEMP POTENTIAL TOTAL3 TEMPAVG PRESSURE GPRESSURE VOLUME PRESSAVG GPRESSAVG
ENERGY: 700000 1.5282 7.2776 4.9425 0.0000 -12172.0774 1785.6892 0.0000 0.0000 1234.1943 -9138.4455 211.3938 -10372.6399 -9136.6490 211.3938 -616.0401 -525.5143 28595.0702 -616.0401 -525.5143
ENERGY: 800000 2.5972 15.0723 6.2615 0.0000 -11523.0585 1558.1624 0.0000 0.0000 1429.9303 -8511.0349 244.9196 -9940.9652 -8509.4591 240.5010 -1118.7952 -1045.0246 29108.9649 3.3091 3.3657
TCL: Running 100000 steps at 270 kelvin.
TCL: Setting parameter langevinTemp to 270
TCL: Running for 100000 steps
ETITLE: TS BOND ANGLE DIHED IMPRP ELECT VDW BOUNDARY MISC KINETIC TOTAL TEMP POTENTIAL TOTAL3 TEMPAVG PRESSURE GPRESSURE VOLUME PRESSAVG GPRESSAVG
ENERGY: 800000 2.5972 15.0723 6.2615 0.0000 -11523.0585 1558.1624 0.0000 0.0000 1429.2864 -8511.6788 244.8093 -9940.9652 -8508.7036 244.8093 -1134.7602 -1046.4014 29108.9649 -1134.7602 -1046.4014
ENERGY: 900000 2.2316 12.2576 5.0942 0.0000 -11189.7707 1596.4313 0.0000 0.0000 1599.2332 -7974.5228 273.9179 -9573.7560 -7971.9859 270.1911 15.2944 71.9196 29776.8625 2.4454 2.4782
TCL: Running 1000000 steps at 300 kelvin.
TCL: Setting parameter langevinTemp to 300
TCL: Running for 1000000 steps
ETITLE: TS BOND ANGLE DIHED IMPRP ELECT VDW BOUNDARY MISC KINETIC TOTAL TEMP POTENTIAL TOTAL3 TEMPAVG PRESSURE GPRESSURE VOLUME PRESSAVG GPRESSAVG
ENERGY: 900000 2.2316 12.2576 5.0942 0.0000 -11189.7707 1596.4313 0.0000 0.0000 1598.4666 -7975.2894 273.7866 -9573.7560 -7972.8850 273.7866 -10.5987 72.3670 29776.8625 -10.5987 72.3670
ENERGY: 1100000 1.7148 15.3828 4.8776 0.0000 -10544.4580 1412.0074 0.0000 0.0000 1785.6472 -7324.8283 305.8470 -9110.4755 -7318.8164 299.2907 -200.3375 -123.9645 30733.6914 2.7922 2.6597
ENERGY: 1300000 1.6099 17.4611 6.2559 0.0000 -10645.9113 1446.3608 0.0000 0.0000 1726.9689 -7447.2547 295.7966 -9174.2236 -7442.0538 300.6122 308.7227 372.0107 29769.0325 2.7631 2.8444
ENERGY: 1500000 3.5364 10.8332 4.9331 0.0000 -10534.3824 1396.2573 0.0000 0.0000 1702.3788 -7416.4437 291.5847 -9118.8224 -7412.9747 300.4439 -196.0104 -156.0850 30205.4854 2.1605 2.2105
ENERGY: 1700000 2.3399 9.1645 6.1783 0.0000 -10442.5411 1324.9393 0.0000 0.0000 1716.9641 -7382.9550 294.0829 -9099.9191 -7378.1049 300.3638 -915.2076 -823.9346 30581.6866 4.2229 3.9041
ENERGY: 1900000 4.8018 14.9756 5.9626 0.0000 -10562.2147 1393.7888 0.0000 0.0000 1717.9163 -7424.7696 294.2460 -9142.6860 -7421.8075 300.2005 -362.1762 -362.3680 30457.4876 2.6809 2.4324
TCL: Exiting due to exit command.
