Info: SIMULATION PARAMETERS:
Info: TIMESTEP               2
Info: NUMBER OF STEPS        0
Info: STEPS PER CYCLE        10
Info: PERIODIC CELL BASIS 1  36.005 0 0
Info: PERIODIC CELL BASIS 2  0 34.26 0
Info: PERIODIC CELL BASIS 3  0 0 36.199
Info: PERIODIC CELL CENTER   0 0 0
Info: WRAPPING WATERS AROUND PERIODIC BOUNDARIES ON OUTPUT.
Info: WRAPPING ALL CLUSTERS AROUND PERIODIC BOUNDARIES ON OUTPUT.
Info: FIRST LDB TIMESTEP     50
Info: LAST LDB TIMESTEP     -1
Info: HOM BACKGROUND SCALING 1
Info: PME BACKGROUND SCALING 1
Info: MIN ATOMS PER PATCH    40
Info: EMPTY PATCH LOAD       40 ATOMS
Info: INITIAL TEMPERATURE    300
Info: CENTER OF MASS MOVING INITIALLY? NO
Info: DIELECTRIC             1
Info: EXCLUDE                SCALED ONE-FOUR
Info: 1-4 ELECTROSTATICS SCALED BY 0.833333
Info: MODIFIED 1-4 VDW PARAMETERS WILL BE USED
Info: DCD FILENAME           mobley_7758918_equil.dcd
Info: DCD FREQUENCY          100000
Info: DCD FIRST STEP         100000
Info: DCD FILE WILL CONTAIN UNIT CELL DATA
Info: XST FILENAME           mobley_7758918_equil.xst
Info: XST FREQUENCY          100000
Info: NO VELOCITY DCD OUTPUT
Info: NO FORCE DCD OUTPUT
Info: OUTPUT FILENAME        mobley_7758918_equil
Info: BINARY OUTPUT FILES WILL BE USED
Info: RESTART FILENAME       mobley_7758918_equil.restart
Info: RESTART FREQUENCY      100000
Info: BINARY RESTART FILES WILL BE USED
Info: CUTOFF                 9
Info: PAIRLIST DISTANCE      11
Info: PAIRLIST SHRINK RATE   0.01
Info: PAIRLIST GROW RATE     0.01
Info: PAIRLIST TRIGGER       0.3
Info: PAIRLISTS PER CYCLE    2
Info: PAIRLISTS ENABLED
Info: MARGIN                 8
Info: HYDROGEN GROUP CUTOFF  2.5
Info: PATCH DIMENSION        21.5
Info: ENERGY OUTPUT STEPS    100000
Info: ENERGY EVALUATION STEPS    100000
Info: OUTPUT ENERGY PRECISION 4
Info: CROSSTERM ENERGY INCLUDED IN DIHEDRAL
Info: TIMING OUTPUT STEPS    1000000
Info: PRESSURE OUTPUT STEPS  100000
Info: LANGEVIN DYNAMICS ACTIVE
Info: LANGEVIN TEMPERATURE   30
Info: LANGEVIN USING BBK INTEGRATOR
Info: LANGEVIN DAMPING COEFFICIENT IS 1 INVERSE PS
Info: LANGEVIN DYNAMICS APPLIED TO HYDROGENS
Info: LANGEVIN PISTON PRESSURE CONTROL ACTIVE
Info:        TARGET PRESSURE IS 1.01325 BAR
Info:     OSCILLATION PERIOD IS 50 FS
Info:             DECAY TIME IS 25 FS
Info:     PISTON TEMPERATURE IS 300 K
Info:       PRESSURE CONTROL IS GROUP-BASED
Info:    INITIAL STRAIN RATE IS 0 0 0
Info:       CELL FLUCTUATION IS ISOTROPIC
Info: PARTICLE MESH EWALD (PME) ACTIVE
Info: PME TOLERANCE               1e-06
Info: PME EWALD COEFFICIENT       0.348832
Info: PME INTERPOLATION ORDER     4
Info: PME GRID DIMENSIONS         40 36 40
Info: PME MAXIMUM GRID SPACING    1
Info: FULL ELECTROSTATIC EVALUATION FREQUENCY      2
Info: USING VERLET I (r-RESPA) MTS SCHEME.
Info: C1 SPLITTING OF LONG RANGE ELECTROSTATICS
Info: PLACING ATOMS IN PATCHES BY HYDROGEN GROUPS
Info: RIGID BONDS TO HYDROGEN : ALL
Info:         ERROR TOLERANCE : 1e-08
Info:          MAX ITERATIONS : 100
Info: RIGID WATER USING SETTLE ALGORITHM
Info: RANDOM NUMBER SEED     1743225341
Info: USE HYDROGEN BONDS?    NO
Info: Using AMBER format force field!
Info: AMBER PARM FILE        mobley_7758918.prmtop
Info: COORDINATE PDB         mobley_7758918.pdb
Info: Exclusions will be read from PARM file!
Info: SCNB (VDW SCALING)     2
Info: USING ARITHMETIC MEAN TO COMBINE L-J SIGMA PARAMETERS
Info: BINARY COORDINATES     mobley_7758918_min.coor
Info: SUMMARY OF PARAMETERS:
Info: 8 BONDS
Info: 8 ANGLES
Info:   8 HARMONIC
Info:   0 COSINE-BASED
Info: 9 DIHEDRAL
Info: 0 IMPROPER
Info: 0 CROSSTERM
Info: 0 VDW
Info: 28 VDW_PAIRS
Info: 0 NBTHOLE_PAIRS
Info: STRUCTURE SUMMARY:
Info: 2969 ATOMS
Info: 2968 BONDS
Info: 16 ANGLES
Info: 23 DIHEDRALS
Info: 0 IMPROPERS
Info: 0 CROSSTERMS
Info: 3001 EXCLUSIONS
Info: 2964 RIGID BONDS
Info: 5943 DEGREES OF FREEDOM
Info: 991 HYDROGEN GROUPS
Info: 4 ATOMS IN LARGEST HYDROGEN GROUP
Info: 991 MIGRATION GROUPS
Info: 4 ATOMS IN LARGEST MIGRATION GROUP
Info: TOTAL MASS = 17837.9 amu
Info: TOTAL CHARGE = 4.09782e-08 e
Info: MASS DENSITY = 0.663369 g/cm^3
Info: ATOM DENSITY = 0.0664911 atoms/A^3
Info: ADDED 0 IMPLICIT EXCLUSIONS
Info: NONBONDED TABLE R-SQUARED SPACING: 0.0625
Info: NONBONDED TABLE SIZE: 705 POINTS
Info: REMOVING COM VELOCITY 0.2169 0.0881219 -0.000505611
TCL: Running for 100000 steps
ETITLE: TS BOND ANGLE DIHED IMPRP ELECT VDW BOUNDARY MISC KINETIC TOTAL TEMP POTENTIAL TOTAL3 TEMPAVG PRESSURE GPRESSURE VOLUME PRESSAVG GPRESSAVG
ENERGY: 0 0.0429 0.3135 0.9101 0.0000 -13743.7426 2406.2408 0.0000 0.0000 1796.7419 -9539.4933 304.2779 -11336.2353 -9539.1481 304.2779 450.5857 485.4612 44652.5995 450.5857 485.4612
ENERGY: 100000 0.0508 0.7559 1.1427 0.0000 -14419.1783 2566.4533 0.0000 0.0000 180.5539 -11670.2217 30.5768 -11850.7756 -11669.5425 30.9469 678.0748 739.2862 28757.6407 2.6825 2.6486
TCL: Running 100000 steps at 60 kelvin.
TCL: Setting parameter langevinTemp to 60
TCL: Running for 100000 steps
ETITLE: TS BOND ANGLE DIHED IMPRP ELECT VDW BOUNDARY MISC KINETIC TOTAL TEMP POTENTIAL TOTAL3 TEMPAVG PRESSURE GPRESSURE VOLUME PRESSAVG GPRESSAVG
ENERGY: 100000 0.0508 0.7559 1.1427 0.0000 -14419.1783 2566.4533 0.0000 0.0000 180.4659 -11670.3097 30.5619 -11850.7756 -11669.9212 30.5619 665.5714 739.5750 28757.6407 665.5714 739.5750
ENERGY: 200000 0.5028 0.5557 0.7774 0.0000 -14176.9243 2356.5224 0.0000 0.0000 350.0469 -11468.5191 59.2804 -11818.5660 -11467.1134 60.0252 -983.4215 -925.8653 29004.9644 5.5021 5.4502
TCL: Running 100000 steps at 90 kelvin.
TCL: Setting parameter langevinTemp to 90
TCL: Running for 100000 steps
ETITLE: TS BOND ANGLE DIHED IMPRP ELECT VDW BOUNDARY MISC KINETIC TOTAL TEMP POTENTIAL TOTAL3 TEMPAVG PRESSURE GPRESSURE VOLUME PRESSAVG GPRESSAVG
ENERGY: 200000 0.5028 0.5557 0.7774 0.0000 -14176.9243 2356.5224 0.0000 0.0000 349.8651 -11468.7009 59.2496 -11818.5660 -11467.9357 59.2496 -981.9521 -925.5271 29004.9644 -981.9521 -925.5271
ENERGY: 300000 0.8169 2.1334 1.3955 0.0000 -14033.1684 2352.7673 0.0000 0.0000 522.7266 -11153.3287 88.5236 -11676.0553 -11152.0786 89.9166 -441.9634 -383.5760 29039.4076 6.2670 6.3137
TCL: Running 100000 steps at 120 kelvin.
TCL: Setting parameter langevinTemp to 120
TCL: Running for 100000 steps
ETITLE: TS BOND ANGLE DIHED IMPRP ELECT VDW BOUNDARY MISC KINETIC TOTAL TEMP POTENTIAL TOTAL3 TEMPAVG PRESSURE GPRESSURE VOLUME PRESSAVG GPRESSAVG
ENERGY: 300000 0.8169 2.1334 1.3955 0.0000 -14033.1684 2352.7673 0.0000 0.0000 522.4697 -11153.5855 88.4801 -11676.0553 -11152.7332 88.4801 -441.3468 -383.8482 29039.4076 -441.3468 -383.8482
ENERGY: 400000 1.7318 1.8599 1.1202 0.0000 -13805.3180 2256.7058 0.0000 0.0000 685.6756 -10858.2247 116.1190 -11543.9003 -10856.3275 119.8768 -626.2773 -584.2252 28965.9007 4.3911 4.3510
TCL: Running 100000 steps at 150 kelvin.
TCL: Setting parameter langevinTemp to 150
TCL: Running for 100000 steps
ETITLE: TS BOND ANGLE DIHED IMPRP ELECT VDW BOUNDARY MISC KINETIC TOTAL TEMP POTENTIAL TOTAL3 TEMPAVG PRESSURE GPRESSURE VOLUME PRESSAVG GPRESSAVG
ENERGY: 400000 1.7318 1.8599 1.1202 0.0000 -13805.3180 2256.7058 0.0000 0.0000 685.3337 -10858.5666 116.0611 -11543.9003 -10856.8263 116.0611 -644.5384 -584.7702 28965.9007 -644.5384 -584.7702
ENERGY: 500000 1.7931 3.0416 3.3218 0.0000 -13601.1948 2248.5753 0.0000 0.0000 896.2478 -10448.2151 151.7794 -11344.4629 -10446.2991 150.2314 154.4894 174.7514 28874.6556 5.1504 5.2495
TCL: Running 100000 steps at 180 kelvin.
TCL: Setting parameter langevinTemp to 180
TCL: Running for 100000 steps
ETITLE: TS BOND ANGLE DIHED IMPRP ELECT VDW BOUNDARY MISC KINETIC TOTAL TEMP POTENTIAL TOTAL3 TEMPAVG PRESSURE GPRESSURE VOLUME PRESSAVG GPRESSAVG
ENERGY: 500000 1.7931 3.0416 3.3218 0.0000 -13601.1948 2248.5753 0.0000 0.0000 895.8269 -10448.6360 151.7081 -11344.4629 -10447.1267 151.7081 118.7353 174.1160 28874.6556 118.7353 174.1160
ENERGY: 600000 0.3364 1.4596 1.7039 0.0000 -13272.4077 2199.5634 0.0000 0.0000 1054.2826 -10015.0618 178.5425 -11069.3444 -10013.3631 180.2091 817.5988 908.5920 28670.0355 2.0722 2.1503
TCL: Running 100000 steps at 210 kelvin.
TCL: Setting parameter langevinTemp to 210
TCL: Running for 100000 steps
ETITLE: TS BOND ANGLE DIHED IMPRP ELECT VDW BOUNDARY MISC KINETIC TOTAL TEMP POTENTIAL TOTAL3 TEMPAVG PRESSURE GPRESSURE VOLUME PRESSAVG GPRESSAVG
ENERGY: 600000 0.3364 1.4596 1.7039 0.0000 -13272.4077 2199.5634 0.0000 0.0000 1053.7363 -10015.6081 178.4500 -11069.3444 -10014.0090 178.4500 836.7336 907.0625 28670.0355 836.7336 907.0625
ENERGY: 700000 0.2340 4.1178 3.7772 0.0000 -12512.7441 1898.9928 0.0000 0.0000 1170.1653 -9435.4570 198.1672 -10605.6222 -9433.2661 209.9626 -19.1251 9.7035 28907.1923 1.3576 1.4826
TCL: Running 100000 steps at 240 kelvin.
TCL: Setting parameter langevinTemp to 240
TCL: Running for 100000 steps
ETITLE: TS BOND ANGLE DIHED IMPRP ELECT VDW BOUNDARY MISC KINETIC TOTAL TEMP POTENTIAL TOTAL3 TEMPAVG PRESSURE GPRESSURE VOLUME PRESSAVG GPRESSAVG
ENERGY: 700000 0.2340 4.1178 3.7772 0.0000 -12512.7441 1898.9928 0.0000 0.0000 1169.5713 -9436.0509 198.0667 -10605.6222 -9433.3652 198.0667 -65.4804 9.0893 28907.1923 -65.4804 9.0893
ENERGY: 800000 0.8152 3.5873 2.5662 0.0000 -11986.6139 1778.7640 0.0000 0.0000 1412.5005 -8788.3807 239.2067 -10200.8812 -8786.0190 239.5135 -194.2206 -118.2543 29897.9161 3.3682 3.4513
TCL: Running 100000 steps at 270 kelvin.
TCL: Setting parameter langevinTemp to 270
TCL: Running for 100000 steps
ETITLE: TS BOND ANGLE DIHED IMPRP ELECT VDW BOUNDARY MISC KINETIC TOTAL TEMP POTENTIAL TOTAL3 TEMPAVG PRESSURE GPRESSURE VOLUME PRESSAVG GPRESSAVG
ENERGY: 800000 0.8152 3.5873 2.5662 0.0000 -11986.6139 1778.7640 0.0000 0.0000 1411.8163 -8789.0649 239.0908 -10200.8812 -8786.5654 239.0908 -208.3399 -117.0773 29897.9161 -208.3399 -117.0773
ENERGY: 900000 0.6647 2.4661 2.3480 0.0000 -11460.6750 1674.2092 0.0000 0.0000 1618.9362 -8162.0508 274.1665 -9780.9870 -8161.0350 269.9452 875.9601 905.0848 29362.4759 3.4541 3.4143
TCL: Running 1000000 steps at 300 kelvin.
TCL: Setting parameter langevinTemp to 300
TCL: Running for 1000000 steps
ETITLE: TS BOND ANGLE DIHED IMPRP ELECT VDW BOUNDARY MISC KINETIC TOTAL TEMP POTENTIAL TOTAL3 TEMPAVG PRESSURE GPRESSURE VOLUME PRESSAVG GPRESSAVG
ENERGY: 900000 0.6647 2.4661 2.3480 0.0000 -11460.6750 1674.2092 0.0000 0.0000 1618.1598 -8162.8273 274.0350 -9780.9870 -8160.3101 274.0350 803.2130 904.6766 29362.4759 803.2130 904.6766
ENERGY: 1100000 0.9924 5.6128 2.8159 0.0000 -10769.6995 1475.2212 0.0000 0.0000 1751.8172 -7533.2399 296.6699 -9285.0572 -7528.7051 300.3937 427.4642 475.6791 30578.1432 4.3472 4.5190
ENERGY: 1300000 2.1439 5.0985 2.6695 0.0000 -10728.2251 1421.5058 0.0000 0.0000 1819.5818 -7477.2256 308.1458 -9296.8074 -7474.0101 300.4894 -64.6244 95.1543 30413.2250 2.8965 2.9414
ENERGY: 1500000 1.9977 5.7692 2.9229 0.0000 -10787.4247 1410.7856 0.0000 0.0000 1779.1838 -7586.7656 301.3044 -9365.9493 -7583.2529 300.1536 -200.3297 -116.1182 30429.2854 3.0531 3.2404
ENERGY: 1700000 1.3490 5.6006 1.9042 0.0000 -10648.0322 1334.4307 0.0000 0.0000 1822.6928 -7482.0549 308.6726 -9304.7477 -7479.0384 299.9491 -739.7681 -610.6204 30747.2075 2.7105 2.9357
ENERGY: 1900000 0.8528 4.2504 2.9565 0.0000 -10824.8965 1411.3198 0.0000 0.0000 1783.2091 -7622.3080 301.9861 -9405.5171 -7618.2473 300.1498 -379.3342 -259.2752 30554.1080 3.6848 3.5576
TCL: Exiting due to exit command.
