Info: SIMULATION PARAMETERS:
Info: TIMESTEP               2
Info: NUMBER OF STEPS        0
Info: STEPS PER CYCLE        10
Info: PERIODIC CELL BASIS 1  34.207 0 0
Info: PERIODIC CELL BASIS 2  0 35.779 0
Info: PERIODIC CELL BASIS 3  0 0 36.199
Info: PERIODIC CELL CENTER   0 0 0
Info: WRAPPING WATERS AROUND PERIODIC BOUNDARIES ON OUTPUT.
Info: WRAPPING ALL CLUSTERS AROUND PERIODIC BOUNDARIES ON OUTPUT.
Info: FIRST LDB TIMESTEP     50
Info: LAST LDB TIMESTEP     -1
Info: HOM BACKGROUND SCALING 1
Info: PME BACKGROUND SCALING 1
Info: MIN ATOMS PER PATCH    40
Info: EMPTY PATCH LOAD       40 ATOMS
Info: INITIAL TEMPERATURE    300
Info: CENTER OF MASS MOVING INITIALLY? NO
Info: DIELECTRIC             1
Info: EXCLUDE                SCALED ONE-FOUR
Info: 1-4 ELECTROSTATICS SCALED BY 0.833333
Info: MODIFIED 1-4 VDW PARAMETERS WILL BE USED
Info: DCD FILENAME           mobley_8467917_equil.dcd
Info: DCD FREQUENCY          100000
Info: DCD FIRST STEP         100000
Info: DCD FILE WILL CONTAIN UNIT CELL DATA
Info: XST FILENAME           mobley_8467917_equil.xst
Info: XST FREQUENCY          100000
Info: NO VELOCITY DCD OUTPUT
Info: NO FORCE DCD OUTPUT
Info: OUTPUT FILENAME        mobley_8467917_equil
Info: BINARY OUTPUT FILES WILL BE USED
Info: RESTART FILENAME       mobley_8467917_equil.restart
Info: RESTART FREQUENCY      100000
Info: BINARY RESTART FILES WILL BE USED
Info: CUTOFF                 9
Info: PAIRLIST DISTANCE      11
Info: PAIRLIST SHRINK RATE   0.01
Info: PAIRLIST GROW RATE     0.01
Info: PAIRLIST TRIGGER       0.3
Info: PAIRLISTS PER CYCLE    2
Info: PAIRLISTS ENABLED
Info: MARGIN                 8
Info: HYDROGEN GROUP CUTOFF  2.5
Info: PATCH DIMENSION        21.5
Info: ENERGY OUTPUT STEPS    100000
Info: ENERGY EVALUATION STEPS    100000
Info: OUTPUT ENERGY PRECISION 4
Info: CROSSTERM ENERGY INCLUDED IN DIHEDRAL
Info: TIMING OUTPUT STEPS    1000000
Info: PRESSURE OUTPUT STEPS  100000
Info: LANGEVIN DYNAMICS ACTIVE
Info: LANGEVIN TEMPERATURE   30
Info: LANGEVIN USING BBK INTEGRATOR
Info: LANGEVIN DAMPING COEFFICIENT IS 1 INVERSE PS
Info: LANGEVIN DYNAMICS APPLIED TO HYDROGENS
Info: LANGEVIN PISTON PRESSURE CONTROL ACTIVE
Info:        TARGET PRESSURE IS 1.01325 BAR
Info:     OSCILLATION PERIOD IS 50 FS
Info:             DECAY TIME IS 25 FS
Info:     PISTON TEMPERATURE IS 300 K
Info:       PRESSURE CONTROL IS GROUP-BASED
Info:    INITIAL STRAIN RATE IS 0 0 0
Info:       CELL FLUCTUATION IS ISOTROPIC
Info: PARTICLE MESH EWALD (PME) ACTIVE
Info: PME TOLERANCE               1e-06
Info: PME EWALD COEFFICIENT       0.348832
Info: PME INTERPOLATION ORDER     4
Info: PME GRID DIMENSIONS         36 36 40
Info: PME MAXIMUM GRID SPACING    1
Info: FULL ELECTROSTATIC EVALUATION FREQUENCY      2
Info: USING VERLET I (r-RESPA) MTS SCHEME.
Info: C1 SPLITTING OF LONG RANGE ELECTROSTATICS
Info: PLACING ATOMS IN PATCHES BY HYDROGEN GROUPS
Info: RIGID BONDS TO HYDROGEN : ALL
Info:         ERROR TOLERANCE : 1e-08
Info:          MAX ITERATIONS : 100
Info: RIGID WATER USING SETTLE ALGORITHM
Info: RANDOM NUMBER SEED     1743251440
Info: USE HYDROGEN BONDS?    NO
Info: Using AMBER format force field!
Info: AMBER PARM FILE        mobley_8467917.prmtop
Info: COORDINATE PDB         mobley_8467917.pdb
Info: Exclusions will be read from PARM file!
Info: SCNB (VDW SCALING)     2
Info: USING ARITHMETIC MEAN TO COMBINE L-J SIGMA PARAMETERS
Info: BINARY COORDINATES     mobley_8467917_min.coor
Info: SUMMARY OF PARAMETERS:
Info: 7 BONDS
Info: 8 ANGLES
Info:   8 HARMONIC
Info:   0 COSINE-BASED
Info: 12 DIHEDRAL
Info: 0 IMPROPER
Info: 0 CROSSTERM
Info: 0 VDW
Info: 21 VDW_PAIRS
Info: 0 NBTHOLE_PAIRS
Info: STRUCTURE SUMMARY:
Info: 3000 ATOMS
Info: 2999 BONDS
Info: 36 ANGLES
Info: 58 DIHEDRALS
Info: 0 IMPROPERS
Info: 0 CROSSTERMS
Info: 3078 EXCLUSIONS
Info: 2993 RIGID BONDS
Info: 6007 DEGREES OF FREEDOM
Info: 1000 HYDROGEN GROUPS
Info: 4 ATOMS IN LARGEST HYDROGEN GROUP
Info: 1000 MIGRATION GROUPS
Info: 4 ATOMS IN LARGEST MIGRATION GROUP
Info: TOTAL MASS = 17988.1 amu
Info: TOTAL CHARGE = -0.000200003 e
Info: MASS DENSITY = 0.674224 g/cm^3
Info: ATOM DENSITY = 0.0677145 atoms/A^3
Info: ADDED 0 IMPLICIT EXCLUSIONS
Info: NONBONDED TABLE R-SQUARED SPACING: 0.0625
Info: NONBONDED TABLE SIZE: 705 POINTS
Info: REMOVING COM VELOCITY -0.0521143 0.0701218 0.248107
TCL: Running for 100000 steps
ETITLE: TS BOND ANGLE DIHED IMPRP ELECT VDW BOUNDARY MISC KINETIC TOTAL TEMP POTENTIAL TOTAL3 TEMPAVG PRESSURE GPRESSURE VOLUME PRESSAVG GPRESSAVG
ENERGY: 0 0.0374 0.1988 10.7776 0.0000 -13884.2456 2413.3567 0.0000 0.0000 1780.1683 -9679.7067 298.2592 -11459.8750 -9679.3913 298.2592 383.6156 424.6447 44303.6757 383.6156 424.6447
ENERGY: 100000 0.2484 1.0270 10.7811 0.0000 -14395.5001 2507.1978 0.0000 0.0000 180.2405 -11696.0053 30.1985 -11876.2459 -11695.6348 30.8916 11.0422 68.3794 29400.7838 4.6559 4.6502
TCL: Running 100000 steps at 60 kelvin.
TCL: Setting parameter langevinTemp to 60
TCL: Running for 100000 steps
ETITLE: TS BOND ANGLE DIHED IMPRP ELECT VDW BOUNDARY MISC KINETIC TOTAL TEMP POTENTIAL TOTAL3 TEMPAVG PRESSURE GPRESSURE VOLUME PRESSAVG GPRESSAVG
ENERGY: 100000 0.2484 1.0270 10.7811 0.0000 -14395.5001 2507.1978 0.0000 0.0000 180.1515 -11696.0944 30.1836 -11876.2459 -11695.7506 30.1836 16.2836 68.4479 29400.7838 16.2836 68.4479
ENERGY: 200000 0.2868 1.8118 11.6850 0.0000 -14339.8872 2509.3291 0.0000 0.0000 359.3416 -11457.4330 60.2061 -11816.7746 -11457.3046 59.9719 417.5898 469.9703 28894.9272 3.9711 3.9473
TCL: Running 100000 steps at 90 kelvin.
TCL: Setting parameter langevinTemp to 90
TCL: Running for 100000 steps
ETITLE: TS BOND ANGLE DIHED IMPRP ELECT VDW BOUNDARY MISC KINETIC TOTAL TEMP POTENTIAL TOTAL3 TEMPAVG PRESSURE GPRESSURE VOLUME PRESSAVG GPRESSAVG
ENERGY: 200000 0.2868 1.8118 11.6850 0.0000 -14339.8872 2509.3291 0.0000 0.0000 359.1714 -11457.6032 60.1776 -11816.7746 -11456.9510 60.1776 405.7269 469.4472 28894.9272 405.7269 469.4472
ENERGY: 300000 0.9031 2.5962 10.8392 0.0000 -14116.6603 2368.4292 0.0000 0.0000 522.4173 -11211.4753 87.5287 -11733.8926 -11210.1933 89.9797 -354.1002 -275.8794 28921.1546 2.2251 2.1626
TCL: Running 100000 steps at 120 kelvin.
TCL: Setting parameter langevinTemp to 120
TCL: Running for 100000 steps
ETITLE: TS BOND ANGLE DIHED IMPRP ELECT VDW BOUNDARY MISC KINETIC TOTAL TEMP POTENTIAL TOTAL3 TEMPAVG PRESSURE GPRESSURE VOLUME PRESSAVG GPRESSAVG
ENERGY: 300000 0.9031 2.5962 10.8392 0.0000 -14116.6603 2368.4292 0.0000 0.0000 522.1432 -11211.7494 87.4827 -11733.8926 -11210.7685 87.4827 -323.6536 -275.3432 28921.1546 -323.6536 -275.3432
ENERGY: 400000 0.5825 4.5214 11.2898 0.0000 -14057.2782 2415.8371 0.0000 0.0000 697.6209 -10927.4265 116.8832 -11625.0474 -10925.4818 120.1200 398.4233 440.3542 28952.7511 4.7513 4.7622
TCL: Running 100000 steps at 150 kelvin.
TCL: Setting parameter langevinTemp to 150
TCL: Running for 100000 steps
ETITLE: TS BOND ANGLE DIHED IMPRP ELECT VDW BOUNDARY MISC KINETIC TOTAL TEMP POTENTIAL TOTAL3 TEMPAVG PRESSURE GPRESSURE VOLUME PRESSAVG GPRESSAVG
ENERGY: 400000 0.5825 4.5214 11.2898 0.0000 -14057.2782 2415.8371 0.0000 0.0000 697.2696 -10927.7778 116.8244 -11625.0474 -10926.5248 116.8244 389.5525 440.4864 28952.7511 389.5525 440.4864
ENERGY: 500000 0.3403 3.2489 11.4861 0.0000 -13693.9494 2236.0393 0.0000 0.0000 873.2264 -10569.6084 146.3051 -11442.8348 -10566.5151 150.0798 -426.1457 -389.8184 29222.4859 3.3445 3.3659
TCL: Running 100000 steps at 180 kelvin.
TCL: Setting parameter langevinTemp to 180
TCL: Running for 100000 steps
ETITLE: TS BOND ANGLE DIHED IMPRP ELECT VDW BOUNDARY MISC KINETIC TOTAL TEMP POTENTIAL TOTAL3 TEMPAVG PRESSURE GPRESSURE VOLUME PRESSAVG GPRESSAVG
ENERGY: 500000 0.3403 3.2489 11.4861 0.0000 -13693.9494 2236.0393 0.0000 0.0000 872.7820 -10570.0529 146.2307 -11442.8348 -10568.0357 146.2307 -430.3913 -390.3428 29222.4859 -430.3913 -390.3428
ENERGY: 600000 0.8984 6.8534 10.9382 0.0000 -13330.1827 2174.6548 0.0000 0.0000 1063.9319 -10072.9060 178.2570 -11136.8379 -10071.2356 180.0543 -45.8618 -4.2974 29519.4981 4.5644 4.5746
TCL: Running 100000 steps at 210 kelvin.
TCL: Setting parameter langevinTemp to 210
TCL: Running for 100000 steps
ETITLE: TS BOND ANGLE DIHED IMPRP ELECT VDW BOUNDARY MISC KINETIC TOTAL TEMP POTENTIAL TOTAL3 TEMPAVG PRESSURE GPRESSURE VOLUME PRESSAVG GPRESSAVG
ENERGY: 600000 0.8984 6.8534 10.9382 0.0000 -13330.1827 2174.6548 0.0000 0.0000 1063.4015 -10073.4364 178.1681 -11136.8379 -10071.7247 178.1681 -66.6893 -5.3153 29519.4981 -66.6893 -5.3153
ENERGY: 700000 1.1218 4.2506 9.9583 0.0000 -12776.7274 2014.0325 0.0000 0.0000 1251.7407 -9495.6237 209.7235 -10747.3643 -9492.7975 209.8182 389.3314 470.5920 29222.8735 3.3963 3.4847
TCL: Running 100000 steps at 240 kelvin.
TCL: Setting parameter langevinTemp to 240
TCL: Running for 100000 steps
ETITLE: TS BOND ANGLE DIHED IMPRP ELECT VDW BOUNDARY MISC KINETIC TOTAL TEMP POTENTIAL TOTAL3 TEMPAVG PRESSURE GPRESSURE VOLUME PRESSAVG GPRESSAVG
ENERGY: 700000 1.1218 4.2506 9.9583 0.0000 -12776.7274 2014.0325 0.0000 0.0000 1251.1103 -9496.2540 209.6179 -10747.3643 -9494.2615 209.6179 401.8426 470.3443 29222.8735 401.8426 470.3443
ENERGY: 800000 0.8062 6.9077 12.9137 0.0000 -12070.3951 1814.6847 0.0000 0.0000 1437.5840 -8797.4988 240.8607 -10235.0828 -8792.7926 239.9391 393.5198 499.0009 29628.3760 4.6089 4.4811
TCL: Running 100000 steps at 270 kelvin.
TCL: Setting parameter langevinTemp to 270
TCL: Running for 100000 steps
ETITLE: TS BOND ANGLE DIHED IMPRP ELECT VDW BOUNDARY MISC KINETIC TOTAL TEMP POTENTIAL TOTAL3 TEMPAVG PRESSURE GPRESSURE VOLUME PRESSAVG GPRESSAVG
ENERGY: 800000 0.8062 6.9077 12.9137 0.0000 -12070.3951 1814.6847 0.0000 0.0000 1436.8572 -8798.2256 240.7390 -10235.0828 -8796.3376 240.7390 413.8875 499.8191 29628.3760 413.8875 499.8191
ENERGY: 900000 3.1194 5.4113 11.7697 0.0000 -11303.6012 1535.7979 0.0000 0.0000 1638.6481 -8108.8549 274.5481 -9747.5030 -8103.2906 270.7110 -282.6007 -221.2752 30263.5387 3.2610 3.3240
TCL: Running 1000000 steps at 300 kelvin.
TCL: Setting parameter langevinTemp to 300
TCL: Running for 1000000 steps
ETITLE: TS BOND ANGLE DIHED IMPRP ELECT VDW BOUNDARY MISC KINETIC TOTAL TEMP POTENTIAL TOTAL3 TEMPAVG PRESSURE GPRESSURE VOLUME PRESSAVG GPRESSAVG
ENERGY: 900000 3.1194 5.4113 11.7697 0.0000 -11303.6012 1535.7979 0.0000 0.0000 1637.8455 -8109.6575 274.4136 -9747.5030 -8107.0257 274.4136 -299.2991 -221.1687 30263.5387 -299.2991 -221.1687
ENERGY: 1100000 1.1627 9.0259 14.2680 0.0000 -11008.0816 1583.4398 0.0000 0.0000 1768.1038 -7632.0814 296.2378 -9400.1853 -7630.0051 299.8826 632.9782 647.5726 31205.4923 3.3597 3.3908
ENERGY: 1300000 1.2533 6.7566 14.4611 0.0000 -10929.4905 1538.1651 0.0000 0.0000 1811.0699 -7557.7844 303.4366 -9368.8544 -7553.4405 300.1923 362.5951 484.3771 31181.6195 1.4478 1.4861
ENERGY: 1500000 2.3322 9.3271 12.0985 0.0000 -10689.8839 1319.6177 0.0000 0.0000 1815.2287 -7531.2797 304.1334 -9346.5084 -7527.9166 300.2968 -1020.8110 -929.2696 31197.2930 2.6417 2.6679
ENERGY: 1700000 1.2005 5.0352 12.7422 0.0000 -10920.8333 1533.0681 0.0000 0.0000 1766.5331 -7602.2542 295.9747 -9368.7873 -7596.8074 299.9354 537.8881 539.9219 30816.5757 2.6973 2.7376
ENERGY: 1900000 1.8322 9.8822 11.8570 0.0000 -10866.4698 1459.8796 0.0000 0.0000 1809.4014 -7573.6174 303.1570 -9383.0187 -7570.7929 300.7375 2.8791 56.5624 30704.6931 2.4716 2.5727
TCL: Exiting due to exit command.
