Info: SIMULATION PARAMETERS:
Info: TIMESTEP               2
Info: NUMBER OF STEPS        0
Info: STEPS PER CYCLE        10
Info: PERIODIC CELL BASIS 1  34.207 0 0
Info: PERIODIC CELL BASIS 2  0 34.1 0
Info: PERIODIC CELL BASIS 3  0 0 37.451
Info: PERIODIC CELL CENTER   0 0 0
Info: WRAPPING WATERS AROUND PERIODIC BOUNDARIES ON OUTPUT.
Info: WRAPPING ALL CLUSTERS AROUND PERIODIC BOUNDARIES ON OUTPUT.
Info: FIRST LDB TIMESTEP     50
Info: LAST LDB TIMESTEP     -1
Info: HOM BACKGROUND SCALING 1
Info: PME BACKGROUND SCALING 1
Info: MIN ATOMS PER PATCH    40
Info: EMPTY PATCH LOAD       40 ATOMS
Info: INITIAL TEMPERATURE    300
Info: CENTER OF MASS MOVING INITIALLY? NO
Info: DIELECTRIC             1
Info: EXCLUDE                SCALED ONE-FOUR
Info: 1-4 ELECTROSTATICS SCALED BY 0.833333
Info: MODIFIED 1-4 VDW PARAMETERS WILL BE USED
Info: DCD FILENAME           mobley_3639400_equil.dcd
Info: DCD FREQUENCY          100000
Info: DCD FIRST STEP         100000
Info: DCD FILE WILL CONTAIN UNIT CELL DATA
Info: XST FILENAME           mobley_3639400_equil.xst
Info: XST FREQUENCY          100000
Info: NO VELOCITY DCD OUTPUT
Info: NO FORCE DCD OUTPUT
Info: OUTPUT FILENAME        mobley_3639400_equil
Info: BINARY OUTPUT FILES WILL BE USED
Info: RESTART FILENAME       mobley_3639400_equil.restart
Info: RESTART FREQUENCY      100000
Info: BINARY RESTART FILES WILL BE USED
Info: CUTOFF                 9
Info: PAIRLIST DISTANCE      11
Info: PAIRLIST SHRINK RATE   0.01
Info: PAIRLIST GROW RATE     0.01
Info: PAIRLIST TRIGGER       0.3
Info: PAIRLISTS PER CYCLE    2
Info: PAIRLISTS ENABLED
Info: MARGIN                 8
Info: HYDROGEN GROUP CUTOFF  2.5
Info: PATCH DIMENSION        21.5
Info: ENERGY OUTPUT STEPS    100000
Info: ENERGY EVALUATION STEPS    100000
Info: OUTPUT ENERGY PRECISION 4
Info: CROSSTERM ENERGY INCLUDED IN DIHEDRAL
Info: TIMING OUTPUT STEPS    1000000
Info: PRESSURE OUTPUT STEPS  100000
Info: LANGEVIN DYNAMICS ACTIVE
Info: LANGEVIN TEMPERATURE   30
Info: LANGEVIN USING BBK INTEGRATOR
Info: LANGEVIN DAMPING COEFFICIENT IS 1 INVERSE PS
Info: LANGEVIN DYNAMICS APPLIED TO HYDROGENS
Info: LANGEVIN PISTON PRESSURE CONTROL ACTIVE
Info:        TARGET PRESSURE IS 1.01325 BAR
Info:     OSCILLATION PERIOD IS 50 FS
Info:             DECAY TIME IS 25 FS
Info:     PISTON TEMPERATURE IS 300 K
Info:       PRESSURE CONTROL IS GROUP-BASED
Info:    INITIAL STRAIN RATE IS 0 0 0
Info:       CELL FLUCTUATION IS ISOTROPIC
Info: PARTICLE MESH EWALD (PME) ACTIVE
Info: PME TOLERANCE               1e-06
Info: PME EWALD COEFFICIENT       0.348832
Info: PME INTERPOLATION ORDER     4
Info: PME GRID DIMENSIONS         36 36 40
Info: PME MAXIMUM GRID SPACING    1
Info: FULL ELECTROSTATIC EVALUATION FREQUENCY      2
Info: USING VERLET I (r-RESPA) MTS SCHEME.
Info: C1 SPLITTING OF LONG RANGE ELECTROSTATICS
Info: PLACING ATOMS IN PATCHES BY HYDROGEN GROUPS
Info: RIGID BONDS TO HYDROGEN : ALL
Info:         ERROR TOLERANCE : 1e-08
Info:          MAX ITERATIONS : 100
Info: RIGID WATER USING SETTLE ALGORITHM
Info: RANDOM NUMBER SEED     1743239150
Info: USE HYDROGEN BONDS?    NO
Info: Using AMBER format force field!
Info: AMBER PARM FILE        mobley_3639400.prmtop
Info: COORDINATE PDB         mobley_3639400.pdb
Info: Exclusions will be read from PARM file!
Info: SCNB (VDW SCALING)     2
Info: USING ARITHMETIC MEAN TO COMBINE L-J SIGMA PARAMETERS
Info: BINARY COORDINATES     mobley_3639400_min.coor
Info: SUMMARY OF PARAMETERS:
Info: 6 BONDS
Info: 7 ANGLES
Info: 8 DIHEDRAL
Info: 0 IMPROPER
Info: 0 CROSSTERM
Info: 0 VDW
Info: 21 VDW_PAIRS
Info: 0 NBTHOLE_PAIRS
Info: STRUCTURE SUMMARY:
Info: 2984 ATOMS
Info: 2983 BONDS
Info: 24 ANGLES
Info: 31 DIHEDRALS
Info: 0 IMPROPERS
Info: 0 CROSSTERMS
Info: 3034 EXCLUSIONS
Info: 2979 RIGID BONDS
Info: 5973 DEGREES OF FREEDOM
Info: 995 HYDROGEN GROUPS
Info: 4 ATOMS IN LARGEST HYDROGEN GROUP
Info: 995 MIGRATION GROUPS
Info: 4 ATOMS IN LARGEST MIGRATION GROUP
Info: TOTAL MASS = 17928.4 amu
Info: TOTAL CHARGE = 0.000200015 e
Info: MASS DENSITY = 0.681503 g/cm^3
Info: ATOM DENSITY = 0.0683071 atoms/A^3
Info: ADDED 0 IMPLICIT EXCLUSIONS
Info: NONBONDED TABLE R-SQUARED SPACING: 0.0625
Info: NONBONDED TABLE SIZE: 705 POINTS
Info: REMOVING COM VELOCITY 0.0839849 0.0532679 -0.097095
TCL: Running for 100000 steps
ETITLE: TS BOND ANGLE DIHED IMPRP ELECT VDW BOUNDARY MISC KINETIC TOTAL TEMP POTENTIAL TOTAL3 TEMPAVG PRESSURE GPRESSURE VOLUME PRESSAVG GPRESSAVG
ENERGY: 0 0.0214 0.1678 1.1800 0.0000 -13815.2020 2395.7214 0.0000 0.0000 1782.1192 -9635.9922 300.2857 -11418.1114 -9635.6369 300.2857 276.5617 317.9985 43685.0448 276.5617 317.9985
ENERGY: 100000 0.3881 1.1748 1.3373 0.0000 -14569.3309 2676.8829 0.0000 0.0000 180.0771 -11709.4706 30.3428 -11889.5477 -11708.9211 30.9646 1448.3996 1491.4397 28815.9851 3.0130 3.0318
TCL: Running 100000 steps at 60 kelvin.
TCL: Setting parameter langevinTemp to 60
TCL: Running for 100000 steps
ETITLE: TS BOND ANGLE DIHED IMPRP ELECT VDW BOUNDARY MISC KINETIC TOTAL TEMP POTENTIAL TOTAL3 TEMPAVG PRESSURE GPRESSURE VOLUME PRESSAVG GPRESSAVG
ENERGY: 100000 0.3881 1.1748 1.3373 0.0000 -14569.3309 2676.8829 0.0000 0.0000 179.9855 -11709.5622 30.3274 -11889.5477 -11709.3647 30.3274 1439.6070 1491.7306 28815.9851 1439.6070 1491.7306
ENERGY: 200000 0.1437 1.2318 1.2782 0.0000 -14398.9857 2558.7539 0.0000 0.0000 344.4874 -11493.0908 58.0459 -11837.5782 -11492.2048 60.0121 544.5510 600.0306 29116.3323 4.3452 4.2749
TCL: Running 100000 steps at 90 kelvin.
TCL: Setting parameter langevinTemp to 90
TCL: Running for 100000 steps
ETITLE: TS BOND ANGLE DIHED IMPRP ELECT VDW BOUNDARY MISC KINETIC TOTAL TEMP POTENTIAL TOTAL3 TEMPAVG PRESSURE GPRESSURE VOLUME PRESSAVG GPRESSAVG
ENERGY: 200000 0.1437 1.2318 1.2782 0.0000 -14398.9857 2558.7539 0.0000 0.0000 344.3045 -11493.2736 58.0150 -11837.5781 -11492.5517 58.0150 547.8319 600.2178 29116.3323 547.8319 600.2178
ENERGY: 300000 0.6307 2.0320 1.1897 0.0000 -14062.9408 2382.1697 0.0000 0.0000 524.8471 -11152.0716 88.4363 -11676.9187 -11151.1035 89.9445 -327.4473 -255.2478 29246.7880 5.2005 5.1522
TCL: Running 100000 steps at 120 kelvin.
TCL: Setting parameter langevinTemp to 120
TCL: Running for 100000 steps
ETITLE: TS BOND ANGLE DIHED IMPRP ELECT VDW BOUNDARY MISC KINETIC TOTAL TEMP POTENTIAL TOTAL3 TEMPAVG PRESSURE GPRESSURE VOLUME PRESSAVG GPRESSAVG
ENERGY: 300000 0.6307 2.0320 1.1897 0.0000 -14062.9408 2382.1697 0.0000 0.0000 524.5865 -11152.3322 88.3924 -11676.9187 -11151.2853 88.3924 -306.8547 -255.5416 29246.7880 -306.8547 -255.5416
ENERGY: 400000 0.2662 2.2380 1.8570 0.0000 -13857.7732 2299.1503 0.0000 0.0000 695.6015 -10858.6602 117.2083 -11554.2617 -10857.2166 120.0428 -484.5948 -429.1378 29280.8788 4.1881 4.0967
TCL: Running 100000 steps at 150 kelvin.
TCL: Setting parameter langevinTemp to 150
TCL: Running for 100000 steps
ETITLE: TS BOND ANGLE DIHED IMPRP ELECT VDW BOUNDARY MISC KINETIC TOTAL TEMP POTENTIAL TOTAL3 TEMPAVG PRESSURE GPRESSURE VOLUME PRESSAVG GPRESSAVG
ENERGY: 400000 0.2662 2.2380 1.8570 0.0000 -13857.7732 2299.1503 0.0000 0.0000 695.2453 -10859.0164 117.1483 -11554.2617 -10857.4229 117.1483 -473.6925 -429.1958 29280.8788 -473.6925 -429.1958
ENERGY: 500000 0.2981 2.7470 1.7678 0.0000 -13766.9924 2370.6536 0.0000 0.0000 897.5896 -10493.9363 151.2431 -11391.5260 -10492.7333 150.1585 902.8053 941.0065 29106.9349 4.1131 3.9479
TCL: Running 100000 steps at 180 kelvin.
TCL: Setting parameter langevinTemp to 180
TCL: Running for 100000 steps
ETITLE: TS BOND ANGLE DIHED IMPRP ELECT VDW BOUNDARY MISC KINETIC TOTAL TEMP POTENTIAL TOTAL3 TEMPAVG PRESSURE GPRESSURE VOLUME PRESSAVG GPRESSAVG
ENERGY: 500000 0.2981 2.7470 1.7678 0.0000 -13766.9924 2370.6536 0.0000 0.0000 897.1520 -10494.3739 151.1694 -11391.5260 -10492.8251 151.1694 907.6638 940.8090 29106.9349 907.6638 940.8090
ENERGY: 600000 1.1598 3.6015 1.9924 0.0000 -13188.1652 2123.1975 0.0000 0.0000 1068.1267 -9990.0872 179.9785 -11058.2138 -9987.6934 180.1751 48.7535 177.7969 28950.4503 5.3912 5.3891
TCL: Running 100000 steps at 210 kelvin.
TCL: Setting parameter langevinTemp to 210
TCL: Running for 100000 steps
ETITLE: TS BOND ANGLE DIHED IMPRP ELECT VDW BOUNDARY MISC KINETIC TOTAL TEMP POTENTIAL TOTAL3 TEMPAVG PRESSURE GPRESSURE VOLUME PRESSAVG GPRESSAVG
ENERGY: 600000 1.1598 3.6015 1.9924 0.0000 -13188.1652 2123.1975 0.0000 0.0000 1067.5987 -9990.6152 179.8895 -11058.2138 -9988.7473 179.8895 107.3188 177.8415 28950.4503 107.3188 177.8415
ENERGY: 700000 0.6884 6.7047 2.0170 0.0000 -12453.9883 1870.7871 0.0000 0.0000 1211.8490 -9361.9420 204.1956 -10573.7910 -9359.4607 209.6058 -303.3227 -231.2374 29243.1069 4.1224 4.0125
TCL: Running 100000 steps at 240 kelvin.
TCL: Setting parameter langevinTemp to 240
TCL: Running for 100000 steps
ETITLE: TS BOND ANGLE DIHED IMPRP ELECT VDW BOUNDARY MISC KINETIC TOTAL TEMP POTENTIAL TOTAL3 TEMPAVG PRESSURE GPRESSURE VOLUME PRESSAVG GPRESSAVG
ENERGY: 700000 0.6884 6.7047 2.0170 0.0000 -12453.9883 1870.7871 0.0000 0.0000 1211.2234 -9362.5676 204.0902 -10573.7910 -9360.1304 204.0902 -308.6567 -231.0334 29243.1069 -308.6567 -231.0334
ENERGY: 800000 2.5349 6.6562 3.3756 0.0000 -12109.1265 1857.8349 0.0000 0.0000 1425.8504 -8812.8745 240.2547 -10238.7249 -8809.8014 239.9422 938.8735 1037.1579 28902.4358 3.3237 3.1833
TCL: Running 100000 steps at 270 kelvin.
TCL: Setting parameter langevinTemp to 270
TCL: Running for 100000 steps
ETITLE: TS BOND ANGLE DIHED IMPRP ELECT VDW BOUNDARY MISC KINETIC TOTAL TEMP POTENTIAL TOTAL3 TEMPAVG PRESSURE GPRESSURE VOLUME PRESSAVG GPRESSAVG
ENERGY: 800000 2.5349 6.6562 3.3756 0.0000 -12109.1265 1857.8349 0.0000 0.0000 1425.1469 -8813.5780 240.1361 -10238.7249 -8811.3207 240.1361 953.3067 1037.8837 28902.4358 953.3067 1037.8837
ENERGY: 900000 0.6735 5.2314 2.4270 0.0000 -11089.9582 1449.7112 0.0000 0.0000 1563.0987 -8068.8164 263.3809 -9631.9151 -8064.7602 270.4743 -764.6878 -726.3612 30240.6775 1.9322 1.6055
TCL: Running 1000000 steps at 300 kelvin.
TCL: Setting parameter langevinTemp to 300
TCL: Running for 1000000 steps
ETITLE: TS BOND ANGLE DIHED IMPRP ELECT VDW BOUNDARY MISC KINETIC TOTAL TEMP POTENTIAL TOTAL3 TEMPAVG PRESSURE GPRESSURE VOLUME PRESSAVG GPRESSAVG
ENERGY: 900000 0.6735 5.2314 2.4270 0.0000 -11089.9582 1449.7112 0.0000 0.0000 1562.2914 -8069.6237 263.2449 -9631.9151 -8067.8604 263.2449 -809.3000 -726.4060 30240.6775 -809.3000 -726.4060
ENERGY: 1100000 0.4988 5.1945 1.9547 0.0000 -10853.2600 1451.4455 0.0000 0.0000 1790.7381 -7603.4285 301.7380 -9394.1666 -7600.7009 299.7253 -184.1431 -107.9277 30884.5487 2.7027 2.5444
ENERGY: 1300000 1.1944 6.7899 1.1990 0.0000 -10955.5832 1515.6596 0.0000 0.0000 1774.5437 -7656.1966 299.0092 -9430.7403 -7654.7962 300.7555 342.0579 341.2749 30554.3549 4.0474 4.1302
ENERGY: 1500000 1.2057 3.3876 1.5614 0.0000 -10648.5457 1328.7772 0.0000 0.0000 1839.2242 -7474.3897 309.9078 -9313.6138 -7470.6874 300.0276 -887.3154 -791.2962 31089.8077 2.5139 2.7532
ENERGY: 1700000 0.4345 6.7869 2.8727 0.0000 -10690.0293 1384.0940 0.0000 0.0000 1769.0252 -7526.8159 298.0794 -9295.8411 -7525.2850 300.0105 -482.6284 -418.9509 31074.2779 2.9322 2.8258
ENERGY: 1900000 1.8358 4.4554 2.2727 0.0000 -10725.4650 1339.7995 0.0000 0.0000 1781.9612 -7595.1404 300.2591 -9377.1017 -7589.0942 300.3412 -1153.8934 -1093.7601 31065.1494 2.6686 2.6086
TCL: Exiting due to exit command.
