Info: SIMULATION PARAMETERS:
Info: TIMESTEP               2
Info: NUMBER OF STEPS        0
Info: STEPS PER CYCLE        10
Info: PERIODIC CELL BASIS 1  34.986 0 0
Info: PERIODIC CELL BASIS 2  0 35.411 0
Info: PERIODIC CELL BASIS 3  0 0 35.897
Info: PERIODIC CELL CENTER   0 0 0
Info: WRAPPING WATERS AROUND PERIODIC BOUNDARIES ON OUTPUT.
Info: WRAPPING ALL CLUSTERS AROUND PERIODIC BOUNDARIES ON OUTPUT.
Info: FIRST LDB TIMESTEP     50
Info: LAST LDB TIMESTEP     -1
Info: HOM BACKGROUND SCALING 1
Info: PME BACKGROUND SCALING 1
Info: MIN ATOMS PER PATCH    40
Info: EMPTY PATCH LOAD       40 ATOMS
Info: INITIAL TEMPERATURE    300
Info: CENTER OF MASS MOVING INITIALLY? NO
Info: DIELECTRIC             1
Info: EXCLUDE                SCALED ONE-FOUR
Info: 1-4 ELECTROSTATICS SCALED BY 0.833333
Info: MODIFIED 1-4 VDW PARAMETERS WILL BE USED
Info: DCD FILENAME           mobley_299266_equil.dcd
Info: DCD FREQUENCY          100000
Info: DCD FIRST STEP         100000
Info: DCD FILE WILL CONTAIN UNIT CELL DATA
Info: XST FILENAME           mobley_299266_equil.xst
Info: XST FREQUENCY          100000
Info: NO VELOCITY DCD OUTPUT
Info: NO FORCE DCD OUTPUT
Info: OUTPUT FILENAME        mobley_299266_equil
Info: BINARY OUTPUT FILES WILL BE USED
Info: RESTART FILENAME       mobley_299266_equil.restart
Info: RESTART FREQUENCY      100000
Info: BINARY RESTART FILES WILL BE USED
Info: CUTOFF                 9
Info: PAIRLIST DISTANCE      11
Info: PAIRLIST SHRINK RATE   0.01
Info: PAIRLIST GROW RATE     0.01
Info: PAIRLIST TRIGGER       0.3
Info: PAIRLISTS PER CYCLE    2
Info: PAIRLISTS ENABLED
Info: MARGIN                 8
Info: HYDROGEN GROUP CUTOFF  2.5
Info: PATCH DIMENSION        21.5
Info: ENERGY OUTPUT STEPS    100000
Info: ENERGY EVALUATION STEPS    100000
Info: OUTPUT ENERGY PRECISION 4
Info: CROSSTERM ENERGY INCLUDED IN DIHEDRAL
Info: TIMING OUTPUT STEPS    1000000
Info: PRESSURE OUTPUT STEPS  100000
Info: LANGEVIN DYNAMICS ACTIVE
Info: LANGEVIN TEMPERATURE   30
Info: LANGEVIN USING BBK INTEGRATOR
Info: LANGEVIN DAMPING COEFFICIENT IS 1 INVERSE PS
Info: LANGEVIN DYNAMICS APPLIED TO HYDROGENS
Info: LANGEVIN PISTON PRESSURE CONTROL ACTIVE
Info:        TARGET PRESSURE IS 1.01325 BAR
Info:     OSCILLATION PERIOD IS 50 FS
Info:             DECAY TIME IS 25 FS
Info:     PISTON TEMPERATURE IS 300 K
Info:       PRESSURE CONTROL IS GROUP-BASED
Info:    INITIAL STRAIN RATE IS 0 0 0
Info:       CELL FLUCTUATION IS ISOTROPIC
Info: PARTICLE MESH EWALD (PME) ACTIVE
Info: PME TOLERANCE               1e-06
Info: PME EWALD COEFFICIENT       0.348832
Info: PME INTERPOLATION ORDER     4
Info: PME GRID DIMENSIONS         36 36 36
Info: PME MAXIMUM GRID SPACING    1
Info: FULL ELECTROSTATIC EVALUATION FREQUENCY      2
Info: USING VERLET I (r-RESPA) MTS SCHEME.
Info: C1 SPLITTING OF LONG RANGE ELECTROSTATICS
Info: PLACING ATOMS IN PATCHES BY HYDROGEN GROUPS
Info: RIGID BONDS TO HYDROGEN : ALL
Info:         ERROR TOLERANCE : 1e-08
Info:          MAX ITERATIONS : 100
Info: RIGID WATER USING SETTLE ALGORITHM
Info: RANDOM NUMBER SEED     1743162316
Info: USE HYDROGEN BONDS?    NO
Info: Using AMBER format force field!
Info: AMBER PARM FILE        mobley_299266.prmtop
Info: COORDINATE PDB         mobley_299266.pdb
Info: Exclusions will be read from PARM file!
Info: SCNB (VDW SCALING)     2
Info: USING ARITHMETIC MEAN TO COMBINE L-J SIGMA PARAMETERS
Info: BINARY COORDINATES     mobley_299266_min.coor
Info: SUMMARY OF PARAMETERS:
Info: 6 BONDS
Info: 6 ANGLES
Info:   6 HARMONIC
Info:   0 COSINE-BASED
Info: 5 DIHEDRAL
Info: 0 IMPROPER
Info: 0 CROSSTERM
Info: 0 VDW
Info: 21 VDW_PAIRS
Info: 0 NBTHOLE_PAIRS
Info: STRUCTURE SUMMARY:
Info: 2988 ATOMS
Info: 2987 BONDS
Info: 18 ANGLES
Info: 30 DIHEDRALS
Info: 0 IMPROPERS
Info: 0 CROSSTERMS
Info: 3021 EXCLUSIONS
Info: 2984 RIGID BONDS
Info: 5980 DEGREES OF FREEDOM
Info: 996 HYDROGEN GROUPS
Info: 4 ATOMS IN LARGEST HYDROGEN GROUP
Info: 996 MIGRATION GROUPS
Info: 4 ATOMS IN LARGEST MIGRATION GROUP
Info: TOTAL MASS = 17928 amu
Info: TOTAL CHARGE = -0.000199981 e
Info: MASS DENSITY = 0.669422 g/cm^3
Info: ATOM DENSITY = 0.0671877 atoms/A^3
Info: ADDED 0 IMPLICIT EXCLUSIONS
Info: NONBONDED TABLE R-SQUARED SPACING: 0.0625
Info: NONBONDED TABLE SIZE: 705 POINTS
Info: REMOVING COM VELOCITY -0.0372306 0.05734 -0.149463
TCL: Running for 100000 steps
ETITLE: TS BOND ANGLE DIHED IMPRP ELECT VDW BOUNDARY MISC KINETIC TOTAL TEMP POTENTIAL TOTAL3 TEMPAVG PRESSURE GPRESSURE VOLUME PRESSAVG GPRESSAVG
ENERGY: 0 0.0292 0.1761 6.8809 0.0000 -13837.7515 2429.8559 0.0000 0.0000 1761.6818 -9639.1278 296.4945 -11400.8096 -9638.7767 296.4945 375.5317 411.6532 44472.4073 375.5317 411.6532
ENERGY: 100000 0.1774 0.4569 7.1996 0.0000 -14527.5385 2590.2637 0.0000 0.0000 176.5687 -11752.8721 29.7169 -11929.4408 -11752.5094 30.9027 654.2251 702.3840 28713.1961 5.1267 5.0601
TCL: Running 100000 steps at 60 kelvin.
TCL: Setting parameter langevinTemp to 60
TCL: Running for 100000 steps
ETITLE: TS BOND ANGLE DIHED IMPRP ELECT VDW BOUNDARY MISC KINETIC TOTAL TEMP POTENTIAL TOTAL3 TEMPAVG PRESSURE GPRESSURE VOLUME PRESSAVG GPRESSAVG
ENERGY: 100000 0.1774 0.4569 7.1996 0.0000 -14527.5385 2590.2637 0.0000 0.0000 176.4808 -11752.9600 29.7021 -11929.4408 -11752.7007 29.7021 651.7353 702.4467 28713.1961 651.7353 702.4467
ENERGY: 200000 0.1108 1.2157 7.1968 0.0000 -14299.5335 2437.7764 0.0000 0.0000 363.7708 -11489.4630 61.2233 -11853.2338 -11488.2425 59.7698 -348.2654 -267.1811 28931.8816 3.3203 3.3135
TCL: Running 100000 steps at 90 kelvin.
TCL: Setting parameter langevinTemp to 90
TCL: Running for 100000 steps
ETITLE: TS BOND ANGLE DIHED IMPRP ELECT VDW BOUNDARY MISC KINETIC TOTAL TEMP POTENTIAL TOTAL3 TEMPAVG PRESSURE GPRESSURE VOLUME PRESSAVG GPRESSAVG
ENERGY: 200000 0.1108 1.2157 7.1968 0.0000 -14299.5335 2437.7764 0.0000 0.0000 363.5906 -11489.6432 61.1930 -11853.2338 -11488.7831 61.1930 -325.1705 -267.3590 28931.8816 -325.1705 -267.3590
ENERGY: 300000 0.1164 1.9783 7.3534 0.0000 -14187.3508 2444.8650 0.0000 0.0000 530.6585 -11202.3791 89.3109 -11733.0376 -11201.1432 89.7519 46.2408 74.5028 29213.2471 4.4906 4.5214
TCL: Running 100000 steps at 120 kelvin.
TCL: Setting parameter langevinTemp to 120
TCL: Running for 100000 steps
ETITLE: TS BOND ANGLE DIHED IMPRP ELECT VDW BOUNDARY MISC KINETIC TOTAL TEMP POTENTIAL TOTAL3 TEMPAVG PRESSURE GPRESSURE VOLUME PRESSAVG GPRESSAVG
ENERGY: 300000 0.1164 1.9783 7.3534 0.0000 -14187.3508 2444.8650 0.0000 0.0000 530.3883 -11202.6494 89.2654 -11733.0376 -11201.5435 89.2654 19.9231 74.3181 29213.2471 19.9231 74.3181
ENERGY: 400000 0.3310 1.6967 7.3850 0.0000 -13949.5909 2314.4317 0.0000 0.0000 706.8110 -10918.9354 118.9577 -11625.7465 -10917.1149 119.7473 -594.8746 -507.4324 29220.1161 2.5744 2.5542
TCL: Running 100000 steps at 150 kelvin.
TCL: Setting parameter langevinTemp to 150
TCL: Running for 100000 steps
ETITLE: TS BOND ANGLE DIHED IMPRP ELECT VDW BOUNDARY MISC KINETIC TOTAL TEMP POTENTIAL TOTAL3 TEMPAVG PRESSURE GPRESSURE VOLUME PRESSAVG GPRESSAVG
ENERGY: 400000 0.3310 1.6967 7.3850 0.0000 -13949.5909 2314.4317 0.0000 0.0000 706.4530 -10919.2934 118.8974 -11625.7465 -10917.8951 118.8974 -582.2986 -506.8938 29220.1161 -582.2986 -506.8938
ENERGY: 500000 0.2222 2.4046 7.6096 0.0000 -13643.5330 2244.0533 0.0000 0.0000 910.6062 -10478.6370 153.2568 -11389.2433 -10475.6332 150.0471 -476.7606 -404.2733 29612.0350 3.1419 3.1981
TCL: Running 100000 steps at 180 kelvin.
TCL: Setting parameter langevinTemp to 180
TCL: Running for 100000 steps
ETITLE: TS BOND ANGLE DIHED IMPRP ELECT VDW BOUNDARY MISC KINETIC TOTAL TEMP POTENTIAL TOTAL3 TEMPAVG PRESSURE GPRESSURE VOLUME PRESSAVG GPRESSAVG
ENERGY: 500000 0.2222 2.4046 7.6096 0.0000 -13643.5330 2244.0533 0.0000 0.0000 910.1596 -10479.0836 153.1817 -11389.2433 -10477.6513 153.1817 -454.0622 -403.5439 29612.0350 -454.0622 -403.5439
ENERGY: 600000 0.7020 2.5090 8.2341 0.0000 -13472.1460 2350.4649 0.0000 0.0000 1034.8090 -10075.4270 174.1604 -11110.2360 -10073.2197 179.9182 1886.2635 1949.2314 28660.5019 4.1151 4.1329
TCL: Running 100000 steps at 210 kelvin.
TCL: Setting parameter langevinTemp to 210
TCL: Running for 100000 steps
ETITLE: TS BOND ANGLE DIHED IMPRP ELECT VDW BOUNDARY MISC KINETIC TOTAL TEMP POTENTIAL TOTAL3 TEMPAVG PRESSURE GPRESSURE VOLUME PRESSAVG GPRESSAVG
ENERGY: 600000 0.7020 2.5090 8.2341 0.0000 -13472.1459 2350.4649 0.0000 0.0000 1034.2850 -10075.9509 174.0722 -11110.2360 -10074.2055 174.0722 1883.5851 1948.1298 28660.5019 1883.5851 1948.1298
ENERGY: 700000 0.7769 3.5216 7.4159 0.0000 -12547.4502 1924.1115 0.0000 0.0000 1278.7408 -9332.8835 215.2146 -10611.6243 -9328.4045 209.3672 243.0351 352.7603 28873.6392 2.5199 2.5494
TCL: Running 100000 steps at 240 kelvin.
TCL: Setting parameter langevinTemp to 240
TCL: Running for 100000 steps
ETITLE: TS BOND ANGLE DIHED IMPRP ELECT VDW BOUNDARY MISC KINETIC TOTAL TEMP POTENTIAL TOTAL3 TEMPAVG PRESSURE GPRESSURE VOLUME PRESSAVG GPRESSAVG
ENERGY: 700000 0.7769 3.5216 7.4159 0.0000 -12547.4502 1924.1115 0.0000 0.0000 1278.1306 -9333.4938 215.1119 -10611.6243 -9331.5450 215.1119 276.9943 352.9961 28873.6392 276.9943 352.9961
ENERGY: 800000 0.6098 3.8987 7.1143 0.0000 -11787.0253 1673.8065 0.0000 0.0000 1420.1711 -8681.4250 239.0176 -10101.5960 -8678.8901 239.7220 -151.7462 -61.7725 29464.6435 5.3912 5.1433
TCL: Running 100000 steps at 270 kelvin.
TCL: Setting parameter langevinTemp to 270
TCL: Running for 100000 steps
ETITLE: TS BOND ANGLE DIHED IMPRP ELECT VDW BOUNDARY MISC KINETIC TOTAL TEMP POTENTIAL TOTAL3 TEMPAVG PRESSURE GPRESSURE VOLUME PRESSAVG GPRESSAVG
ENERGY: 800000 0.6098 3.8987 7.1143 0.0000 -11787.0253 1673.8065 0.0000 0.0000 1419.4640 -8682.1320 238.8986 -10101.5960 -8679.6969 238.8986 -142.1034 -62.6588 29464.6435 -142.1034 -62.6588
ENERGY: 900000 0.3989 3.3762 7.4225 0.0000 -11332.4956 1567.3560 0.0000 0.0000 1621.4020 -8132.5401 272.8851 -9753.9421 -8129.0176 270.0464 -60.5298 56.5287 29680.7909 2.7898 2.8145
TCL: Running 1000000 steps at 300 kelvin.
TCL: Setting parameter langevinTemp to 300
TCL: Running for 1000000 steps
ETITLE: TS BOND ANGLE DIHED IMPRP ELECT VDW BOUNDARY MISC KINETIC TOTAL TEMP POTENTIAL TOTAL3 TEMPAVG PRESSURE GPRESSURE VOLUME PRESSAVG GPRESSAVG
ENERGY: 900000 0.3989 3.3762 7.4225 0.0000 -11332.4956 1567.3560 0.0000 0.0000 1620.5933 -8133.3488 272.7490 -9753.9421 -8130.9364 272.7490 -32.7869 56.7466 29680.7909 -32.7869 56.7466
ENERGY: 1100000 0.2163 4.3238 8.0011 0.0000 -10999.1096 1639.2479 0.0000 0.0000 1831.4737 -7515.8468 308.2406 -9347.3205 -7511.1600 300.7030 1207.0479 1255.9430 31087.4433 2.8868 2.9609
ENERGY: 1300000 1.3139 2.7741 7.3408 0.0000 -10850.7145 1481.3172 0.0000 0.0000 1775.2019 -7582.7666 298.7700 -9357.9685 -7580.5569 300.1504 214.0713 267.6198 30658.3109 2.1407 2.2266
ENERGY: 1500000 1.2561 3.8397 7.6232 0.0000 -10900.0097 1463.6256 0.0000 0.0000 1780.8085 -7642.8566 299.7136 -9423.6650 -7641.3916 299.9289 -124.9517 10.7427 30556.9443 3.9008 3.9323
ENERGY: 1700000 1.2170 3.0458 8.7997 0.0000 -10950.7438 1512.6095 0.0000 0.0000 1783.7068 -7641.3649 300.2014 -9425.0718 -7636.6200 300.5995 148.4216 189.8299 30974.3124 2.6829 2.6320
ENERGY: 1900000 0.4979 2.9948 8.0681 0.0000 -10871.5606 1506.0983 0.0000 0.0000 1790.6871 -7563.2144 301.3762 -9353.9015 -7559.1158 299.7223 421.9615 475.8593 30714.0875 3.5750 3.5939
TCL: Exiting due to exit command.
