Info: SIMULATION PARAMETERS:
Info: TIMESTEP               2
Info: NUMBER OF STEPS        0
Info: STEPS PER CYCLE        10
Info: PERIODIC CELL BASIS 1  34.207 0 0
Info: PERIODIC CELL BASIS 2  0 34.696 0
Info: PERIODIC CELL BASIS 3  0 0 36.199
Info: PERIODIC CELL CENTER   0 0 0
Info: WRAPPING WATERS AROUND PERIODIC BOUNDARIES ON OUTPUT.
Info: WRAPPING ALL CLUSTERS AROUND PERIODIC BOUNDARIES ON OUTPUT.
Info: FIRST LDB TIMESTEP     50
Info: LAST LDB TIMESTEP     -1
Info: HOM BACKGROUND SCALING 1
Info: PME BACKGROUND SCALING 1
Info: MIN ATOMS PER PATCH    40
Info: EMPTY PATCH LOAD       40 ATOMS
Info: INITIAL TEMPERATURE    300
Info: CENTER OF MASS MOVING INITIALLY? NO
Info: DIELECTRIC             1
Info: EXCLUDE                SCALED ONE-FOUR
Info: 1-4 ELECTROSTATICS SCALED BY 0.833333
Info: MODIFIED 1-4 VDW PARAMETERS WILL BE USED
Info: DCD FILENAME           mobley_6739648_equil.dcd
Info: DCD FREQUENCY          100000
Info: DCD FIRST STEP         100000
Info: DCD FILE WILL CONTAIN UNIT CELL DATA
Info: XST FILENAME           mobley_6739648_equil.xst
Info: XST FREQUENCY          100000
Info: NO VELOCITY DCD OUTPUT
Info: NO FORCE DCD OUTPUT
Info: OUTPUT FILENAME        mobley_6739648_equil
Info: BINARY OUTPUT FILES WILL BE USED
Info: RESTART FILENAME       mobley_6739648_equil.restart
Info: RESTART FREQUENCY      100000
Info: BINARY RESTART FILES WILL BE USED
Info: CUTOFF                 9
Info: PAIRLIST DISTANCE      11
Info: PAIRLIST SHRINK RATE   0.01
Info: PAIRLIST GROW RATE     0.01
Info: PAIRLIST TRIGGER       0.3
Info: PAIRLISTS PER CYCLE    2
Info: PAIRLISTS ENABLED
Info: MARGIN                 8
Info: HYDROGEN GROUP CUTOFF  2.5
Info: PATCH DIMENSION        21.5
Info: ENERGY OUTPUT STEPS    100000
Info: ENERGY EVALUATION STEPS    100000
Info: OUTPUT ENERGY PRECISION 4
Info: CROSSTERM ENERGY INCLUDED IN DIHEDRAL
Info: TIMING OUTPUT STEPS    1000000
Info: PRESSURE OUTPUT STEPS  100000
Info: LANGEVIN DYNAMICS ACTIVE
Info: LANGEVIN TEMPERATURE   30
Info: LANGEVIN USING BBK INTEGRATOR
Info: LANGEVIN DAMPING COEFFICIENT IS 1 INVERSE PS
Info: LANGEVIN DYNAMICS APPLIED TO HYDROGENS
Info: LANGEVIN PISTON PRESSURE CONTROL ACTIVE
Info:        TARGET PRESSURE IS 1.01325 BAR
Info:     OSCILLATION PERIOD IS 50 FS
Info:             DECAY TIME IS 25 FS
Info:     PISTON TEMPERATURE IS 300 K
Info:       PRESSURE CONTROL IS GROUP-BASED
Info:    INITIAL STRAIN RATE IS 0 0 0
Info:       CELL FLUCTUATION IS ISOTROPIC
Info: PARTICLE MESH EWALD (PME) ACTIVE
Info: PME TOLERANCE               1e-06
Info: PME EWALD COEFFICIENT       0.348832
Info: PME INTERPOLATION ORDER     4
Info: PME GRID DIMENSIONS         36 36 40
Info: PME MAXIMUM GRID SPACING    1
Info: FULL ELECTROSTATIC EVALUATION FREQUENCY      2
Info: USING VERLET I (r-RESPA) MTS SCHEME.
Info: C1 SPLITTING OF LONG RANGE ELECTROSTATICS
Info: PLACING ATOMS IN PATCHES BY HYDROGEN GROUPS
Info: RIGID BONDS TO HYDROGEN : ALL
Info:         ERROR TOLERANCE : 1e-08
Info:          MAX ITERATIONS : 100
Info: RIGID WATER USING SETTLE ALGORITHM
Info: RANDOM NUMBER SEED     1743210807
Info: USE HYDROGEN BONDS?    NO
Info: Using AMBER format force field!
Info: AMBER PARM FILE        mobley_6739648.prmtop
Info: COORDINATE PDB         mobley_6739648.pdb
Info: Exclusions will be read from PARM file!
Info: SCNB (VDW SCALING)     2
Info: USING ARITHMETIC MEAN TO COMBINE L-J SIGMA PARAMETERS
Info: BINARY COORDINATES     mobley_6739648_min.coor
Info: SUMMARY OF PARAMETERS:
Info: 5 BONDS
Info: 5 ANGLES
Info: 8 DIHEDRAL
Info: 0 IMPROPER
Info: 0 CROSSTERM
Info: 0 VDW
Info: 15 VDW_PAIRS
Info: 0 NBTHOLE_PAIRS
Info: STRUCTURE SUMMARY:
Info: 2930 ATOMS
Info: 2930 BONDS
Info: 26 ANGLES
Info: 44 DIHEDRALS
Info: 0 IMPROPERS
Info: 0 CROSSTERMS
Info: 2983 EXCLUSIONS
Info: 2924 RIGID BONDS
Info: 5866 DEGREES OF FREEDOM
Info: 978 HYDROGEN GROUPS
Info: 3 ATOMS IN LARGEST HYDROGEN GROUP
Info: 978 MIGRATION GROUPS
Info: 3 ATOMS IN LARGEST MIGRATION GROUP
Info: TOTAL MASS = 17599.7 amu
Info: TOTAL CHARGE = -0.000399977 e
Info: MASS DENSITY = 0.680256 g/cm^3
Info: ATOM DENSITY = 0.0681988 atoms/A^3
Info: ADDED 0 IMPLICIT EXCLUSIONS
Info: NONBONDED TABLE R-SQUARED SPACING: 0.0625
Info: NONBONDED TABLE SIZE: 705 POINTS
Info: REMOVING COM VELOCITY -0.0994705 0.000115358 -0.0956792
TCL: Running for 100000 steps
ETITLE: TS BOND ANGLE DIHED IMPRP ELECT VDW BOUNDARY MISC KINETIC TOTAL TEMP POTENTIAL TOTAL3 TEMPAVG PRESSURE GPRESSURE VOLUME PRESSAVG GPRESSAVG
ENERGY: 0 0.3485 0.1197 3.5036 0.0000 -13558.2972 2412.6651 0.0000 0.0000 1697.1004 -9444.5599 291.1762 -11141.6603 -9444.2494 291.1762 513.1594 555.1625 42962.6410 513.1594 555.1625
ENERGY: 100000 0.3834 0.7465 3.4046 0.0000 -14028.0321 2374.7755 0.0000 0.0000 171.5882 -11477.1338 29.4399 -11648.7220 -11476.7195 30.9209 -681.4326 -645.6676 28566.4858 4.2038 4.1800
TCL: Running 100000 steps at 60 kelvin.
TCL: Setting parameter langevinTemp to 60
TCL: Running for 100000 steps
ETITLE: TS BOND ANGLE DIHED IMPRP ELECT VDW BOUNDARY MISC KINETIC TOTAL TEMP POTENTIAL TOTAL3 TEMPAVG PRESSURE GPRESSURE VOLUME PRESSAVG GPRESSAVG
ENERGY: 100000 0.3834 0.7465 3.4046 0.0000 -14028.0321 2374.7755 0.0000 0.0000 171.5025 -11477.2195 29.4252 -11648.7220 -11476.7765 29.4252 -693.1546 -645.7751 28566.4858 -693.1546 -645.7751
ENERGY: 200000 0.3660 1.2177 3.5973 0.0000 -14012.1461 2441.3601 0.0000 0.0000 360.2326 -11205.3723 61.8061 -11565.6049 -11204.4423 59.8159 344.1492 401.3487 28281.4271 4.7403 4.6467
TCL: Running 100000 steps at 90 kelvin.
TCL: Setting parameter langevinTemp to 90
TCL: Running for 100000 steps
ETITLE: TS BOND ANGLE DIHED IMPRP ELECT VDW BOUNDARY MISC KINETIC TOTAL TEMP POTENTIAL TOTAL3 TEMPAVG PRESSURE GPRESSURE VOLUME PRESSAVG GPRESSAVG
ENERGY: 200000 0.3660 1.2177 3.5973 0.0000 -14012.1461 2441.3601 0.0000 0.0000 360.0590 -11205.5459 61.7763 -11565.6049 -11204.8159 61.7763 364.4343 401.3279 28281.4271 364.4343 401.3279
ENERGY: 300000 1.5811 2.2063 3.4048 0.0000 -13899.1228 2413.9944 0.0000 0.0000 516.3555 -10961.5807 88.5925 -11477.9362 -10959.3902 90.1731 219.4785 257.4157 28656.7593 2.0601 1.9158
TCL: Running 100000 steps at 120 kelvin.
TCL: Setting parameter langevinTemp to 120
TCL: Running for 100000 steps
ETITLE: TS BOND ANGLE DIHED IMPRP ELECT VDW BOUNDARY MISC KINETIC TOTAL TEMP POTENTIAL TOTAL3 TEMPAVG PRESSURE GPRESSURE VOLUME PRESSAVG GPRESSAVG
ENERGY: 300000 1.5811 2.2063 3.4048 0.0000 -13899.1228 2413.9944 0.0000 0.0000 516.0855 -10961.8507 88.5462 -11477.9362 -10960.8355 88.5462 206.2694 257.8159 28656.7593 206.2694 257.8159
ENERGY: 400000 1.0579 2.3382 3.9817 0.0000 -13635.8773 2289.0601 0.0000 0.0000 729.3792 -10610.0603 125.1416 -11339.4395 -10608.1363 120.1661 -303.6682 -239.1549 28794.6533 2.9202 3.0233
TCL: Running 100000 steps at 150 kelvin.
TCL: Setting parameter langevinTemp to 150
TCL: Running for 100000 steps
ETITLE: TS BOND ANGLE DIHED IMPRP ELECT VDW BOUNDARY MISC KINETIC TOTAL TEMP POTENTIAL TOTAL3 TEMPAVG PRESSURE GPRESSURE VOLUME PRESSAVG GPRESSAVG
ENERGY: 400000 1.0579 2.3382 3.9817 0.0000 -13635.8773 2289.0601 0.0000 0.0000 729.0283 -10610.4112 125.0814 -11339.4395 -10609.0945 125.0814 -286.7765 -238.8962 28794.6533 -286.7765 -238.8962
ENERGY: 500000 1.4471 2.9042 3.7109 0.0000 -13553.3244 2360.5757 0.0000 0.0000 871.2216 -10313.4650 149.4779 -11184.6866 -10310.1074 150.0764 927.5996 961.6392 28511.6721 4.6825 4.8112
TCL: Running 100000 steps at 180 kelvin.
TCL: Setting parameter langevinTemp to 180
TCL: Running for 100000 steps
ETITLE: TS BOND ANGLE DIHED IMPRP ELECT VDW BOUNDARY MISC KINETIC TOTAL TEMP POTENTIAL TOTAL3 TEMPAVG PRESSURE GPRESSURE VOLUME PRESSAVG GPRESSAVG
ENERGY: 500000 1.4471 2.9042 3.7109 0.0000 -13553.3244 2360.5757 0.0000 0.0000 870.7965 -10313.8901 149.4050 -11184.6866 -10312.2132 149.4050 912.2846 963.0551 28511.6721 912.2846 963.0551
ENERGY: 600000 0.7597 4.8298 4.2148 0.0000 -12908.9592 2044.7152 0.0000 0.0000 1055.6252 -9798.8145 181.1165 -10854.4397 -9796.3049 180.0595 -330.7921 -315.3190 28710.4547 4.1988 4.2254
TCL: Running 100000 steps at 210 kelvin.
TCL: Setting parameter langevinTemp to 210
TCL: Running for 100000 steps
ETITLE: TS BOND ANGLE DIHED IMPRP ELECT VDW BOUNDARY MISC KINETIC TOTAL TEMP POTENTIAL TOTAL3 TEMPAVG PRESSURE GPRESSURE VOLUME PRESSAVG GPRESSAVG
ENERGY: 600000 0.7597 4.8298 4.2148 0.0000 -12908.9592 2044.7152 0.0000 0.0000 1055.1158 -9799.3239 181.0291 -10854.4397 -9797.3327 181.0291 -385.5872 -316.5418 28710.4547 -385.5872 -316.5418
ENERGY: 700000 1.4709 2.8050 3.4039 0.0000 -12212.4367 1824.6594 0.0000 0.0000 1207.2641 -9172.8333 207.1336 -10380.0974 -9169.5263 209.8834 -333.6741 -221.0151 28273.9901 3.1920 2.9768
TCL: Running 100000 steps at 240 kelvin.
TCL: Setting parameter langevinTemp to 240
TCL: Running for 100000 steps
ETITLE: TS BOND ANGLE DIHED IMPRP ELECT VDW BOUNDARY MISC KINETIC TOTAL TEMP POTENTIAL TOTAL3 TEMPAVG PRESSURE GPRESSURE VOLUME PRESSAVG GPRESSAVG
ENERGY: 700000 1.4709 2.8050 3.4039 0.0000 -12212.4367 1824.6594 0.0000 0.0000 1206.6604 -9173.4370 207.0301 -10380.0974 -9171.7098 207.0301 -303.8568 -219.8183 28273.9901 -303.8568 -219.8183
ENERGY: 800000 1.2676 5.4097 3.7848 0.0000 -11811.3575 1754.3131 0.0000 0.0000 1356.3210 -8690.2614 232.7077 -10046.5823 -8687.3860 239.1861 165.7670 142.3458 28790.1447 2.4589 2.3583
TCL: Running 100000 steps at 270 kelvin.
TCL: Setting parameter langevinTemp to 270
TCL: Running for 100000 steps
ETITLE: TS BOND ANGLE DIHED IMPRP ELECT VDW BOUNDARY MISC KINETIC TOTAL TEMP POTENTIAL TOTAL3 TEMPAVG PRESSURE GPRESSURE VOLUME PRESSAVG GPRESSAVG
ENERGY: 800000 1.2676 5.4097 3.7848 0.0000 -11811.3575 1754.3131 0.0000 0.0000 1355.6535 -8690.9288 232.5932 -10046.5823 -8688.3562 232.5932 71.7181 141.0568 28790.1447 71.7181 141.0568
ENERGY: 900000 0.2741 4.2184 3.8039 0.0000 -11043.0059 1463.2438 0.0000 0.0000 1565.0158 -8006.4500 268.5141 -9571.4658 -8004.0743 271.1349 -797.1869 -754.9259 29572.4995 2.7721 2.7141
TCL: Running 1000000 steps at 300 kelvin.
TCL: Setting parameter langevinTemp to 300
TCL: Running for 1000000 steps
ETITLE: TS BOND ANGLE DIHED IMPRP ELECT VDW BOUNDARY MISC KINETIC TOTAL TEMP POTENTIAL TOTAL3 TEMPAVG PRESSURE GPRESSURE VOLUME PRESSAVG GPRESSAVG
ENERGY: 900000 0.2741 4.2184 3.8039 0.0000 -11043.0059 1463.2438 0.0000 0.0000 1564.2229 -8007.2429 268.3780 -9571.4658 -8004.1365 268.3780 -835.9752 -757.1883 29572.4995 -835.9752 -757.1883
ENERGY: 1100000 0.8440 7.6870 3.8609 0.0000 -10716.0853 1468.4134 0.0000 0.0000 1743.7994 -7491.4805 299.1885 -9235.2800 -7487.1448 299.9086 211.6628 306.4280 30037.1677 3.8965 4.0234
ENERGY: 1300000 3.1383 7.8726 3.6355 0.0000 -10611.8531 1420.9154 0.0000 0.0000 1789.7402 -7386.5512 307.0707 -9176.2914 -7384.3959 300.5791 -309.9865 -284.6144 30578.3476 4.1172 3.9876
ENERGY: 1500000 2.7702 4.3082 4.1738 0.0000 -10563.1017 1365.7489 0.0000 0.0000 1719.4942 -7466.6063 295.0184 -9186.1005 -7462.4808 300.2410 -735.2535 -644.5431 30321.0052 3.5171 3.6729
ENERGY: 1700000 1.3265 5.3188 3.6204 0.0000 -10605.6765 1430.9429 0.0000 0.0000 1715.1753 -7449.2925 294.2773 -9164.4678 -7446.4616 300.5050 -249.8137 -149.2537 30486.0066 2.0076 1.7758
ENERGY: 1900000 2.5488 3.3738 4.2929 0.0000 -10602.5106 1427.7269 0.0000 0.0000 1730.9981 -7433.5701 296.9921 -9164.5682 -7428.6854 299.3060 -249.3127 -224.9114 30487.9636 2.8110 2.8639
TCL: Exiting due to exit command.
