Info: SIMULATION PARAMETERS:
Info: TIMESTEP               2
Info: NUMBER OF STEPS        0
Info: STEPS PER CYCLE        10
Info: PERIODIC CELL BASIS 1  35.89 0 0
Info: PERIODIC CELL BASIS 2  0 35.267 0
Info: PERIODIC CELL BASIS 3  0 0 35.723
Info: PERIODIC CELL CENTER   0 0 0
Info: WRAPPING WATERS AROUND PERIODIC BOUNDARIES ON OUTPUT.
Info: WRAPPING ALL CLUSTERS AROUND PERIODIC BOUNDARIES ON OUTPUT.
Info: FIRST LDB TIMESTEP     50
Info: LAST LDB TIMESTEP     -1
Info: HOM BACKGROUND SCALING 1
Info: PME BACKGROUND SCALING 1
Info: MIN ATOMS PER PATCH    40
Info: EMPTY PATCH LOAD       40 ATOMS
Info: INITIAL TEMPERATURE    300
Info: CENTER OF MASS MOVING INITIALLY? NO
Info: DIELECTRIC             1
Info: EXCLUDE                SCALED ONE-FOUR
Info: 1-4 ELECTROSTATICS SCALED BY 0.833333
Info: MODIFIED 1-4 VDW PARAMETERS WILL BE USED
Info: DCD FILENAME           mobley_8916409_equil.dcd
Info: DCD FREQUENCY          100000
Info: DCD FIRST STEP         100000
Info: DCD FILE WILL CONTAIN UNIT CELL DATA
Info: XST FILENAME           mobley_8916409_equil.xst
Info: XST FREQUENCY          100000
Info: NO VELOCITY DCD OUTPUT
Info: NO FORCE DCD OUTPUT
Info: OUTPUT FILENAME        mobley_8916409_equil
Info: BINARY OUTPUT FILES WILL BE USED
Info: RESTART FILENAME       mobley_8916409_equil.restart
Info: RESTART FREQUENCY      100000
Info: BINARY RESTART FILES WILL BE USED
Info: CUTOFF                 9
Info: PAIRLIST DISTANCE      11
Info: PAIRLIST SHRINK RATE   0.01
Info: PAIRLIST GROW RATE     0.01
Info: PAIRLIST TRIGGER       0.3
Info: PAIRLISTS PER CYCLE    2
Info: PAIRLISTS ENABLED
Info: MARGIN                 8
Info: HYDROGEN GROUP CUTOFF  2.5
Info: PATCH DIMENSION        21.5
Info: ENERGY OUTPUT STEPS    100000
Info: ENERGY EVALUATION STEPS    100000
Info: OUTPUT ENERGY PRECISION 4
Info: CROSSTERM ENERGY INCLUDED IN DIHEDRAL
Info: TIMING OUTPUT STEPS    1000000
Info: PRESSURE OUTPUT STEPS  100000
Info: LANGEVIN DYNAMICS ACTIVE
Info: LANGEVIN TEMPERATURE   30
Info: LANGEVIN USING BBK INTEGRATOR
Info: LANGEVIN DAMPING COEFFICIENT IS 1 INVERSE PS
Info: LANGEVIN DYNAMICS APPLIED TO HYDROGENS
Info: LANGEVIN PISTON PRESSURE CONTROL ACTIVE
Info:        TARGET PRESSURE IS 1.01325 BAR
Info:     OSCILLATION PERIOD IS 50 FS
Info:             DECAY TIME IS 25 FS
Info:     PISTON TEMPERATURE IS 300 K
Info:       PRESSURE CONTROL IS GROUP-BASED
Info:    INITIAL STRAIN RATE IS 0 0 0
Info:       CELL FLUCTUATION IS ISOTROPIC
Info: PARTICLE MESH EWALD (PME) ACTIVE
Info: PME TOLERANCE               1e-06
Info: PME EWALD COEFFICIENT       0.348832
Info: PME INTERPOLATION ORDER     4
Info: PME GRID DIMENSIONS         36 36 36
Info: PME MAXIMUM GRID SPACING    1
Info: FULL ELECTROSTATIC EVALUATION FREQUENCY      2
Info: USING VERLET I (r-RESPA) MTS SCHEME.
Info: C1 SPLITTING OF LONG RANGE ELECTROSTATICS
Info: PLACING ATOMS IN PATCHES BY HYDROGEN GROUPS
Info: RIGID BONDS TO HYDROGEN : ALL
Info:         ERROR TOLERANCE : 1e-08
Info:          MAX ITERATIONS : 100
Info: RIGID WATER USING SETTLE ALGORITHM
Info: RANDOM NUMBER SEED     1743377047
Info: USE HYDROGEN BONDS?    NO
Info: Using AMBER format force field!
Info: AMBER PARM FILE        mobley_8916409.prmtop
Info: COORDINATE PDB         mobley_8916409.pdb
Info: Exclusions will be read from PARM file!
Info: SCNB (VDW SCALING)     2
Info: USING ARITHMETIC MEAN TO COMBINE L-J SIGMA PARAMETERS
Info: BINARY COORDINATES     mobley_8916409_min.coor
Info: SUMMARY OF PARAMETERS:
Info: 13 BONDS
Info: 22 ANGLES
Info:   22 HARMONIC
Info:   0 COSINE-BASED
Info: 20 DIHEDRAL
Info: 0 IMPROPER
Info: 0 CROSSTERM
Info: 0 VDW
Info: 55 VDW_PAIRS
Info: 0 NBTHOLE_PAIRS
Info: STRUCTURE SUMMARY:
Info: 2957 ATOMS
Info: 2956 BONDS
Info: 65 ANGLES
Info: 91 DIHEDRALS
Info: 0 IMPROPERS
Info: 0 CROSSTERMS
Info: 3088 EXCLUSIONS
Info: 2938 RIGID BONDS
Info: 5933 DEGREES OF FREEDOM
Info: 992 HYDROGEN GROUPS
Info: 4 ATOMS IN LARGEST HYDROGEN GROUP
Info: 992 MIGRATION GROUPS
Info: 4 ATOMS IN LARGEST MIGRATION GROUP
Info: TOTAL MASS = 17859.9 amu
Info: TOTAL CHARGE = 7.82311e-08 e
Info: MASS DENSITY = 0.655917 g/cm^3
Info: ATOM DENSITY = 0.0653975 atoms/A^3
Info: ADDED 0 IMPLICIT EXCLUSIONS
Info: NONBONDED TABLE R-SQUARED SPACING: 0.0625
Info: NONBONDED TABLE SIZE: 705 POINTS
Info: REMOVING COM VELOCITY -0.132662 -0.227405 -0.0987621
TCL: Running for 100000 steps
ETITLE: TS BOND ANGLE DIHED IMPRP ELECT VDW BOUNDARY MISC KINETIC TOTAL TEMP POTENTIAL TOTAL3 TEMPAVG PRESSURE GPRESSURE VOLUME PRESSAVG GPRESSAVG
ENERGY: 0 0.3191 2.2192 21.6873 0.0000 -13635.4444 2384.5739 0.0000 0.0000 1730.4793 -9496.1656 293.5502 -11226.6450 -9495.8659 293.5502 475.4694 509.0092 45215.7667 475.4694 509.0092
ENERGY: 100000 1.5996 3.5249 24.2525 0.0000 -14179.0450 2413.7743 0.0000 0.0000 173.9382 -11561.9556 29.5060 -11735.8937 -11561.4807 30.9924 -267.6020 -217.6021 28689.5404 3.8564 3.8443
TCL: Running 100000 steps at 60 kelvin.
TCL: Setting parameter langevinTemp to 60
TCL: Running for 100000 steps
ETITLE: TS BOND ANGLE DIHED IMPRP ELECT VDW BOUNDARY MISC KINETIC TOTAL TEMP POTENTIAL TOTAL3 TEMPAVG PRESSURE GPRESSURE VOLUME PRESSAVG GPRESSAVG
ENERGY: 100000 1.5996 3.5249 24.2525 0.0000 -14179.0450 2413.7743 0.0000 0.0000 173.8492 -11562.0445 29.4909 -11735.8937 -11561.6877 29.4909 -267.0960 -217.6250 28689.5404 -267.0960 -217.6250
ENERGY: 200000 1.7769 4.3456 23.1696 0.0000 -13988.5753 2291.3389 0.0000 0.0000 358.7403 -11309.2040 60.8550 -11667.9443 -11308.2231 60.0000 -889.5125 -867.0623 28660.6777 4.1248 4.0352
TCL: Running 100000 steps at 90 kelvin.
TCL: Setting parameter langevinTemp to 90
TCL: Running for 100000 steps
ETITLE: TS BOND ANGLE DIHED IMPRP ELECT VDW BOUNDARY MISC KINETIC TOTAL TEMP POTENTIAL TOTAL3 TEMPAVG PRESSURE GPRESSURE VOLUME PRESSAVG GPRESSAVG
ENERGY: 200000 1.7769 4.3456 23.1696 0.0000 -13988.5753 2291.3389 0.0000 0.0000 358.5671 -11309.3772 60.8256 -11667.9443 -11308.6152 60.8256 -919.4409 -867.3424 28660.6777 -919.4409 -867.3424
ENERGY: 300000 2.2579 4.7532 24.0934 0.0000 -13854.1812 2223.5260 0.0000 0.0000 539.8538 -11059.6970 91.5782 -11599.5508 -11057.9332 90.0259 -1095.5719 -1016.6004 28269.6471 3.5224 3.5334
TCL: Running 100000 steps at 120 kelvin.
TCL: Setting parameter langevinTemp to 120
TCL: Running for 100000 steps
ETITLE: TS BOND ANGLE DIHED IMPRP ELECT VDW BOUNDARY MISC KINETIC TOTAL TEMP POTENTIAL TOTAL3 TEMPAVG PRESSURE GPRESSURE VOLUME PRESSAVG GPRESSAVG
ENERGY: 300000 2.2579 4.7532 24.0934 0.0000 -13854.1812 2223.5260 0.0000 0.0000 539.5855 -11059.9653 91.5327 -11599.5508 -11058.7289 91.5327 -1086.4771 -1016.2166 28269.6471 -1086.4771 -1016.2166
ENERGY: 400000 2.5814 6.7148 25.5414 0.0000 -13752.8253 2238.4991 0.0000 0.0000 687.3960 -10792.0927 116.6066 -11479.4886 -10791.5806 120.2473 -691.9987 -604.7523 28656.8874 4.4553 4.5060
TCL: Running 100000 steps at 150 kelvin.
TCL: Setting parameter langevinTemp to 150
TCL: Running for 100000 steps
ETITLE: TS BOND ANGLE DIHED IMPRP ELECT VDW BOUNDARY MISC KINETIC TOTAL TEMP POTENTIAL TOTAL3 TEMPAVG PRESSURE GPRESSURE VOLUME PRESSAVG GPRESSAVG
ENERGY: 400000 2.5814 6.7148 25.5414 0.0000 -13752.8253 2238.4991 0.0000 0.0000 687.0433 -10792.4454 116.5467 -11479.4886 -10790.6676 116.5467 -669.4523 -606.6461 28656.8874 -669.4523 -606.6461
ENERGY: 500000 2.8839 9.0586 25.1485 0.0000 -13552.8106 2239.6709 0.0000 0.0000 916.2171 -10359.8316 155.4227 -11276.0487 -10358.0231 149.8055 106.5273 185.8682 28981.8527 3.8116 3.8573
TCL: Running 100000 steps at 180 kelvin.
TCL: Setting parameter langevinTemp to 180
TCL: Running for 100000 steps
ETITLE: TS BOND ANGLE DIHED IMPRP ELECT VDW BOUNDARY MISC KINETIC TOTAL TEMP POTENTIAL TOTAL3 TEMPAVG PRESSURE GPRESSURE VOLUME PRESSAVG GPRESSAVG
ENERGY: 500000 2.8839 9.0586 25.1485 0.0000 -13552.8106 2239.6709 0.0000 0.0000 915.7905 -10360.2583 155.3503 -11276.0487 -10358.1573 155.3503 128.8410 185.2686 28981.8527 128.8410 185.2686
ENERGY: 600000 2.2012 9.2074 22.2390 0.0000 -13072.4072 2053.1242 0.0000 0.0000 1071.2576 -9914.3778 181.7230 -10985.6354 -9910.5386 180.0141 -444.3081 -327.7737 29028.8096 3.1627 3.0530
TCL: Running 100000 steps at 210 kelvin.
TCL: Setting parameter langevinTemp to 210
TCL: Running for 100000 steps
ETITLE: TS BOND ANGLE DIHED IMPRP ELECT VDW BOUNDARY MISC KINETIC TOTAL TEMP POTENTIAL TOTAL3 TEMPAVG PRESSURE GPRESSURE VOLUME PRESSAVG GPRESSAVG
ENERGY: 600000 2.2012 9.2074 22.2390 0.0000 -13072.4072 2053.1242 0.0000 0.0000 1070.7019 -9914.9335 181.6287 -10985.6354 -9912.5251 181.6287 -408.7018 -325.6885 29028.8096 -408.7018 -325.6885
ENERGY: 700000 6.3817 10.7609 22.2984 0.0000 -12356.5110 1783.3197 0.0000 0.0000 1225.6460 -9308.1043 207.9127 -10533.7503 -9304.7362 209.4443 -886.2270 -824.2656 29135.1224 2.7613 2.6919
TCL: Running 100000 steps at 240 kelvin.
TCL: Setting parameter langevinTemp to 240
TCL: Running for 100000 steps
ETITLE: TS BOND ANGLE DIHED IMPRP ELECT VDW BOUNDARY MISC KINETIC TOTAL TEMP POTENTIAL TOTAL3 TEMPAVG PRESSURE GPRESSURE VOLUME PRESSAVG GPRESSAVG
ENERGY: 700000 6.3817 10.7609 22.2984 0.0000 -12356.5110 1783.3197 0.0000 0.0000 1225.0312 -9308.7191 207.8084 -10533.7503 -9306.0207 207.8084 -897.1575 -823.2227 29135.1224 -897.1575 -823.2227
ENERGY: 800000 5.7180 13.8648 21.5794 0.0000 -11673.1366 1582.2545 0.0000 0.0000 1474.4592 -8575.2606 250.1202 -10049.7198 -8572.1826 240.2266 -670.7416 -609.6215 29046.3782 4.2268 4.1941
TCL: Running 100000 steps at 270 kelvin.
TCL: Setting parameter langevinTemp to 270
TCL: Running for 100000 steps
ETITLE: TS BOND ANGLE DIHED IMPRP ELECT VDW BOUNDARY MISC KINETIC TOTAL TEMP POTENTIAL TOTAL3 TEMPAVG PRESSURE GPRESSURE VOLUME PRESSAVG GPRESSAVG
ENERGY: 800000 5.7180 13.8648 21.5794 0.0000 -11673.1366 1582.2545 0.0000 0.0000 1473.7641 -8575.9558 250.0023 -10049.7198 -8572.7156 250.0023 -684.4301 -610.4449 29046.3782 -684.4301 -610.4449
ENERGY: 900000 3.6982 17.4725 23.2440 0.0000 -11226.0079 1506.4330 0.0000 0.0000 1588.7977 -8086.3625 269.5161 -9675.1602 -8083.9854 269.6958 -408.4761 -346.9526 29620.7728 3.9258 3.9595
TCL: Running 1000000 steps at 300 kelvin.
TCL: Setting parameter langevinTemp to 300
TCL: Running for 1000000 steps
ETITLE: TS BOND ANGLE DIHED IMPRP ELECT VDW BOUNDARY MISC KINETIC TOTAL TEMP POTENTIAL TOTAL3 TEMPAVG PRESSURE GPRESSURE VOLUME PRESSAVG GPRESSAVG
ENERGY: 900000 3.6982 17.4725 23.2440 0.0000 -11226.0079 1506.4330 0.0000 0.0000 1587.9978 -8087.1624 269.3804 -9675.1602 -8084.3866 269.3804 -427.6913 -347.8391 29620.7728 -427.6913 -347.8391
ENERGY: 1100000 7.6691 11.9602 24.4391 0.0000 -10801.1330 1431.0753 0.0000 0.0000 1719.6602 -7606.3289 291.7149 -9325.9891 -7602.4626 300.5827 -236.3012 -145.2434 30507.2603 3.3229 3.4024
ENERGY: 1300000 6.2071 24.6960 24.8024 0.0000 -10804.5717 1538.4985 0.0000 0.0000 1783.3040 -7427.0636 302.5112 -9210.3676 -7422.6584 300.6294 756.5594 810.6018 30725.3686 3.3954 3.4116
ENERGY: 1500000 2.5614 16.8321 24.5296 0.0000 -10717.2199 1384.3699 0.0000 0.0000 1818.1220 -7470.8050 308.4175 -9288.9270 -7466.9859 300.3702 -524.5618 -505.7692 30717.0979 3.7871 3.8676
ENERGY: 1700000 10.9188 22.6751 22.7700 0.0000 -10769.9437 1420.9405 0.0000 0.0000 1747.2212 -7545.4181 296.3903 -9292.6393 -7541.0883 299.9147 -67.1368 -16.9345 30142.0624 3.3969 3.4577
ENERGY: 1900000 3.7646 19.2160 22.6556 0.0000 -10644.7784 1387.9402 0.0000 0.0000 1756.7577 -7454.4444 298.0080 -9211.2020 -7452.7309 300.3316 -251.2206 -163.7868 30608.8567 2.8193 2.8487
TCL: Exiting due to exit command.
