Info: SIMULATION PARAMETERS:
Info: TIMESTEP               2
Info: NUMBER OF STEPS        0
Info: STEPS PER CYCLE        10
Info: PERIODIC CELL BASIS 1  34.986 0 0
Info: PERIODIC CELL BASIS 2  0 31.785 0
Info: PERIODIC CELL BASIS 3  0 0 39.119
Info: PERIODIC CELL CENTER   0 0 0
Info: WRAPPING WATERS AROUND PERIODIC BOUNDARIES ON OUTPUT.
Info: WRAPPING ALL CLUSTERS AROUND PERIODIC BOUNDARIES ON OUTPUT.
Info: FIRST LDB TIMESTEP     50
Info: LAST LDB TIMESTEP     -1
Info: HOM BACKGROUND SCALING 1
Info: PME BACKGROUND SCALING 1
Info: MIN ATOMS PER PATCH    40
Info: EMPTY PATCH LOAD       40 ATOMS
Info: INITIAL TEMPERATURE    300
Info: CENTER OF MASS MOVING INITIALLY? NO
Info: DIELECTRIC             1
Info: EXCLUDE                SCALED ONE-FOUR
Info: 1-4 ELECTROSTATICS SCALED BY 0.833333
Info: MODIFIED 1-4 VDW PARAMETERS WILL BE USED
Info: DCD FILENAME           mobley_6619554_equil.dcd
Info: DCD FREQUENCY          100000
Info: DCD FIRST STEP         100000
Info: DCD FILE WILL CONTAIN UNIT CELL DATA
Info: XST FILENAME           mobley_6619554_equil.xst
Info: XST FREQUENCY          100000
Info: NO VELOCITY DCD OUTPUT
Info: NO FORCE DCD OUTPUT
Info: OUTPUT FILENAME        mobley_6619554_equil
Info: BINARY OUTPUT FILES WILL BE USED
Info: RESTART FILENAME       mobley_6619554_equil.restart
Info: RESTART FREQUENCY      100000
Info: BINARY RESTART FILES WILL BE USED
Info: CUTOFF                 9
Info: PAIRLIST DISTANCE      11
Info: PAIRLIST SHRINK RATE   0.01
Info: PAIRLIST GROW RATE     0.01
Info: PAIRLIST TRIGGER       0.3
Info: PAIRLISTS PER CYCLE    2
Info: PAIRLISTS ENABLED
Info: MARGIN                 8
Info: HYDROGEN GROUP CUTOFF  2.5
Info: PATCH DIMENSION        21.5
Info: ENERGY OUTPUT STEPS    100000
Info: ENERGY EVALUATION STEPS    100000
Info: OUTPUT ENERGY PRECISION 4
Info: CROSSTERM ENERGY INCLUDED IN DIHEDRAL
Info: TIMING OUTPUT STEPS    1000000
Info: PRESSURE OUTPUT STEPS  100000
Info: LANGEVIN DYNAMICS ACTIVE
Info: LANGEVIN TEMPERATURE   30
Info: LANGEVIN USING BBK INTEGRATOR
Info: LANGEVIN DAMPING COEFFICIENT IS 1 INVERSE PS
Info: LANGEVIN DYNAMICS APPLIED TO HYDROGENS
Info: LANGEVIN PISTON PRESSURE CONTROL ACTIVE
Info:        TARGET PRESSURE IS 1.01325 BAR
Info:     OSCILLATION PERIOD IS 50 FS
Info:             DECAY TIME IS 25 FS
Info:     PISTON TEMPERATURE IS 300 K
Info:       PRESSURE CONTROL IS GROUP-BASED
Info:    INITIAL STRAIN RATE IS 0 0 0
Info:       CELL FLUCTUATION IS ISOTROPIC
Info: PARTICLE MESH EWALD (PME) ACTIVE
Info: PME TOLERANCE               1e-06
Info: PME EWALD COEFFICIENT       0.348832
Info: PME INTERPOLATION ORDER     4
Info: PME GRID DIMENSIONS         36 32 40
Info: PME MAXIMUM GRID SPACING    1
Info: FULL ELECTROSTATIC EVALUATION FREQUENCY      2
Info: USING VERLET I (r-RESPA) MTS SCHEME.
Info: C1 SPLITTING OF LONG RANGE ELECTROSTATICS
Info: PLACING ATOMS IN PATCHES BY HYDROGEN GROUPS
Info: RIGID BONDS TO HYDROGEN : ALL
Info:         ERROR TOLERANCE : 1e-08
Info:          MAX ITERATIONS : 100
Info: RIGID WATER USING SETTLE ALGORITHM
Info: RANDOM NUMBER SEED     1743256841
Info: USE HYDROGEN BONDS?    NO
Info: Using AMBER format force field!
Info: AMBER PARM FILE        mobley_6619554.prmtop
Info: COORDINATE PDB         mobley_6619554.pdb
Info: Exclusions will be read from PARM file!
Info: SCNB (VDW SCALING)     2
Info: USING ARITHMETIC MEAN TO COMBINE L-J SIGMA PARAMETERS
Info: BINARY COORDINATES     mobley_6619554_min.coor
Info: SUMMARY OF PARAMETERS:
Info: 9 BONDS
Info: 13 ANGLES
Info:   13 HARMONIC
Info:   0 COSINE-BASED
Info: 20 DIHEDRAL
Info: 0 IMPROPER
Info: 0 CROSSTERM
Info: 0 VDW
Info: 36 VDW_PAIRS
Info: 0 NBTHOLE_PAIRS
Info: STRUCTURE SUMMARY:
Info: 2951 ATOMS
Info: 2950 BONDS
Info: 40 ANGLES
Info: 61 DIHEDRALS
Info: 0 IMPROPERS
Info: 0 CROSSTERMS
Info: 3037 EXCLUSIONS
Info: 2942 RIGID BONDS
Info: 5911 DEGREES OF FREEDOM
Info: 985 HYDROGEN GROUPS
Info: 4 ATOMS IN LARGEST HYDROGEN GROUP
Info: 985 MIGRATION GROUPS
Info: 4 ATOMS IN LARGEST MIGRATION GROUP
Info: TOTAL MASS = 17713.8 amu
Info: TOTAL CHARGE = 0.00010005 e
Info: MASS DENSITY = 0.676187 g/cm^3
Info: ATOM DENSITY = 0.0678367 atoms/A^3
Info: ADDED 0 IMPLICIT EXCLUSIONS
Info: NONBONDED TABLE R-SQUARED SPACING: 0.0625
Info: NONBONDED TABLE SIZE: 705 POINTS
Info: REMOVING COM VELOCITY 0.194441 0.0511849 0.0662351
TCL: Running for 100000 steps
ETITLE: TS BOND ANGLE DIHED IMPRP ELECT VDW BOUNDARY MISC KINETIC TOTAL TEMP POTENTIAL TOTAL3 TEMPAVG PRESSURE GPRESSURE VOLUME PRESSAVG GPRESSAVG
ENERGY: 0 0.1523 0.4094 3.6899 0.0000 -13623.3867 2410.7817 0.0000 0.0000 1768.8261 -9439.5273 301.1720 -11208.3534 -9439.2054 301.1720 468.5433 509.4004 43501.5020 468.5433 509.4004
ENERGY: 100000 0.3009 2.2201 4.0556 0.0000 -14226.1912 2477.9104 0.0000 0.0000 173.8109 -11567.8933 29.5942 -11741.7042 -11567.5281 30.9632 -270.3348 -225.0225 29249.4131 3.5742 3.5466
TCL: Running 100000 steps at 60 kelvin.
TCL: Setting parameter langevinTemp to 60
TCL: Running for 100000 steps
ETITLE: TS BOND ANGLE DIHED IMPRP ELECT VDW BOUNDARY MISC KINETIC TOTAL TEMP POTENTIAL TOTAL3 TEMPAVG PRESSURE GPRESSURE VOLUME PRESSAVG GPRESSAVG
ENERGY: 100000 0.3009 2.2201 4.0556 0.0000 -14226.1912 2477.9104 0.0000 0.0000 173.7279 -11567.9763 29.5800 -11741.7042 -11567.5589 29.5800 -269.2075 -225.1546 29249.4131 -269.2075 -225.1546
ENERGY: 200000 0.7292 2.1004 4.2666 0.0000 -14067.7334 2395.5218 0.0000 0.0000 350.3744 -11314.7410 59.6570 -11665.1154 -11314.1546 59.9486 -461.8875 -393.3544 28907.7583 4.1496 4.1002
TCL: Running 100000 steps at 90 kelvin.
TCL: Setting parameter langevinTemp to 90
TCL: Running for 100000 steps
ETITLE: TS BOND ANGLE DIHED IMPRP ELECT VDW BOUNDARY MISC KINETIC TOTAL TEMP POTENTIAL TOTAL3 TEMPAVG PRESSURE GPRESSURE VOLUME PRESSAVG GPRESSAVG
ENERGY: 200000 0.7292 2.1004 4.2666 0.0000 -14067.7334 2395.5218 0.0000 0.0000 350.2044 -11314.9109 59.6281 -11665.1154 -11314.0907 59.6281 -448.3020 -393.4516 28907.7583 -448.3020 -393.4516
ENERGY: 300000 0.3519 3.6576 5.6548 0.0000 -13996.9362 2427.5618 0.0000 0.0000 518.1777 -11041.5325 88.2283 -11559.7101 -11040.1318 90.0089 408.5234 473.8060 28516.7391 4.2216 4.1511
TCL: Running 100000 steps at 120 kelvin.
TCL: Setting parameter langevinTemp to 120
TCL: Running for 100000 steps
ETITLE: TS BOND ANGLE DIHED IMPRP ELECT VDW BOUNDARY MISC KINETIC TOTAL TEMP POTENTIAL TOTAL3 TEMPAVG PRESSURE GPRESSURE VOLUME PRESSAVG GPRESSAVG
ENERGY: 300000 0.3519 3.6576 5.6548 0.0000 -13996.9362 2427.5618 0.0000 0.0000 517.9115 -11041.7986 88.1830 -11559.7101 -11040.5522 88.1830 414.1664 474.4822 28516.7391 414.1664 474.4822
ENERGY: 400000 1.7109 3.8673 4.1987 0.0000 -13730.8187 2275.4574 0.0000 0.0000 704.0507 -10741.5336 119.8763 -11445.5843 -10739.1385 120.1444 -493.7993 -401.3439 28749.7736 4.7512 4.7102
TCL: Running 100000 steps at 150 kelvin.
TCL: Setting parameter langevinTemp to 150
TCL: Running for 100000 steps
ETITLE: TS BOND ANGLE DIHED IMPRP ELECT VDW BOUNDARY MISC KINETIC TOTAL TEMP POTENTIAL TOTAL3 TEMPAVG PRESSURE GPRESSURE VOLUME PRESSAVG GPRESSAVG
ENERGY: 400000 1.7109 3.8673 4.1987 0.0000 -13730.8187 2275.4574 0.0000 0.0000 703.6994 -10741.8849 119.8165 -11445.5843 -10740.3107 119.8165 -446.5316 -401.3241 28749.7736 -446.5316 -401.3241
ENERGY: 500000 2.1171 6.1010 4.6313 0.0000 -13442.9555 2175.0657 0.0000 0.0000 895.7242 -10359.3161 152.5119 -11255.0403 -10358.1076 149.7605 -477.3019 -466.8061 28783.0327 4.1001 4.1917
TCL: Running 100000 steps at 180 kelvin.
TCL: Setting parameter langevinTemp to 180
TCL: Running for 100000 steps
ETITLE: TS BOND ANGLE DIHED IMPRP ELECT VDW BOUNDARY MISC KINETIC TOTAL TEMP POTENTIAL TOTAL3 TEMPAVG PRESSURE GPRESSURE VOLUME PRESSAVG GPRESSAVG
ENERGY: 500000 2.1171 6.1010 4.6313 0.0000 -13442.9555 2175.0657 0.0000 0.0000 895.2772 -10359.7632 152.4358 -11255.0403 -10358.0910 152.4358 -509.3607 -467.6359 28783.0327 -509.3607 -467.6359
ENERGY: 600000 0.3910 5.1480 4.8969 0.0000 -13096.4249 2148.4892 0.0000 0.0000 1040.8920 -9896.6078 177.2291 -10937.4999 -9894.2022 180.1915 562.2538 619.8078 28615.7573 3.8175 3.7495
TCL: Running 100000 steps at 210 kelvin.
TCL: Setting parameter langevinTemp to 210
TCL: Running for 100000 steps
ETITLE: TS BOND ANGLE DIHED IMPRP ELECT VDW BOUNDARY MISC KINETIC TOTAL TEMP POTENTIAL TOTAL3 TEMPAVG PRESSURE GPRESSURE VOLUME PRESSAVG GPRESSAVG
ENERGY: 600000 0.3910 5.1480 4.8969 0.0000 -13096.4249 2148.4892 0.0000 0.0000 1040.3529 -9897.1470 177.1373 -10937.4999 -9895.2891 177.1373 560.5699 620.0832 28615.7573 560.5699 620.0832
ENERGY: 700000 2.7404 9.5432 5.0763 0.0000 -12291.7902 1818.9840 0.0000 0.0000 1180.8630 -9274.5834 201.0615 -10455.4463 -9272.7773 209.8811 -530.8662 -409.2681 28691.5716 4.6018 4.6250
TCL: Running 100000 steps at 240 kelvin.
TCL: Setting parameter langevinTemp to 240
TCL: Running for 100000 steps
ETITLE: TS BOND ANGLE DIHED IMPRP ELECT VDW BOUNDARY MISC KINETIC TOTAL TEMP POTENTIAL TOTAL3 TEMPAVG PRESSURE GPRESSURE VOLUME PRESSAVG GPRESSAVG
ENERGY: 700000 2.7404 9.5432 5.0763 0.0000 -12291.7902 1818.9840 0.0000 0.0000 1180.2155 -9275.2308 200.9513 -10455.4463 -9273.4204 200.9513 -491.3001 -409.7657 28691.5716 -491.3001 -409.7657
ENERGY: 800000 0.9441 8.8703 6.3754 0.0000 -11775.9060 1720.5966 0.0000 0.0000 1399.3581 -8639.7615 238.2639 -10039.1196 -8636.4827 240.2089 446.7774 569.2819 28334.6649 3.5568 3.5793
TCL: Running 100000 steps at 270 kelvin.
TCL: Setting parameter langevinTemp to 270
TCL: Running for 100000 steps
ETITLE: TS BOND ANGLE DIHED IMPRP ELECT VDW BOUNDARY MISC KINETIC TOTAL TEMP POTENTIAL TOTAL3 TEMPAVG PRESSURE GPRESSURE VOLUME PRESSAVG GPRESSAVG
ENERGY: 800000 0.9441 8.8703 6.3754 0.0000 -11775.9060 1720.5966 0.0000 0.0000 1398.6680 -8640.4516 238.1464 -10039.1196 -8637.8500 238.1464 490.5736 569.1447 28334.6649 490.5736 569.1447
ENERGY: 900000 2.7551 7.5122 3.8498 0.0000 -11209.3981 1565.3401 0.0000 0.0000 1557.4822 -8072.4587 265.1872 -9629.9409 -8068.7458 269.5552 99.3839 144.2693 29574.7785 2.9099 2.9147
TCL: Running 1000000 steps at 300 kelvin.
TCL: Setting parameter langevinTemp to 300
TCL: Running for 1000000 steps
ETITLE: TS BOND ANGLE DIHED IMPRP ELECT VDW BOUNDARY MISC KINETIC TOTAL TEMP POTENTIAL TOTAL3 TEMPAVG PRESSURE GPRESSURE VOLUME PRESSAVG GPRESSAVG
ENERGY: 900000 2.7551 7.5122 3.8498 0.0000 -11209.3981 1565.3401 0.0000 0.0000 1556.7135 -8073.2273 265.0563 -9629.9409 -8070.2342 265.0563 71.1432 142.8663 29574.7785 71.1432 142.8663
ENERGY: 1100000 1.6950 7.9558 6.9472 0.0000 -10795.2427 1442.3842 0.0000 0.0000 1759.9638 -7576.2967 299.6630 -9336.2605 -7574.3968 299.8527 -283.4810 -182.6850 30369.9342 2.7127 2.8510
ENERGY: 1300000 2.0317 9.5149 5.7568 0.0000 -10551.6067 1330.4933 0.0000 0.0000 1829.8911 -7373.9187 311.5693 -9203.8099 -7369.4567 300.4679 -606.7491 -553.2566 30459.6687 3.7755 3.8331
ENERGY: 1500000 3.4798 7.5846 5.6595 0.0000 -10618.8660 1398.0995 0.0000 0.0000 1781.2674 -7422.7752 303.2903 -9204.0426 -7417.8785 300.3696 -132.7690 -33.3183 30712.4661 4.4433 4.4381
ENERGY: 1700000 1.9811 8.7521 6.0483 0.0000 -10751.7715 1519.1385 0.0000 0.0000 1789.2587 -7426.5929 304.6510 -9215.8516 -7419.0993 299.8703 904.7920 1047.7056 29726.1016 4.9874 5.0853
ENERGY: 1900000 1.9958 11.2044 5.8238 0.0000 -10634.0107 1436.4818 0.0000 0.0000 1779.9027 -7398.6022 303.0580 -9178.5049 -7393.4583 300.4673 179.4268 310.9098 30381.8796 1.8796 1.7968
TCL: Exiting due to exit command.
