Info: SIMULATION PARAMETERS:
Info: TIMESTEP               2
Info: NUMBER OF STEPS        0
Info: STEPS PER CYCLE        10
Info: PERIODIC CELL BASIS 1  35.89 0 0
Info: PERIODIC CELL BASIS 2  0 35.411 0
Info: PERIODIC CELL BASIS 3  0 0 34.954
Info: PERIODIC CELL CENTER   0 0 0
Info: WRAPPING WATERS AROUND PERIODIC BOUNDARIES ON OUTPUT.
Info: WRAPPING ALL CLUSTERS AROUND PERIODIC BOUNDARIES ON OUTPUT.
Info: FIRST LDB TIMESTEP     50
Info: LAST LDB TIMESTEP     -1
Info: HOM BACKGROUND SCALING 1
Info: PME BACKGROUND SCALING 1
Info: MIN ATOMS PER PATCH    40
Info: EMPTY PATCH LOAD       40 ATOMS
Info: INITIAL TEMPERATURE    300
Info: CENTER OF MASS MOVING INITIALLY? NO
Info: DIELECTRIC             1
Info: EXCLUDE                SCALED ONE-FOUR
Info: 1-4 ELECTROSTATICS SCALED BY 0.833333
Info: MODIFIED 1-4 VDW PARAMETERS WILL BE USED
Info: DCD FILENAME           mobley_4561957_equil.dcd
Info: DCD FREQUENCY          100000
Info: DCD FIRST STEP         100000
Info: DCD FILE WILL CONTAIN UNIT CELL DATA
Info: XST FILENAME           mobley_4561957_equil.xst
Info: XST FREQUENCY          100000
Info: NO VELOCITY DCD OUTPUT
Info: NO FORCE DCD OUTPUT
Info: OUTPUT FILENAME        mobley_4561957_equil
Info: BINARY OUTPUT FILES WILL BE USED
Info: RESTART FILENAME       mobley_4561957_equil.restart
Info: RESTART FREQUENCY      100000
Info: BINARY RESTART FILES WILL BE USED
Info: CUTOFF                 9
Info: PAIRLIST DISTANCE      11
Info: PAIRLIST SHRINK RATE   0.01
Info: PAIRLIST GROW RATE     0.01
Info: PAIRLIST TRIGGER       0.3
Info: PAIRLISTS PER CYCLE    2
Info: PAIRLISTS ENABLED
Info: MARGIN                 8
Info: HYDROGEN GROUP CUTOFF  2.5
Info: PATCH DIMENSION        21.5
Info: ENERGY OUTPUT STEPS    100000
Info: ENERGY EVALUATION STEPS    100000
Info: OUTPUT ENERGY PRECISION 4
Info: CROSSTERM ENERGY INCLUDED IN DIHEDRAL
Info: TIMING OUTPUT STEPS    1000000
Info: PRESSURE OUTPUT STEPS  100000
Info: LANGEVIN DYNAMICS ACTIVE
Info: LANGEVIN TEMPERATURE   30
Info: LANGEVIN USING BBK INTEGRATOR
Info: LANGEVIN DAMPING COEFFICIENT IS 1 INVERSE PS
Info: LANGEVIN DYNAMICS APPLIED TO HYDROGENS
Info: LANGEVIN PISTON PRESSURE CONTROL ACTIVE
Info:        TARGET PRESSURE IS 1.01325 BAR
Info:     OSCILLATION PERIOD IS 50 FS
Info:             DECAY TIME IS 25 FS
Info:     PISTON TEMPERATURE IS 300 K
Info:       PRESSURE CONTROL IS GROUP-BASED
Info:    INITIAL STRAIN RATE IS 0 0 0
Info:       CELL FLUCTUATION IS ISOTROPIC
Info: PARTICLE MESH EWALD (PME) ACTIVE
Info: PME TOLERANCE               1e-06
Info: PME EWALD COEFFICIENT       0.348832
Info: PME INTERPOLATION ORDER     4
Info: PME GRID DIMENSIONS         36 36 36
Info: PME MAXIMUM GRID SPACING    1
Info: FULL ELECTROSTATIC EVALUATION FREQUENCY      2
Info: USING VERLET I (r-RESPA) MTS SCHEME.
Info: C1 SPLITTING OF LONG RANGE ELECTROSTATICS
Info: PLACING ATOMS IN PATCHES BY HYDROGEN GROUPS
Info: RIGID BONDS TO HYDROGEN : ALL
Info:         ERROR TOLERANCE : 1e-08
Info:          MAX ITERATIONS : 100
Info: RIGID WATER USING SETTLE ALGORITHM
Info: RANDOM NUMBER SEED     1743233562
Info: USE HYDROGEN BONDS?    NO
Info: Using AMBER format force field!
Info: AMBER PARM FILE        mobley_4561957.prmtop
Info: COORDINATE PDB         mobley_4561957.pdb
Info: Exclusions will be read from PARM file!
Info: SCNB (VDW SCALING)     2
Info: USING ARITHMETIC MEAN TO COMBINE L-J SIGMA PARAMETERS
Info: BINARY COORDINATES     mobley_4561957_min.coor
Info: SUMMARY OF PARAMETERS:
Info: 4 BONDS
Info: 3 ANGLES
Info:   3 HARMONIC
Info:   0 COSINE-BASED
Info: 5 DIHEDRAL
Info: 0 IMPROPER
Info: 0 CROSSTERM
Info: 0 VDW
Info: 10 VDW_PAIRS
Info: 0 NBTHOLE_PAIRS
Info: STRUCTURE SUMMARY:
Info: 2921 ATOMS
Info: 2920 BONDS
Info: 36 ANGLES
Info: 53 DIHEDRALS
Info: 0 IMPROPERS
Info: 0 CROSSTERMS
Info: 3001 EXCLUSIONS
Info: 2915 RIGID BONDS
Info: 5848 DEGREES OF FREEDOM
Info: 973 HYDROGEN GROUPS
Info: 4 ATOMS IN LARGEST HYDROGEN GROUP
Info: 973 MIGRATION GROUPS
Info: 4 ATOMS IN LARGEST MIGRATION GROUP
Info: TOTAL MASS = 17507.6 amu
Info: TOTAL CHARGE = 0.00060001 e
Info: MASS DENSITY = 0.654453 g/cm^3
Info: ATOM DENSITY = 0.0657541 atoms/A^3
Info: ADDED 0 IMPLICIT EXCLUSIONS
Info: NONBONDED TABLE R-SQUARED SPACING: 0.0625
Info: NONBONDED TABLE SIZE: 705 POINTS
Info: REMOVING COM VELOCITY 0.172937 -0.029337 -0.0494021
TCL: Running for 100000 steps
ETITLE: TS BOND ANGLE DIHED IMPRP ELECT VDW BOUNDARY MISC KINETIC TOTAL TEMP POTENTIAL TOTAL3 TEMPAVG PRESSURE GPRESSURE VOLUME PRESSAVG GPRESSAVG
ENERGY: 0 0.3395 1.4577 2.2050 0.0000 -13534.9075 2418.5976 0.0000 0.0000 1669.7460 -9442.5618 287.3647 -11112.3077 -9442.2546 287.3647 521.6552 557.9025 44423.0662 521.6552 557.9025
ENERGY: 100000 0.2614 2.3135 2.4752 0.0000 -14247.3640 2662.2611 0.0000 0.0000 175.2316 -11404.8213 30.1575 -11580.0529 -11404.2741 30.8904 1793.6400 1848.3447 28517.0654 3.8317 3.7525
TCL: Running 100000 steps at 60 kelvin.
TCL: Setting parameter langevinTemp to 60
TCL: Running for 100000 steps
ETITLE: TS BOND ANGLE DIHED IMPRP ELECT VDW BOUNDARY MISC KINETIC TOTAL TEMP POTENTIAL TOTAL3 TEMPAVG PRESSURE GPRESSURE VOLUME PRESSAVG GPRESSAVG
ENERGY: 100000 0.2614 2.3135 2.4752 0.0000 -14247.3640 2662.2611 0.0000 0.0000 175.1478 -11404.9051 30.1431 -11580.0529 -11404.6197 30.1431 1788.8249 1848.4332 28517.0654 1788.8249 1848.4332
ENERGY: 200000 0.6778 4.2465 2.5332 0.0000 -13922.2342 2389.7523 0.0000 0.0000 351.2268 -11173.7976 60.4464 -11525.0244 -11173.0958 59.9386 -205.9103 -163.8371 28811.0433 3.2958 3.2818
TCL: Running 100000 steps at 90 kelvin.
TCL: Setting parameter langevinTemp to 90
TCL: Running for 100000 steps
ETITLE: TS BOND ANGLE DIHED IMPRP ELECT VDW BOUNDARY MISC KINETIC TOTAL TEMP POTENTIAL TOTAL3 TEMPAVG PRESSURE GPRESSURE VOLUME PRESSAVG GPRESSAVG
ENERGY: 200000 0.6778 4.2465 2.5332 0.0000 -13922.2342 2389.7523 0.0000 0.0000 351.0504 -11173.9741 60.4161 -11525.0244 -11173.1293 60.4161 -219.5242 -164.0752 28811.0433 -219.5242 -164.0752
ENERGY: 300000 0.4620 4.0393 2.5587 0.0000 -13860.3521 2381.5622 0.0000 0.0000 521.0402 -10950.6898 89.6715 -11471.7299 -10949.3533 89.6849 44.3998 128.5725 28187.9855 4.8395 4.6260
TCL: Running 100000 steps at 120 kelvin.
TCL: Setting parameter langevinTemp to 120
TCL: Running for 100000 steps
ETITLE: TS BOND ANGLE DIHED IMPRP ELECT VDW BOUNDARY MISC KINETIC TOTAL TEMP POTENTIAL TOTAL3 TEMPAVG PRESSURE GPRESSURE VOLUME PRESSAVG GPRESSAVG
ENERGY: 300000 0.4620 4.0393 2.5587 0.0000 -13860.3521 2381.5622 0.0000 0.0000 520.7844 -10950.9456 89.6274 -11471.7299 -10949.5592 89.6274 58.9257 127.9972 28187.9855 58.9257 127.9972
ENERGY: 400000 1.9663 3.4291 3.5518 0.0000 -13534.8520 2209.2631 0.0000 0.0000 672.1670 -10644.4747 115.6805 -11316.6417 -10642.9516 120.0334 -939.7003 -838.6564 28424.5955 4.3218 4.4795
TCL: Running 100000 steps at 150 kelvin.
TCL: Setting parameter langevinTemp to 150
TCL: Running for 100000 steps
ETITLE: TS BOND ANGLE DIHED IMPRP ELECT VDW BOUNDARY MISC KINETIC TOTAL TEMP POTENTIAL TOTAL3 TEMPAVG PRESSURE GPRESSURE VOLUME PRESSAVG GPRESSAVG
ENERGY: 400000 1.9663 3.4291 3.5518 0.0000 -13534.8520 2209.2631 0.0000 0.0000 671.8310 -10644.8107 115.6227 -11316.6417 -10643.5374 115.6227 -909.7764 -838.5935 28424.5955 -909.7764 -838.5935
ENERGY: 500000 0.7299 7.2162 2.9415 0.0000 -13359.4401 2193.1126 0.0000 0.0000 884.6029 -10270.8371 152.2409 -11155.4400 -10268.0150 149.8345 -124.2098 -70.7872 28115.7696 2.9164 2.9610
TCL: Running 100000 steps at 180 kelvin.
TCL: Setting parameter langevinTemp to 180
TCL: Running for 100000 steps
ETITLE: TS BOND ANGLE DIHED IMPRP ELECT VDW BOUNDARY MISC KINETIC TOTAL TEMP POTENTIAL TOTAL3 TEMPAVG PRESSURE GPRESSURE VOLUME PRESSAVG GPRESSAVG
ENERGY: 500000 0.7299 7.2162 2.9415 0.0000 -13359.4401 2193.1126 0.0000 0.0000 884.1691 -10271.2708 152.1663 -11155.4400 -10269.2325 152.1663 -131.4081 -71.1612 28115.7696 -131.4081 -71.1612
ENERGY: 600000 0.4901 5.6005 2.5443 0.0000 -12846.6503 2055.5539 0.0000 0.0000 1056.8328 -9725.6287 181.8818 -10782.4615 -9720.9867 179.5055 -156.7433 -103.0240 28657.1397 3.8271 3.8346
TCL: Running 100000 steps at 210 kelvin.
TCL: Setting parameter langevinTemp to 210
TCL: Running for 100000 steps
ETITLE: TS BOND ANGLE DIHED IMPRP ELECT VDW BOUNDARY MISC KINETIC TOTAL TEMP POTENTIAL TOTAL3 TEMPAVG PRESSURE GPRESSURE VOLUME PRESSAVG GPRESSAVG
ENERGY: 600000 0.4901 5.6005 2.5443 0.0000 -12846.6503 2055.5539 0.0000 0.0000 1056.3051 -9726.1564 181.7910 -10782.4615 -9724.2137 181.7910 -161.0496 -100.3321 28657.1397 -161.0496 -100.3321
ENERGY: 700000 1.6482 11.2887 3.2732 0.0000 -12282.8919 1886.4721 0.0000 0.0000 1264.6218 -9115.5878 217.6425 -10380.2096 -9113.1116 210.0559 199.9568 251.9592 28288.1840 3.3005 3.3228
TCL: Running 100000 steps at 240 kelvin.
TCL: Setting parameter langevinTemp to 240
TCL: Running for 100000 steps
ETITLE: TS BOND ANGLE DIHED IMPRP ELECT VDW BOUNDARY MISC KINETIC TOTAL TEMP POTENTIAL TOTAL3 TEMPAVG PRESSURE GPRESSURE VOLUME PRESSAVG GPRESSAVG
ENERGY: 700000 1.6482 11.2887 3.2732 0.0000 -12282.8919 1886.4721 0.0000 0.0000 1264.0066 -9116.2031 217.5366 -10380.2096 -9113.5651 217.5366 162.1024 252.5487 28288.1840 162.1024 252.5487
ENERGY: 800000 2.0293 8.2755 2.4716 0.0000 -11595.0896 1630.7169 0.0000 0.0000 1369.1965 -8582.3999 235.6399 -9951.5964 -8579.8304 240.0577 -631.3093 -530.2658 28755.6868 2.1567 2.0887
TCL: Running 100000 steps at 270 kelvin.
TCL: Setting parameter langevinTemp to 270
TCL: Running for 100000 steps
ETITLE: TS BOND ANGLE DIHED IMPRP ELECT VDW BOUNDARY MISC KINETIC TOTAL TEMP POTENTIAL TOTAL3 TEMPAVG PRESSURE GPRESSURE VOLUME PRESSAVG GPRESSAVG
ENERGY: 800000 2.0293 8.2755 2.4716 0.0000 -11595.0896 1630.7169 0.0000 0.0000 1368.5139 -8583.0825 235.5224 -9951.5964 -8580.3762 235.5224 -611.2326 -531.0361 28755.6868 -611.2326 -531.0361
ENERGY: 900000 2.0161 7.9867 2.7620 0.0000 -11159.7923 1547.4036 0.0000 0.0000 1574.9681 -8024.6558 271.0534 -9599.6239 -8019.8038 269.9630 -258.9280 -204.1959 29314.9688 3.2192 3.1301
TCL: Running 1000000 steps at 300 kelvin.
TCL: Setting parameter langevinTemp to 300
TCL: Running for 1000000 steps
ETITLE: TS BOND ANGLE DIHED IMPRP ELECT VDW BOUNDARY MISC KINETIC TOTAL TEMP POTENTIAL TOTAL3 TEMPAVG PRESSURE GPRESSURE VOLUME PRESSAVG GPRESSAVG
ENERGY: 900000 2.0161 7.9867 2.7620 0.0000 -11159.7923 1547.4036 0.0000 0.0000 1574.1919 -8025.4320 270.9198 -9599.6239 -8022.4094 270.9198 -281.3204 -202.9785 29314.9688 -281.3204 -202.9785
ENERGY: 1100000 1.8595 16.5501 3.6618 0.0000 -10609.7444 1457.4534 0.0000 0.0000 1674.2875 -7455.9321 288.1463 -9130.2196 -7451.9763 300.1774 225.5941 290.6665 30044.2687 2.9550 2.9768
ENERGY: 1300000 2.1692 8.5104 3.6171 0.0000 -10521.5288 1429.7602 0.0000 0.0000 1740.7238 -7336.7481 299.5800 -9077.4719 -7332.6676 300.2827 509.3984 524.6933 29781.1030 2.2767 2.0687
ENERGY: 1500000 2.3733 11.8004 2.6635 0.0000 -10466.0212 1305.4035 0.0000 0.0000 1703.7095 -7440.0710 293.2099 -9143.7806 -7437.9154 300.0183 -933.1364 -822.8504 30432.2856 2.1493 2.1251
ENERGY: 1700000 1.4546 11.1267 3.3765 0.0000 -10638.7729 1451.3885 0.0000 0.0000 1750.1228 -7421.3038 301.1976 -9171.4266 -7418.3978 300.5562 338.0589 385.5382 29591.5388 3.0347 2.7772
ENERGY: 1900000 2.6412 7.2139 3.4932 0.0000 -10499.1593 1366.7530 0.0000 0.0000 1793.7184 -7325.3397 308.7005 -9119.0581 -7323.0541 300.8500 -815.8416 -743.1158 30865.6823 2.4469 2.4504
TCL: Exiting due to exit command.
