Info: SIMULATION PARAMETERS:
Info: TIMESTEP               2
Info: NUMBER OF STEPS        0
Info: STEPS PER CYCLE        10
Info: PERIODIC CELL BASIS 1  34.207 0 0
Info: PERIODIC CELL BASIS 2  0 37.796 0
Info: PERIODIC CELL BASIS 3  0 0 34.954
Info: PERIODIC CELL CENTER   0 0 0
Info: WRAPPING WATERS AROUND PERIODIC BOUNDARIES ON OUTPUT.
Info: WRAPPING ALL CLUSTERS AROUND PERIODIC BOUNDARIES ON OUTPUT.
Info: FIRST LDB TIMESTEP     50
Info: LAST LDB TIMESTEP     -1
Info: HOM BACKGROUND SCALING 1
Info: PME BACKGROUND SCALING 1
Info: MIN ATOMS PER PATCH    40
Info: EMPTY PATCH LOAD       40 ATOMS
Info: INITIAL TEMPERATURE    300
Info: CENTER OF MASS MOVING INITIALLY? NO
Info: DIELECTRIC             1
Info: EXCLUDE                SCALED ONE-FOUR
Info: 1-4 ELECTROSTATICS SCALED BY 0.833333
Info: MODIFIED 1-4 VDW PARAMETERS WILL BE USED
Info: DCD FILENAME           mobley_7176248_equil.dcd
Info: DCD FREQUENCY          100000
Info: DCD FIRST STEP         100000
Info: DCD FILE WILL CONTAIN UNIT CELL DATA
Info: XST FILENAME           mobley_7176248_equil.xst
Info: XST FREQUENCY          100000
Info: NO VELOCITY DCD OUTPUT
Info: NO FORCE DCD OUTPUT
Info: OUTPUT FILENAME        mobley_7176248_equil
Info: BINARY OUTPUT FILES WILL BE USED
Info: RESTART FILENAME       mobley_7176248_equil.restart
Info: RESTART FREQUENCY      100000
Info: BINARY RESTART FILES WILL BE USED
Info: CUTOFF                 9
Info: PAIRLIST DISTANCE      11
Info: PAIRLIST SHRINK RATE   0.01
Info: PAIRLIST GROW RATE     0.01
Info: PAIRLIST TRIGGER       0.3
Info: PAIRLISTS PER CYCLE    2
Info: PAIRLISTS ENABLED
Info: MARGIN                 8
Info: HYDROGEN GROUP CUTOFF  2.5
Info: PATCH DIMENSION        21.5
Info: ENERGY OUTPUT STEPS    100000
Info: ENERGY EVALUATION STEPS    100000
Info: OUTPUT ENERGY PRECISION 4
Info: CROSSTERM ENERGY INCLUDED IN DIHEDRAL
Info: TIMING OUTPUT STEPS    1000000
Info: PRESSURE OUTPUT STEPS  100000
Info: LANGEVIN DYNAMICS ACTIVE
Info: LANGEVIN TEMPERATURE   30
Info: LANGEVIN USING BBK INTEGRATOR
Info: LANGEVIN DAMPING COEFFICIENT IS 1 INVERSE PS
Info: LANGEVIN DYNAMICS APPLIED TO HYDROGENS
Info: LANGEVIN PISTON PRESSURE CONTROL ACTIVE
Info:        TARGET PRESSURE IS 1.01325 BAR
Info:     OSCILLATION PERIOD IS 50 FS
Info:             DECAY TIME IS 25 FS
Info:     PISTON TEMPERATURE IS 300 K
Info:       PRESSURE CONTROL IS GROUP-BASED
Info:    INITIAL STRAIN RATE IS 0 0 0
Info:       CELL FLUCTUATION IS ISOTROPIC
Info: PARTICLE MESH EWALD (PME) ACTIVE
Info: PME TOLERANCE               1e-06
Info: PME EWALD COEFFICIENT       0.348832
Info: PME INTERPOLATION ORDER     4
Info: PME GRID DIMENSIONS         36 40 36
Info: PME MAXIMUM GRID SPACING    1
Info: FULL ELECTROSTATIC EVALUATION FREQUENCY      2
Info: USING VERLET I (r-RESPA) MTS SCHEME.
Info: C1 SPLITTING OF LONG RANGE ELECTROSTATICS
Info: PLACING ATOMS IN PATCHES BY HYDROGEN GROUPS
Info: RIGID BONDS TO HYDROGEN : ALL
Info:         ERROR TOLERANCE : 1e-08
Info:          MAX ITERATIONS : 100
Info: RIGID WATER USING SETTLE ALGORITHM
Info: RANDOM NUMBER SEED     1743264989
Info: USE HYDROGEN BONDS?    NO
Info: Using AMBER format force field!
Info: AMBER PARM FILE        mobley_7176248.prmtop
Info: COORDINATE PDB         mobley_7176248.pdb
Info: Exclusions will be read from PARM file!
Info: SCNB (VDW SCALING)     2
Info: USING ARITHMETIC MEAN TO COMBINE L-J SIGMA PARAMETERS
Info: BINARY COORDINATES     mobley_7176248_min.coor
Info: SUMMARY OF PARAMETERS:
Info: 13 BONDS
Info: 18 ANGLES
Info:   18 HARMONIC
Info:   0 COSINE-BASED
Info: 8 DIHEDRAL
Info: 0 IMPROPER
Info: 0 CROSSTERM
Info: 0 VDW
Info: 55 VDW_PAIRS
Info: 0 NBTHOLE_PAIRS
Info: STRUCTURE SUMMARY:
Info: 2940 ATOMS
Info: 2940 BONDS
Info: 69 ANGLES
Info: 97 DIHEDRALS
Info: 0 IMPROPERS
Info: 0 CROSSTERMS
Info: 3096 EXCLUSIONS
Info: 2917 RIGID BONDS
Info: 5903 DEGREES OF FREEDOM
Info: 990 HYDROGEN GROUPS
Info: 4 ATOMS IN LARGEST HYDROGEN GROUP
Info: 990 MIGRATION GROUPS
Info: 4 ATOMS IN LARGEST MIGRATION GROUP
Info: TOTAL MASS = 17756.8 amu
Info: TOTAL CHARGE = 0.000199966 e
Info: MASS DENSITY = 0.652477 g/cm^3
Info: ATOM DENSITY = 0.0650563 atoms/A^3
Info: ADDED 0 IMPLICIT EXCLUSIONS
Info: NONBONDED TABLE R-SQUARED SPACING: 0.0625
Info: NONBONDED TABLE SIZE: 705 POINTS
Info: REMOVING COM VELOCITY -0.204375 0.115422 -0.0653421
TCL: Running for 100000 steps
ETITLE: TS BOND ANGLE DIHED IMPRP ELECT VDW BOUNDARY MISC KINETIC TOTAL TEMP POTENTIAL TOTAL3 TEMPAVG PRESSURE GPRESSURE VOLUME PRESSAVG GPRESSAVG
ENERGY: 0 0.5749 1.4640 16.9919 0.0000 -13538.3189 2385.5381 0.0000 0.0000 1793.4095 -9340.3404 305.7716 -11133.7499 -9339.9540 305.7716 513.1330 549.7689 45191.5992 513.1330 549.7689
ENERGY: 100000 1.7090 3.8946 16.9175 0.0000 -13968.0214 2338.5159 0.0000 0.0000 178.4596 -11428.5248 30.4269 -11606.9845 -11427.9312 30.9441 -671.1846 -621.3015 28594.6417 3.6077 3.5324
TCL: Running 100000 steps at 60 kelvin.
TCL: Setting parameter langevinTemp to 60
TCL: Running for 100000 steps
ETITLE: TS BOND ANGLE DIHED IMPRP ELECT VDW BOUNDARY MISC KINETIC TOTAL TEMP POTENTIAL TOTAL3 TEMPAVG PRESSURE GPRESSURE VOLUME PRESSAVG GPRESSAVG
ENERGY: 100000 1.7090 3.8946 16.9175 0.0000 -13968.0214 2338.5159 0.0000 0.0000 178.3695 -11428.6149 30.4115 -11606.9845 -11428.1902 30.4115 -679.8375 -621.1056 28594.6417 -679.8375 -621.1056
ENERGY: 200000 3.5123 4.1276 14.8637 0.0000 -13793.7005 2212.4267 0.0000 0.0000 355.8412 -11202.9288 60.6700 -11558.7701 -11201.4248 60.0536 -1536.2963 -1473.9423 28438.3351 4.7186 4.7426
TCL: Running 100000 steps at 90 kelvin.
TCL: Setting parameter langevinTemp to 90
TCL: Running for 100000 steps
ETITLE: TS BOND ANGLE DIHED IMPRP ELECT VDW BOUNDARY MISC KINETIC TOTAL TEMP POTENTIAL TOTAL3 TEMPAVG PRESSURE GPRESSURE VOLUME PRESSAVG GPRESSAVG
ENERGY: 200000 3.5123 4.1276 14.8637 0.0000 -13793.7005 2212.4267 0.0000 0.0000 355.6642 -11203.1058 60.6398 -11558.7701 -11202.1814 60.6398 -1534.3523 -1473.5412 28438.3351 -1534.3523 -1473.5412
ENERGY: 300000 2.9252 5.9309 18.3893 0.0000 -13818.7237 2334.2824 0.0000 0.0000 534.5957 -10922.6001 91.1471 -11457.1958 -10921.0756 90.0694 171.0260 245.1462 27988.7457 5.3940 5.4386
TCL: Running 100000 steps at 120 kelvin.
TCL: Setting parameter langevinTemp to 120
TCL: Running for 100000 steps
ETITLE: TS BOND ANGLE DIHED IMPRP ELECT VDW BOUNDARY MISC KINETIC TOTAL TEMP POTENTIAL TOTAL3 TEMPAVG PRESSURE GPRESSURE VOLUME PRESSAVG GPRESSAVG
ENERGY: 300000 2.9252 5.9309 18.3893 0.0000 -13818.7237 2334.2824 0.0000 0.0000 534.3400 -10922.8559 91.1035 -11457.1958 -10921.7790 91.1035 170.2065 244.7713 27988.7457 170.2065 244.7713
ENERGY: 400000 2.4810 6.7192 15.0043 0.0000 -13564.0444 2218.2346 0.0000 0.0000 719.8197 -10601.7855 122.7273 -11321.6053 -10600.0514 120.2153 -277.4399 -240.0860 28282.7846 6.1733 6.0980
TCL: Running 100000 steps at 150 kelvin.
TCL: Setting parameter langevinTemp to 150
TCL: Running for 100000 steps
ETITLE: TS BOND ANGLE DIHED IMPRP ELECT VDW BOUNDARY MISC KINETIC TOTAL TEMP POTENTIAL TOTAL3 TEMPAVG PRESSURE GPRESSURE VOLUME PRESSAVG GPRESSAVG
ENERGY: 400000 2.4810 6.7192 15.0043 0.0000 -13564.0444 2218.2346 0.0000 0.0000 719.4788 -10602.1265 122.6692 -11321.6053 -10600.5309 122.6692 -271.0744 -241.1011 28282.7846 -271.0744 -241.1011
ENERGY: 500000 5.3326 9.6263 15.3614 0.0000 -13306.2626 2110.2992 0.0000 0.0000 878.1579 -10287.4851 149.7236 -11165.6430 -10285.6849 149.5162 -848.6130 -784.2885 28397.1925 3.5713 3.4890
TCL: Running 100000 steps at 180 kelvin.
TCL: Setting parameter langevinTemp to 180
TCL: Running for 100000 steps
ETITLE: TS BOND ANGLE DIHED IMPRP ELECT VDW BOUNDARY MISC KINETIC TOTAL TEMP POTENTIAL TOTAL3 TEMPAVG PRESSURE GPRESSURE VOLUME PRESSAVG GPRESSAVG
ENERGY: 500000 5.3326 9.6263 15.3614 0.0000 -13306.2626 2110.2992 0.0000 0.0000 877.7189 -10287.9241 149.6487 -11165.6430 -10285.9560 149.6487 -847.5835 -785.0778 28397.1925 -847.5835 -785.0778
ENERGY: 600000 7.3727 9.9342 16.9409 0.0000 -12907.0101 2051.2505 0.0000 0.0000 1086.1218 -9735.3900 185.1809 -10821.5118 -9732.2855 180.0525 -15.6570 58.9073 28229.1221 3.6152 3.6848
TCL: Running 100000 steps at 210 kelvin.
TCL: Setting parameter langevinTemp to 210
TCL: Running for 100000 steps
ETITLE: TS BOND ANGLE DIHED IMPRP ELECT VDW BOUNDARY MISC KINETIC TOTAL TEMP POTENTIAL TOTAL3 TEMPAVG PRESSURE GPRESSURE VOLUME PRESSAVG GPRESSAVG
ENERGY: 600000 7.3727 9.9342 16.9409 0.0000 -12907.0101 2051.2505 0.0000 0.0000 1085.6045 -9735.9073 185.0927 -10821.5118 -9733.4997 185.0927 -18.1669 59.2077 28229.1221 -18.1669 59.2077
ENERGY: 700000 7.2744 15.7645 19.4703 0.0000 -12249.4080 1846.8956 0.0000 0.0000 1234.8980 -9125.1052 210.5468 -10360.0031 -9121.5752 210.3449 -256.3266 -138.9649 28820.7371 4.2263 4.1293
TCL: Running 100000 steps at 240 kelvin.
TCL: Setting parameter langevinTemp to 240
TCL: Running for 100000 steps
ETITLE: TS BOND ANGLE DIHED IMPRP ELECT VDW BOUNDARY MISC KINETIC TOTAL TEMP POTENTIAL TOTAL3 TEMPAVG PRESSURE GPRESSURE VOLUME PRESSAVG GPRESSAVG
ENERGY: 700000 7.2744 15.7645 19.4703 0.0000 -12249.4080 1846.8956 0.0000 0.0000 1234.2763 -9125.7268 210.4408 -10360.0031 -9123.0880 210.4408 -218.2941 -139.0959 28820.7371 -218.2941 -139.0959
ENERGY: 800000 4.7532 13.5828 19.8313 0.0000 -11595.4686 1664.8784 0.0000 0.0000 1416.9750 -8475.4479 241.5905 -9892.4229 -8470.8684 240.3870 1.2515 79.4169 29047.0405 3.0335 3.1291
TCL: Running 100000 steps at 270 kelvin.
TCL: Setting parameter langevinTemp to 270
TCL: Running for 100000 steps
ETITLE: TS BOND ANGLE DIHED IMPRP ELECT VDW BOUNDARY MISC KINETIC TOTAL TEMP POTENTIAL TOTAL3 TEMPAVG PRESSURE GPRESSURE VOLUME PRESSAVG GPRESSAVG
ENERGY: 800000 4.7532 13.5828 19.8313 0.0000 -11595.4686 1664.8784 0.0000 0.0000 1416.2829 -8476.1400 241.4725 -9892.4229 -8473.8981 241.4725 -21.0186 80.4766 29047.0405 -21.0186 80.4766
ENERGY: 900000 5.2757 17.0722 19.2950 0.0000 -11162.4041 1578.9673 0.0000 0.0000 1549.0038 -7992.7901 264.1010 -9541.7938 -7990.8413 270.0239 260.5447 341.1708 29670.6499 4.1799 4.2730
TCL: Running 1000000 steps at 300 kelvin.
TCL: Setting parameter langevinTemp to 300
TCL: Running for 1000000 steps
ETITLE: TS BOND ANGLE DIHED IMPRP ELECT VDW BOUNDARY MISC KINETIC TOTAL TEMP POTENTIAL TOTAL3 TEMPAVG PRESSURE GPRESSURE VOLUME PRESSAVG GPRESSAVG
ENERGY: 900000 5.2757 17.0722 19.2950 0.0000 -11162.4041 1578.9673 0.0000 0.0000 1548.2444 -7993.5494 263.9715 -9541.7938 -7991.2574 263.9715 268.1316 338.8844 29670.6499 268.1316 338.8844
ENERGY: 1100000 7.2867 17.2311 22.6792 0.0000 -10471.5606 1343.1523 0.0000 0.0000 1687.2529 -7393.9583 287.6721 -9081.2113 -7392.0209 300.6120 -599.8593 -487.1921 30500.7822 3.1319 3.1792
ENERGY: 1300000 9.4292 16.8861 17.2871 0.0000 -10650.6279 1408.2474 0.0000 0.0000 1720.5887 -7478.1894 293.3558 -9198.7781 -7475.5492 299.9449 -552.9363 -542.3209 30517.2173 4.8959 5.0803
ENERGY: 1500000 6.9132 11.6713 20.0431 0.0000 -10631.1828 1446.4867 0.0000 0.0000 1753.8863 -7392.1822 299.0329 -9146.0685 -7389.5852 300.4984 511.7947 607.8716 30176.9249 4.0846 3.9705
ENERGY: 1700000 5.6019 22.4958 18.9523 0.0000 -10889.9270 1582.0630 0.0000 0.0000 1773.5366 -7487.2773 302.3833 -9260.8140 -7484.3190 300.7005 1463.1708 1540.4615 29737.9155 2.4677 2.4691
ENERGY: 1900000 5.6281 13.4324 22.2531 0.0000 -10619.7800 1455.4965 0.0000 0.0000 1748.9654 -7374.0045 298.1939 -9122.9699 -7369.5559 300.0193 528.6991 592.3167 30452.2319 2.4074 2.4368
TCL: Exiting due to exit command.
