Info: SIMULATION PARAMETERS:
Info: TIMESTEP               2
Info: NUMBER OF STEPS        0
Info: STEPS PER CYCLE        10
Info: PERIODIC CELL BASIS 1  36.005 0 0
Info: PERIODIC CELL BASIS 2  0 33.314 0
Info: PERIODIC CELL BASIS 3  0 0 37.195
Info: PERIODIC CELL CENTER   0 0 0
Info: WRAPPING WATERS AROUND PERIODIC BOUNDARIES ON OUTPUT.
Info: WRAPPING ALL CLUSTERS AROUND PERIODIC BOUNDARIES ON OUTPUT.
Info: FIRST LDB TIMESTEP     50
Info: LAST LDB TIMESTEP     -1
Info: HOM BACKGROUND SCALING 1
Info: PME BACKGROUND SCALING 1
Info: MIN ATOMS PER PATCH    40
Info: EMPTY PATCH LOAD       40 ATOMS
Info: INITIAL TEMPERATURE    300
Info: CENTER OF MASS MOVING INITIALLY? NO
Info: DIELECTRIC             1
Info: EXCLUDE                SCALED ONE-FOUR
Info: 1-4 ELECTROSTATICS SCALED BY 0.833333
Info: MODIFIED 1-4 VDW PARAMETERS WILL BE USED
Info: DCD FILENAME           mobley_4375719_equil.dcd
Info: DCD FREQUENCY          100000
Info: DCD FIRST STEP         100000
Info: DCD FILE WILL CONTAIN UNIT CELL DATA
Info: XST FILENAME           mobley_4375719_equil.xst
Info: XST FREQUENCY          100000
Info: NO VELOCITY DCD OUTPUT
Info: NO FORCE DCD OUTPUT
Info: OUTPUT FILENAME        mobley_4375719_equil
Info: BINARY OUTPUT FILES WILL BE USED
Info: RESTART FILENAME       mobley_4375719_equil.restart
Info: RESTART FREQUENCY      100000
Info: BINARY RESTART FILES WILL BE USED
Info: CUTOFF                 9
Info: PAIRLIST DISTANCE      11
Info: PAIRLIST SHRINK RATE   0.01
Info: PAIRLIST GROW RATE     0.01
Info: PAIRLIST TRIGGER       0.3
Info: PAIRLISTS PER CYCLE    2
Info: PAIRLISTS ENABLED
Info: MARGIN                 8
Info: HYDROGEN GROUP CUTOFF  2.5
Info: PATCH DIMENSION        21.5
Info: ENERGY OUTPUT STEPS    100000
Info: ENERGY EVALUATION STEPS    100000
Info: OUTPUT ENERGY PRECISION 4
Info: CROSSTERM ENERGY INCLUDED IN DIHEDRAL
Info: TIMING OUTPUT STEPS    1000000
Info: PRESSURE OUTPUT STEPS  100000
Info: LANGEVIN DYNAMICS ACTIVE
Info: LANGEVIN TEMPERATURE   30
Info: LANGEVIN USING BBK INTEGRATOR
Info: LANGEVIN DAMPING COEFFICIENT IS 1 INVERSE PS
Info: LANGEVIN DYNAMICS APPLIED TO HYDROGENS
Info: LANGEVIN PISTON PRESSURE CONTROL ACTIVE
Info:        TARGET PRESSURE IS 1.01325 BAR
Info:     OSCILLATION PERIOD IS 50 FS
Info:             DECAY TIME IS 25 FS
Info:     PISTON TEMPERATURE IS 300 K
Info:       PRESSURE CONTROL IS GROUP-BASED
Info:    INITIAL STRAIN RATE IS 0 0 0
Info:       CELL FLUCTUATION IS ISOTROPIC
Info: PARTICLE MESH EWALD (PME) ACTIVE
Info: PME TOLERANCE               1e-06
Info: PME EWALD COEFFICIENT       0.348832
Info: PME INTERPOLATION ORDER     4
Info: PME GRID DIMENSIONS         40 36 40
Info: PME MAXIMUM GRID SPACING    1
Info: FULL ELECTROSTATIC EVALUATION FREQUENCY      2
Info: USING VERLET I (r-RESPA) MTS SCHEME.
Info: C1 SPLITTING OF LONG RANGE ELECTROSTATICS
Info: PLACING ATOMS IN PATCHES BY HYDROGEN GROUPS
Info: RIGID BONDS TO HYDROGEN : ALL
Info:         ERROR TOLERANCE : 1e-08
Info:          MAX ITERATIONS : 100
Info: RIGID WATER USING SETTLE ALGORITHM
Info: RANDOM NUMBER SEED     1743262202
Info: USE HYDROGEN BONDS?    NO
Info: Using AMBER format force field!
Info: AMBER PARM FILE        mobley_4375719.prmtop
Info: COORDINATE PDB         mobley_4375719.pdb
Info: Exclusions will be read from PARM file!
Info: SCNB (VDW SCALING)     2
Info: USING ARITHMETIC MEAN TO COMBINE L-J SIGMA PARAMETERS
Info: BINARY COORDINATES     mobley_4375719_min.coor
Info: SUMMARY OF PARAMETERS:
Info: 4 BONDS
Info: 3 ANGLES
Info:   3 HARMONIC
Info:   0 COSINE-BASED
Info: 5 DIHEDRAL
Info: 0 IMPROPER
Info: 0 CROSSTERM
Info: 0 VDW
Info: 10 VDW_PAIRS
Info: 0 NBTHOLE_PAIRS
Info: STRUCTURE SUMMARY:
Info: 2945 ATOMS
Info: 2944 BONDS
Info: 54 ANGLES
Info: 84 DIHEDRALS
Info: 0 IMPROPERS
Info: 0 CROSSTERMS
Info: 3070 EXCLUSIONS
Info: 2936 RIGID BONDS
Info: 5899 DEGREES OF FREEDOM
Info: 981 HYDROGEN GROUPS
Info: 4 ATOMS IN LARGEST HYDROGEN GROUP
Info: 981 MIGRATION GROUPS
Info: 4 ATOMS IN LARGEST MIGRATION GROUP
Info: TOTAL MASS = 17639.8 amu
Info: TOTAL CHARGE = 0 e
Info: MASS DENSITY = 0.656567 g/cm^3
Info: ATOM DENSITY = 0.0660102 atoms/A^3
Info: ADDED 0 IMPLICIT EXCLUSIONS
Info: NONBONDED TABLE R-SQUARED SPACING: 0.0625
Info: NONBONDED TABLE SIZE: 705 POINTS
Info: REMOVING COM VELOCITY 0.0268512 -0.00102851 0.163255
TCL: Running for 100000 steps
ETITLE: TS BOND ANGLE DIHED IMPRP ELECT VDW BOUNDARY MISC KINETIC TOTAL TEMP POTENTIAL TOTAL3 TEMPAVG PRESSURE GPRESSURE VOLUME PRESSAVG GPRESSAVG
ENERGY: 0 0.0959 0.2414 2.4946 0.0000 -13553.1113 2396.6703 0.0000 0.0000 1750.0471 -9403.5620 298.5807 -11153.6091 -9403.2046 298.5807 528.6351 563.8568 44614.3079 528.6351 563.8568
ENERGY: 100000 0.1680 1.7296 2.7455 0.0000 -14130.1093 2484.1218 0.0000 0.0000 179.3564 -11461.9881 30.6005 -11641.3445 -11461.5453 30.8924 176.3697 232.3667 28994.3613 3.3587 3.3777
TCL: Running 100000 steps at 60 kelvin.
TCL: Setting parameter langevinTemp to 60
TCL: Running for 100000 steps
ETITLE: TS BOND ANGLE DIHED IMPRP ELECT VDW BOUNDARY MISC KINETIC TOTAL TEMP POTENTIAL TOTAL3 TEMPAVG PRESSURE GPRESSURE VOLUME PRESSAVG GPRESSAVG
ENERGY: 100000 0.1680 1.7296 2.7455 0.0000 -14130.1093 2484.1218 0.0000 0.0000 179.2660 -11462.0785 30.5851 -11641.3445 -11461.6273 30.5851 176.9070 232.1040 28994.3613 176.9070 232.1040
ENERGY: 200000 0.4014 3.2006 2.8044 0.0000 -14130.9669 2550.5146 0.0000 0.0000 357.5317 -11216.5141 60.9995 -11574.0458 -11215.2250 60.0368 967.2718 1035.9116 29087.0660 4.2359 4.1405
TCL: Running 100000 steps at 90 kelvin.
TCL: Setting parameter langevinTemp to 90
TCL: Running for 100000 steps
ETITLE: TS BOND ANGLE DIHED IMPRP ELECT VDW BOUNDARY MISC KINETIC TOTAL TEMP POTENTIAL TOTAL3 TEMPAVG PRESSURE GPRESSURE VOLUME PRESSAVG GPRESSAVG
ENERGY: 200000 0.4014 3.2006 2.8044 0.0000 -14130.9669 2550.5146 0.0000 0.0000 357.3507 -11216.6951 60.9687 -11574.0458 -11215.9834 60.9687 991.8959 1035.9744 29087.0660 991.8959 1035.9744
ENERGY: 300000 2.3468 5.3165 3.0075 0.0000 -13787.4888 2335.7331 0.0000 0.0000 511.0666 -10930.0183 87.1946 -11441.0849 -10928.0303 90.1067 -321.8186 -246.2831 29061.2020 5.0582 5.0081
TCL: Running 100000 steps at 120 kelvin.
TCL: Setting parameter langevinTemp to 120
TCL: Running for 100000 steps
ETITLE: TS BOND ANGLE DIHED IMPRP ELECT VDW BOUNDARY MISC KINETIC TOTAL TEMP POTENTIAL TOTAL3 TEMPAVG PRESSURE GPRESSURE VOLUME PRESSAVG GPRESSAVG
ENERGY: 300000 2.3468 5.3165 3.0075 0.0000 -13787.4888 2335.7331 0.0000 0.0000 510.8108 -10930.2742 87.1509 -11441.0849 -10929.1351 87.1509 -297.1752 -246.6571 29061.2020 -297.1752 -246.6571
ENERGY: 400000 0.8335 3.7774 2.6631 0.0000 -13631.0172 2251.9023 0.0000 0.0000 721.5803 -10650.2606 123.1109 -11371.8409 -10649.1141 119.8838 -587.0202 -501.7879 28717.6514 4.6093 4.6170
TCL: Running 100000 steps at 150 kelvin.
TCL: Setting parameter langevinTemp to 150
TCL: Running for 100000 steps
ETITLE: TS BOND ANGLE DIHED IMPRP ELECT VDW BOUNDARY MISC KINETIC TOTAL TEMP POTENTIAL TOTAL3 TEMPAVG PRESSURE GPRESSURE VOLUME PRESSAVG GPRESSAVG
ENERGY: 400000 0.8335 3.7774 2.6631 0.0000 -13631.0172 2251.9023 0.0000 0.0000 721.2298 -10650.6111 123.0511 -11371.8409 -10648.8047 123.0511 -573.1388 -502.6077 28717.6514 -573.1388 -502.6077
ENERGY: 500000 0.3479 8.6528 3.7459 0.0000 -13352.3934 2168.7938 0.0000 0.0000 880.7158 -10290.1371 150.2615 -11170.8529 -10287.4797 149.8472 -243.6438 -167.6327 28142.1701 2.5964 2.6354
TCL: Running 100000 steps at 180 kelvin.
TCL: Setting parameter langevinTemp to 180
TCL: Running for 100000 steps
ETITLE: TS BOND ANGLE DIHED IMPRP ELECT VDW BOUNDARY MISC KINETIC TOTAL TEMP POTENTIAL TOTAL3 TEMPAVG PRESSURE GPRESSURE VOLUME PRESSAVG GPRESSAVG
ENERGY: 500000 0.3479 8.6528 3.7459 0.0000 -13352.3934 2168.7938 0.0000 0.0000 880.2809 -10290.5719 150.1873 -11170.8529 -10288.6916 150.1873 -221.8960 -167.4920 28142.1701 -221.8960 -167.4920
ENERGY: 600000 2.1071 11.5549 4.3468 0.0000 -12986.5159 2115.2083 0.0000 0.0000 1042.0449 -9811.2540 177.7863 -10853.2989 -9808.5206 180.0601 489.3032 557.7079 28301.9854 5.0847 5.0859
TCL: Running 100000 steps at 210 kelvin.
TCL: Setting parameter langevinTemp to 210
TCL: Running for 100000 steps
ETITLE: TS BOND ANGLE DIHED IMPRP ELECT VDW BOUNDARY MISC KINETIC TOTAL TEMP POTENTIAL TOTAL3 TEMPAVG PRESSURE GPRESSURE VOLUME PRESSAVG GPRESSAVG
ENERGY: 600000 2.1071 11.5549 4.3468 0.0000 -12986.5159 2115.2083 0.0000 0.0000 1041.5091 -9811.7898 177.6949 -10853.2989 -9809.9018 177.6949 480.3293 559.2599 28301.9854 480.3293 559.2599
ENERGY: 700000 2.6239 7.8357 3.6408 0.0000 -12196.4435 1783.8154 0.0000 0.0000 1231.9883 -9166.5395 210.1932 -10398.5278 -9163.5381 209.7678 -712.7689 -608.8851 28737.3234 3.7886 3.6822
TCL: Running 100000 steps at 240 kelvin.
TCL: Setting parameter langevinTemp to 240
TCL: Running for 100000 steps
ETITLE: TS BOND ANGLE DIHED IMPRP ELECT VDW BOUNDARY MISC KINETIC TOTAL TEMP POTENTIAL TOTAL3 TEMPAVG PRESSURE GPRESSURE VOLUME PRESSAVG GPRESSAVG
ENERGY: 700000 2.6239 7.8357 3.6408 0.0000 -12196.4435 1783.8154 0.0000 0.0000 1231.3946 -9167.1332 210.0919 -10398.5278 -9164.3809 210.0919 -686.8596 -608.7963 28737.3234 -686.8596 -608.7963
ENERGY: 800000 1.3976 8.3139 4.8263 0.0000 -11556.0371 1661.1337 0.0000 0.0000 1396.7594 -8483.6062 238.3052 -9880.3656 -8481.1004 239.7873 387.3041 478.9629 28566.9330 2.9392 2.9827
TCL: Running 100000 steps at 270 kelvin.
TCL: Setting parameter langevinTemp to 270
TCL: Running for 100000 steps
ETITLE: TS BOND ANGLE DIHED IMPRP ELECT VDW BOUNDARY MISC KINETIC TOTAL TEMP POTENTIAL TOTAL3 TEMPAVG PRESSURE GPRESSURE VOLUME PRESSAVG GPRESSAVG
ENERGY: 800000 1.3976 8.3139 4.8263 0.0000 -11556.0371 1661.1337 0.0000 0.0000 1396.0493 -8484.3163 238.1841 -9880.3656 -8481.7333 238.1841 386.0201 477.2301 28566.9330 386.0201 477.2301
ENERGY: 900000 3.5943 14.0881 4.0383 0.0000 -11296.5057 1637.5498 0.0000 0.0000 1579.0673 -8058.1679 269.4093 -9637.2351 -8054.7602 270.5108 564.9293 624.9790 29280.2843 1.7668 1.7740
TCL: Running 1000000 steps at 300 kelvin.
TCL: Setting parameter langevinTemp to 300
TCL: Running for 1000000 steps
ETITLE: TS BOND ANGLE DIHED IMPRP ELECT VDW BOUNDARY MISC KINETIC TOTAL TEMP POTENTIAL TOTAL3 TEMPAVG PRESSURE GPRESSURE VOLUME PRESSAVG GPRESSAVG
ENERGY: 900000 3.5943 14.0881 4.0383 0.0000 -11296.5057 1637.5498 0.0000 0.0000 1578.2531 -8058.9821 269.2704 -9637.2351 -8055.9057 269.2704 539.7854 623.2031 29280.2843 539.7854 623.2031
ENERGY: 1100000 2.6142 17.8553 3.9654 0.0000 -10551.7216 1411.0964 0.0000 0.0000 1725.5896 -7390.6007 294.4079 -9116.1903 -7386.1650 299.6435 122.4307 201.7300 30481.4322 2.7430 2.7833
ENERGY: 1300000 2.0518 14.3281 5.1259 0.0000 -10561.3418 1388.4930 0.0000 0.0000 1751.7035 -7399.6395 298.8633 -9151.3430 -7393.1201 299.9511 -384.2857 -252.7434 30415.0349 4.2234 4.2644
ENERGY: 1500000 5.0033 13.0219 4.3868 0.0000 -10524.2521 1389.5141 0.0000 0.0000 1716.7407 -7395.5854 292.8982 -9112.3261 -7392.3820 300.7407 -271.8121 -206.3673 30767.1110 2.3515 2.3782
ENERGY: 1700000 1.9516 11.8579 7.0133 0.0000 -10707.5839 1440.2145 0.0000 0.0000 1795.9488 -7450.5977 306.4121 -9246.5466 -7443.4114 300.4524 -89.8473 66.8482 30001.9598 4.0267 3.8188
ENERGY: 1900000 3.9083 20.3184 6.1172 0.0000 -10603.5566 1441.5254 0.0000 0.0000 1752.1092 -7379.5780 298.9325 -9131.6873 -7374.9035 299.9564 314.7188 356.7530 30306.2765 2.4394 2.4129
TCL: Exiting due to exit command.
