Info: SIMULATION PARAMETERS:
Info: TIMESTEP               2
Info: NUMBER OF STEPS        0
Info: STEPS PER CYCLE        10
Info: PERIODIC CELL BASIS 1  34.986 0 0
Info: PERIODIC CELL BASIS 2  0 36.611 0
Info: PERIODIC CELL BASIS 3  0 0 34.954
Info: PERIODIC CELL CENTER   0 0 0
Info: WRAPPING WATERS AROUND PERIODIC BOUNDARIES ON OUTPUT.
Info: WRAPPING ALL CLUSTERS AROUND PERIODIC BOUNDARIES ON OUTPUT.
Info: FIRST LDB TIMESTEP     50
Info: LAST LDB TIMESTEP     -1
Info: HOM BACKGROUND SCALING 1
Info: PME BACKGROUND SCALING 1
Info: MIN ATOMS PER PATCH    40
Info: EMPTY PATCH LOAD       40 ATOMS
Info: INITIAL TEMPERATURE    300
Info: CENTER OF MASS MOVING INITIALLY? NO
Info: DIELECTRIC             1
Info: EXCLUDE                SCALED ONE-FOUR
Info: 1-4 ELECTROSTATICS SCALED BY 0.833333
Info: MODIFIED 1-4 VDW PARAMETERS WILL BE USED
Info: DCD FILENAME           mobley_7690440_equil.dcd
Info: DCD FREQUENCY          100000
Info: DCD FIRST STEP         100000
Info: DCD FILE WILL CONTAIN UNIT CELL DATA
Info: XST FILENAME           mobley_7690440_equil.xst
Info: XST FREQUENCY          100000
Info: NO VELOCITY DCD OUTPUT
Info: NO FORCE DCD OUTPUT
Info: OUTPUT FILENAME        mobley_7690440_equil
Info: BINARY OUTPUT FILES WILL BE USED
Info: RESTART FILENAME       mobley_7690440_equil.restart
Info: RESTART FREQUENCY      100000
Info: BINARY RESTART FILES WILL BE USED
Info: CUTOFF                 9
Info: PAIRLIST DISTANCE      11
Info: PAIRLIST SHRINK RATE   0.01
Info: PAIRLIST GROW RATE     0.01
Info: PAIRLIST TRIGGER       0.3
Info: PAIRLISTS PER CYCLE    2
Info: PAIRLISTS ENABLED
Info: MARGIN                 8
Info: HYDROGEN GROUP CUTOFF  2.5
Info: PATCH DIMENSION        21.5
Info: ENERGY OUTPUT STEPS    100000
Info: ENERGY EVALUATION STEPS    100000
Info: OUTPUT ENERGY PRECISION 4
Info: CROSSTERM ENERGY INCLUDED IN DIHEDRAL
Info: TIMING OUTPUT STEPS    1000000
Info: PRESSURE OUTPUT STEPS  100000
Info: LANGEVIN DYNAMICS ACTIVE
Info: LANGEVIN TEMPERATURE   30
Info: LANGEVIN USING BBK INTEGRATOR
Info: LANGEVIN DAMPING COEFFICIENT IS 1 INVERSE PS
Info: LANGEVIN DYNAMICS APPLIED TO HYDROGENS
Info: LANGEVIN PISTON PRESSURE CONTROL ACTIVE
Info:        TARGET PRESSURE IS 1.01325 BAR
Info:     OSCILLATION PERIOD IS 50 FS
Info:             DECAY TIME IS 25 FS
Info:     PISTON TEMPERATURE IS 300 K
Info:       PRESSURE CONTROL IS GROUP-BASED
Info:    INITIAL STRAIN RATE IS 0 0 0
Info:       CELL FLUCTUATION IS ISOTROPIC
Info: PARTICLE MESH EWALD (PME) ACTIVE
Info: PME TOLERANCE               1e-06
Info: PME EWALD COEFFICIENT       0.348832
Info: PME INTERPOLATION ORDER     4
Info: PME GRID DIMENSIONS         36 40 36
Info: PME MAXIMUM GRID SPACING    1
Info: FULL ELECTROSTATIC EVALUATION FREQUENCY      2
Info: USING VERLET I (r-RESPA) MTS SCHEME.
Info: C1 SPLITTING OF LONG RANGE ELECTROSTATICS
Info: PLACING ATOMS IN PATCHES BY HYDROGEN GROUPS
Info: RIGID BONDS TO HYDROGEN : ALL
Info:         ERROR TOLERANCE : 1e-08
Info:          MAX ITERATIONS : 100
Info: RIGID WATER USING SETTLE ALGORITHM
Info: RANDOM NUMBER SEED     1743224390
Info: USE HYDROGEN BONDS?    NO
Info: Using AMBER format force field!
Info: AMBER PARM FILE        mobley_7690440.prmtop
Info: COORDINATE PDB         mobley_7690440.pdb
Info: Exclusions will be read from PARM file!
Info: SCNB (VDW SCALING)     2
Info: USING ARITHMETIC MEAN TO COMBINE L-J SIGMA PARAMETERS
Info: BINARY COORDINATES     mobley_7690440_min.coor
Info: SUMMARY OF PARAMETERS:
Info: 5 BONDS
Info: 3 ANGLES
Info:   3 HARMONIC
Info:   0 COSINE-BASED
Info: 3 DIHEDRAL
Info: 0 IMPROPER
Info: 0 CROSSTERM
Info: 0 VDW
Info: 15 VDW_PAIRS
Info: 0 NBTHOLE_PAIRS
Info: STRUCTURE SUMMARY:
Info: 2923 ATOMS
Info: 2922 BONDS
Info: 14 ANGLES
Info: 8 DIHEDRALS
Info: 0 IMPROPERS
Info: 0 CROSSTERMS
Info: 2943 EXCLUSIONS
Info: 2919 RIGID BONDS
Info: 5850 DEGREES OF FREEDOM
Info: 975 HYDROGEN GROUPS
Info: 4 ATOMS IN LARGEST HYDROGEN GROUP
Info: 975 MIGRATION GROUPS
Info: 4 ATOMS IN LARGEST MIGRATION GROUP
Info: TOTAL MASS = 17587.7 amu
Info: TOTAL CHARGE = 0.000100009 e
Info: MASS DENSITY = 0.652328 g/cm^3
Info: ATOM DENSITY = 0.0652869 atoms/A^3
Info: ADDED 0 IMPLICIT EXCLUSIONS
Info: NONBONDED TABLE R-SQUARED SPACING: 0.0625
Info: NONBONDED TABLE SIZE: 705 POINTS
Info: REMOVING COM VELOCITY -0.0324693 -0.0298458 0.0256002
TCL: Running for 100000 steps
ETITLE: TS BOND ANGLE DIHED IMPRP ELECT VDW BOUNDARY MISC KINETIC TOTAL TEMP POTENTIAL TOTAL3 TEMPAVG PRESSURE GPRESSURE VOLUME PRESSAVG GPRESSAVG
ENERGY: 0 0.0045 0.1202 0.4909 0.0000 -13546.0408 2409.5642 0.0000 0.0000 1729.4616 -9406.3995 297.5401 -11135.8610 -9406.0893 297.5401 585.0011 621.1077 44771.6155 585.0011 621.1077
ENERGY: 100000 0.0609 0.6928 0.5758 0.0000 -14225.6075 2573.1553 0.0000 0.0000 178.3551 -11472.7676 30.6846 -11651.1227 -11472.5864 30.8876 1253.6195 1318.6770 28011.9851 3.6406 3.6525
TCL: Running 100000 steps at 60 kelvin.
TCL: Setting parameter langevinTemp to 60
TCL: Running for 100000 steps
ETITLE: TS BOND ANGLE DIHED IMPRP ELECT VDW BOUNDARY MISC KINETIC TOTAL TEMP POTENTIAL TOTAL3 TEMPAVG PRESSURE GPRESSURE VOLUME PRESSAVG GPRESSAVG
ENERGY: 100000 0.0609 0.6928 0.5758 0.0000 -14225.6075 2573.1553 0.0000 0.0000 178.2669 -11472.8558 30.6694 -11651.1227 -11472.5122 30.6694 1260.5335 1318.4610 28011.9851 1260.5335 1318.4610
ENERGY: 200000 0.3602 0.5723 0.5495 0.0000 -13859.9051 2290.9692 0.0000 0.0000 349.0260 -11218.4279 60.0471 -11567.4539 -11217.5862 59.7936 -867.0837 -806.2060 28318.0241 3.5649 3.5763
TCL: Running 100000 steps at 90 kelvin.
TCL: Setting parameter langevinTemp to 90
TCL: Running for 100000 steps
ETITLE: TS BOND ANGLE DIHED IMPRP ELECT VDW BOUNDARY MISC KINETIC TOTAL TEMP POTENTIAL TOTAL3 TEMPAVG PRESSURE GPRESSURE VOLUME PRESSAVG GPRESSAVG
ENERGY: 200000 0.3602 0.5723 0.5495 0.0000 -13859.9051 2290.9692 0.0000 0.0000 348.8498 -11218.6041 60.0168 -11567.4539 -11217.7961 60.0168 -861.9820 -806.5608 28318.0241 -861.9820 -806.5608
ENERGY: 300000 0.4088 1.1975 0.8239 0.0000 -13891.8315 2402.8666 0.0000 0.0000 535.3898 -10951.1448 92.1095 -11486.5346 -10950.4438 89.9096 624.0358 640.0715 27990.7554 3.9886 3.9274
TCL: Running 100000 steps at 120 kelvin.
TCL: Setting parameter langevinTemp to 120
TCL: Running for 100000 steps
ETITLE: TS BOND ANGLE DIHED IMPRP ELECT VDW BOUNDARY MISC KINETIC TOTAL TEMP POTENTIAL TOTAL3 TEMPAVG PRESSURE GPRESSURE VOLUME PRESSAVG GPRESSAVG
ENERGY: 300000 0.4088 1.1975 0.8239 0.0000 -13891.8315 2402.8666 0.0000 0.0000 535.1258 -10951.4089 92.0641 -11486.5346 -10950.4214 92.0641 588.2327 639.5681 27990.7554 588.2327 639.5681
ENERGY: 400000 0.1595 1.5938 0.7145 0.0000 -13637.4070 2289.1842 0.0000 0.0000 683.7618 -10661.9932 117.6358 -11345.7550 -10659.7956 120.0704 -33.2873 -14.0436 28439.9443 2.1869 2.1946
TCL: Running 100000 steps at 150 kelvin.
TCL: Setting parameter langevinTemp to 150
TCL: Running for 100000 steps
ETITLE: TS BOND ANGLE DIHED IMPRP ELECT VDW BOUNDARY MISC KINETIC TOTAL TEMP POTENTIAL TOTAL3 TEMPAVG PRESSURE GPRESSURE VOLUME PRESSAVG GPRESSAVG
ENERGY: 400000 0.1595 1.5938 0.7145 0.0000 -13637.4070 2289.1842 0.0000 0.0000 683.4120 -10662.3430 117.5756 -11345.7550 -10661.2475 117.5756 -74.4632 -12.7022 28439.9443 -74.4632 -12.7022
ENERGY: 500000 0.6775 2.0312 1.1680 0.0000 -13486.3176 2286.6624 0.0000 0.0000 896.5483 -10299.2301 154.2440 -11195.7784 -10298.2391 150.0398 531.0096 578.7397 28502.9765 4.1062 4.1509
TCL: Running 100000 steps at 180 kelvin.
TCL: Setting parameter langevinTemp to 180
TCL: Running for 100000 steps
ETITLE: TS BOND ANGLE DIHED IMPRP ELECT VDW BOUNDARY MISC KINETIC TOTAL TEMP POTENTIAL TOTAL3 TEMPAVG PRESSURE GPRESSURE VOLUME PRESSAVG GPRESSAVG
ENERGY: 500000 0.6775 2.0312 1.1680 0.0000 -13486.3176 2286.6624 0.0000 0.0000 896.1171 -10299.6613 154.1698 -11195.7784 -10297.8508 154.1698 517.6829 576.7286 28502.9765 517.6829 576.7286
ENERGY: 600000 0.2186 2.3958 0.8484 0.0000 -12946.8735 2090.9465 0.0000 0.0000 1022.3741 -9830.0901 175.8913 -10852.4642 -9827.9956 180.0222 84.3558 151.2415 28463.6161 3.8251 3.8814
TCL: Running 100000 steps at 210 kelvin.
TCL: Setting parameter langevinTemp to 210
TCL: Running for 100000 steps
ETITLE: TS BOND ANGLE DIHED IMPRP ELECT VDW BOUNDARY MISC KINETIC TOTAL TEMP POTENTIAL TOTAL3 TEMPAVG PRESSURE GPRESSURE VOLUME PRESSAVG GPRESSAVG
ENERGY: 600000 0.2186 2.3958 0.8484 0.0000 -12946.8735 2090.9465 0.0000 0.0000 1021.8564 -9830.6078 175.8022 -10852.4642 -9828.6345 175.8022 81.3210 150.8547 28463.6161 81.3210 150.8547
ENERGY: 700000 0.8791 3.4432 0.8677 0.0000 -12356.5659 1925.4677 0.0000 0.0000 1222.1028 -9203.8054 210.2530 -10425.9083 -9199.5863 210.0062 337.8461 378.9226 28649.1172 4.5747 4.5752
TCL: Running 100000 steps at 240 kelvin.
TCL: Setting parameter langevinTemp to 240
TCL: Running for 100000 steps
ETITLE: TS BOND ANGLE DIHED IMPRP ELECT VDW BOUNDARY MISC KINETIC TOTAL TEMP POTENTIAL TOTAL3 TEMPAVG PRESSURE GPRESSURE VOLUME PRESSAVG GPRESSAVG
ENERGY: 700000 0.8791 3.4432 0.8677 0.0000 -12356.5659 1925.4677 0.0000 0.0000 1221.4776 -9204.4307 210.1455 -10425.9083 -9202.5192 210.1455 294.6948 379.5955 28649.1172 294.6948 379.5955
ENERGY: 800000 1.1714 1.1564 0.5936 0.0000 -11830.0498 1799.3141 0.0000 0.0000 1394.3295 -8633.4849 239.8832 -10027.8144 -8630.7932 239.8115 659.4073 797.4343 28686.3465 3.2623 3.3732
TCL: Running 100000 steps at 270 kelvin.
TCL: Setting parameter langevinTemp to 270
TCL: Running for 100000 steps
ETITLE: TS BOND ANGLE DIHED IMPRP ELECT VDW BOUNDARY MISC KINETIC TOTAL TEMP POTENTIAL TOTAL3 TEMPAVG PRESSURE GPRESSURE VOLUME PRESSAVG GPRESSAVG
ENERGY: 800000 1.1714 1.1564 0.5936 0.0000 -11830.0498 1799.3141 0.0000 0.0000 1393.6136 -8634.2008 239.7601 -10027.8144 -8632.2813 239.7601 716.0276 797.7422 28686.3465 716.0276 797.7422
ENERGY: 900000 0.5757 3.5546 1.0809 0.0000 -11224.7429 1629.1085 0.0000 0.0000 1617.8307 -7972.5925 278.3348 -9590.4231 -7969.3867 269.8406 763.3094 888.2872 29008.0196 2.2182 2.0964
TCL: Running 1000000 steps at 300 kelvin.
TCL: Setting parameter langevinTemp to 300
TCL: Running for 1000000 steps
ETITLE: TS BOND ANGLE DIHED IMPRP ELECT VDW BOUNDARY MISC KINETIC TOTAL TEMP POTENTIAL TOTAL3 TEMPAVG PRESSURE GPRESSURE VOLUME PRESSAVG GPRESSAVG
ENERGY: 900000 0.5757 3.5546 1.0809 0.0000 -11224.7429 1629.1085 0.0000 0.0000 1616.9993 -7973.4238 278.1918 -9590.4231 -7970.8455 278.1918 803.4473 887.0830 29008.0196 803.4473 887.0830
ENERGY: 1100000 0.3460 4.4794 1.1335 0.0000 -10795.3623 1503.7905 0.0000 0.0000 1745.4781 -7540.1348 300.2956 -9285.6129 -7537.0896 300.2263 366.5999 461.2919 29995.6559 2.6654 2.7205
ENERGY: 1300000 0.5599 2.6703 0.7392 0.0000 -10614.7405 1394.2807 0.0000 0.0000 1735.2860 -7481.2043 298.5421 -9216.4903 -7479.5515 299.7915 -120.0182 -64.9916 29811.0143 2.0913 2.1678
ENERGY: 1500000 0.4493 3.2213 0.5939 0.0000 -10490.7718 1406.9722 0.0000 0.0000 1788.1724 -7291.3626 307.6408 -9079.5350 -7288.8948 301.0631 -71.1327 73.3473 30793.9150 2.1447 2.0300
ENERGY: 1700000 0.2831 3.1648 2.5877 0.0000 -10674.8205 1474.3411 0.0000 0.0000 1750.0071 -7444.4367 301.0747 -9194.4438 -7439.9374 299.6393 146.6388 148.5022 30587.7081 0.3432 0.4542
ENERGY: 1900000 1.5085 5.2643 0.8857 0.0000 -10664.9182 1444.9792 0.0000 0.0000 1799.2214 -7413.0591 309.5417 -9212.2805 -7410.1635 300.0347 -285.5548 -199.7453 30439.3495 3.4354 3.3240
TCL: Exiting due to exit command.
