Info: SIMULATION PARAMETERS:
Info: TIMESTEP               2
Info: NUMBER OF STEPS        0
Info: STEPS PER CYCLE        10
Info: PERIODIC CELL BASIS 1  32.3633 0 0
Info: PERIODIC CELL BASIS 2  0 30.3008 0
Info: PERIODIC CELL BASIS 3  0 0 30.9146
Info: PERIODIC CELL CENTER   0 0 0
Info: WRAPPING WATERS AROUND PERIODIC BOUNDARIES ON OUTPUT.
Info: WRAPPING ALL CLUSTERS AROUND PERIODIC BOUNDARIES ON OUTPUT.
Info: FIRST LDB TIMESTEP     50
Info: LAST LDB TIMESTEP     -1
Info: HOM BACKGROUND SCALING 1
Info: PME BACKGROUND SCALING 1
Info: MIN ATOMS PER PATCH    40
Info: EMPTY PATCH LOAD       40 ATOMS
Info: VELOCITY FILE          mobley_1107178_equil.vel
Info: CENTER OF MASS MOVING INITIALLY? NO
Info: DIELECTRIC             1
Info: EXCLUDE                SCALED ONE-FOUR
Info: 1-4 ELECTROSTATICS SCALED BY 0.833333
Info: MODIFIED 1-4 VDW PARAMETERS WILL BE USED
Info: DCD FILENAME           mobley_1107178_prod.dcd
Info: DCD FREQUENCY          100000
Info: DCD FIRST STEP         100000
Info: DCD FILE WILL CONTAIN UNIT CELL DATA
Info: XST FILENAME           mobley_1107178_prod.xst
Info: XST FREQUENCY          100000
Info: NO VELOCITY DCD OUTPUT
Info: NO FORCE DCD OUTPUT
Info: OUTPUT FILENAME        mobley_1107178_prod
Info: BINARY OUTPUT FILES WILL BE USED
Info: RESTART FILENAME       mobley_1107178_prod.restart
Info: RESTART FREQUENCY      100000
Info: BINARY RESTART FILES WILL BE USED
Info: CUTOFF                 9
Info: PAIRLIST DISTANCE      11
Info: PAIRLIST SHRINK RATE   0.01
Info: PAIRLIST GROW RATE     0.01
Info: PAIRLIST TRIGGER       0.3
Info: PAIRLISTS PER CYCLE    2
Info: PAIRLISTS ENABLED
Info: MARGIN                 2
Info: HYDROGEN GROUP CUTOFF  2.5
Info: PATCH DIMENSION        15.5
Info: ENERGY OUTPUT STEPS    100000
Info: ENERGY EVALUATION STEPS    100000
Info: OUTPUT ENERGY PRECISION 4
Info: CROSSTERM ENERGY INCLUDED IN DIHEDRAL
Info: TIMING OUTPUT STEPS    1000000
Info: PRESSURE OUTPUT STEPS  100000
Info: ALCHEMICAL FEP ON
Info: FEP CURRENT LAMBDA VALUE     0
Info: FEP COMPARISON LAMBDA VALUE  0.05
Info: FEP INTRA-ALCHEMICAL NON-BONDED INTERACTIONS WILL BE RETAINED
Info: FEP INTRA-ALCHEMICAL BONDED INTERACTIONS WILL BE RETAINED
Info: FEP VDW SHIFTING COEFFICIENT 5
Info: FEP ELEC. ACTIVE FOR ANNIHILATED PARTICLES BETWEEN LAMBDA = 0 AND LAMBDA = 0.5
Info: FEP ELEC. ACTIVE FOR EXNIHILATED PARTICLES BETWEEN LAMBDA = 0.5 AND LAMBDA = 1
Info: FEP VDW ACTIVE FOR ANNIHILATED PARTICLES BETWEEN LAMBDA = 0 AND LAMBDA = 1
Info: FEP VDW ACTIVE FOR EXNIHILATED PARTICLES BETWEEN LAMBDA = 0 AND LAMBDA = 1
Info: FEP BOND ACTIVE FOR ANNIHILATED PARTICLES BETWEEN LAMBDA = 1 AND LAMBDA = 1
Info: FEP BOND ACTIVE FOR EXNIHILATED PARTICLES BETWEEN LAMBDA = 0 AND LAMBDA = 0
Info: LANGEVIN DYNAMICS ACTIVE
Info: LANGEVIN TEMPERATURE   300
Info: LANGEVIN USING BBK INTEGRATOR
Info: LANGEVIN DAMPING COEFFICIENT IS 1 INVERSE PS
Info: LANGEVIN DYNAMICS APPLIED TO HYDROGENS
Info: LANGEVIN PISTON PRESSURE CONTROL ACTIVE
Info:        TARGET PRESSURE IS 1.01325 BAR
Info:     OSCILLATION PERIOD IS 50 FS
Info:             DECAY TIME IS 25 FS
Info:     PISTON TEMPERATURE IS 300 K
Info:       PRESSURE CONTROL IS GROUP-BASED
Info:    INITIAL STRAIN RATE IS -0.000569782 -0.000569782 -0.000569782
Info:       CELL FLUCTUATION IS ISOTROPIC
Info: PARTICLE MESH EWALD (PME) ACTIVE
Info: PME TOLERANCE               1e-06
Info: PME EWALD COEFFICIENT       0.348832
Info: PME INTERPOLATION ORDER     4
Info: PME GRID DIMENSIONS         36 32 32
Info: PME MAXIMUM GRID SPACING    1
Info: PME CALCULATION WILL BE PERFORMED ON GPU
Info: FULL ELECTROSTATIC EVALUATION FREQUENCY      2
Info: USING VERLET I (r-RESPA) MTS SCHEME.
Info: C1 SPLITTING OF LONG RANGE ELECTROSTATICS
Info: PLACING ATOMS IN PATCHES BY HYDROGEN GROUPS
Info: RIGID BONDS TO HYDROGEN : ALL
Info:         ERROR TOLERANCE : 1e-08
Info:          MAX ITERATIONS : 100
Info: RIGID WATER USING SETTLE ALGORITHM
Info: RANDOM NUMBER SEED     1743479849
Info: USE HYDROGEN BONDS?    NO
Info: Using AMBER format force field!
Info: AMBER PARM FILE        mobley_1107178.prmtop
Info: COORDINATE PDB         mobley_1107178.pdb
Info: Exclusions will be read from PARM file!
Info: SCNB (VDW SCALING)     2
Info: USING ARITHMETIC MEAN TO COMBINE L-J SIGMA PARAMETERS
Info: BINARY COORDINATES     mobley_1107178_equil.coor
Info: SUMMARY OF PARAMETERS:
Info: 6 BONDS
Info: 6 ANGLES
Info:   6 HARMONIC
Info:   0 COSINE-BASED
Info: 1 DIHEDRAL
Info: 0 IMPROPER
Info: 0 CROSSTERM
Info: 0 VDW
Info: 21 VDW_PAIRS
Info: 0 NBTHOLE_PAIRS
Info: To read alchdata from file: mobley_1107178.pdb
Info: To read alchflag data from column: 5
Info: STRUCTURE SUMMARY:
Info: 2954 ATOMS
Info: 2953 BONDS
Info: 12 ANGLES
Info: 9 DIHEDRALS
Info: 0 IMPROPERS
Info: 0 CROSSTERMS
Info: 2974 EXCLUSIONS
Info: 2951 RIGID BONDS
Info: ALCH: 0 ATOMS TO DISAPPEAR IN FINAL STATE
Info: ALCH: 8 ATOMS TO APPEAR IN FINAL STATE
Info: 5911 DEGREES OF FREEDOM
Info: 985 HYDROGEN GROUPS
Info: 4 ATOMS IN LARGEST HYDROGEN GROUP
Info: 985 MIGRATION GROUPS
Info: 4 ATOMS IN LARGEST MIGRATION GROUP
Info: TOTAL MASS = 17847.7 amu
Info: TOTAL CHARGE = 0.000100002 e
Info: MASS DENSITY = 0.977622 g/cm^3
Info: ATOM DENSITY = 0.0974408 atoms/A^3
Info: ADDED 0 IMPLICIT EXCLUSIONS
Info: NONBONDED TABLE R-SQUARED SPACING: 0.0625
Info: NONBONDED TABLE SIZE: 705 POINTS
Info: REMOVING COM VELOCITY 0.0125442 0.13062 0.122789
Info: Use 3D box decompostion in PME FFT.
Info: Updated CUDA force table with 4096 elements.
Info: Updated CUDA LJ table with 6 x 6 elements.
Info: Found 11 unique exclusion lists needing 16 bytes
TCL: Running for 1500000 steps
ETITLE: TS BOND ANGLE DIHED IMPRP ELECT VDW BOUNDARY MISC KINETIC TOTAL TEMP POTENTIAL TOTALAVG TEMPAVG PRESSURE GPRESSURE VOLUME PRESSAVG GPRESSAVG
ENERGY: 0 0.1215 3.3620 1.1580 0.0000 -10801.5068 1496.6142 0.0000 0.0000 1734.2068 -7566.0443 295.2775 -9300.2511 -7566.0443 295.2775 355.6545 438.7343 30315.8550 355.6545 438.7343
ENERGY: 300000 0.6612 3.5241 0.1979 0.0000 -10698.7908 1416.9131 0.0000 0.0000 1760.9898 -7516.5047 299.8377 -9277.4945 -7517.9164 299.5218 -194.6824 -180.3035 30215.3847 -138.7403 -65.2352
ENERGY: 600000 0.9474 3.5742 0.1004 0.0000 -10588.4317 1362.3138 0.0000 0.0000 1784.7206 -7436.7753 303.8783 -9221.4959 -7498.0880 302.2354 -658.2316 -593.7131 30694.5302 -207.1911 -138.7238
ENERGY: 900000 0.1124 2.8806 0.0248 0.0000 -10732.4273 1455.1737 0.0000 0.0000 1781.3723 -7492.8636 303.3082 -9274.2359 -7515.7765 301.0448 66.9115 129.3362 30332.9709 -111.6593 -49.0330
ENERGY: 1200000 0.1376 3.4979 0.2001 0.0000 -10699.4703 1455.6765 0.0000 0.0000 1789.9266 -7450.0317 304.7647 -9239.9583 -7513.3616 300.7623 -92.0288 51.3523 30689.4184 -91.8013 -16.8365
ENERGY: 1500000 0.9355 3.0472 0.1813 0.0000 -10768.4756 1465.2198 0.0000 0.0000 1762.7794 -7536.3124 300.1424 -9299.0918 -7513.4261 301.0763 -49.2608 -32.3082 30449.1222 -50.9004 27.4381
TCL: Running FEP window   2: Lambda1 0.05   Lambda2 0.1    [dLambda 0.05  ]
TCL: Setting parameter firsttimestep to 0
TCL: Setting parameter alchLambda to 0.05
Info: NONBONDED TABLE R-SQUARED SPACING: 0.0625
Info: NONBONDED TABLE SIZE: 705 POINTS
TCL: Setting parameter alchLambda2 to 0.1
Info: NONBONDED TABLE R-SQUARED SPACING: 0.0625
Info: NONBONDED TABLE SIZE: 705 POINTS
TCL: Running for 1500000 steps
ETITLE: TS BOND ANGLE DIHED IMPRP ELECT VDW BOUNDARY MISC KINETIC TOTAL TEMP POTENTIAL TOTALAVG TEMPAVG PRESSURE GPRESSURE VOLUME PRESSAVG GPRESSAVG
ENERGY: 0 0.9355 3.0472 0.1813 0.0000 -10768.4753 1466.6043 0.0000 0.0000 1761.8828 -7535.8242 299.9898 -9297.7070 -7535.8242 299.9898 -96.4032 -28.0312 30449.1222 -96.4032 -28.0312
ENERGY: 300000 0.6531 2.3944 0.2711 0.0000 -10790.6671 1468.4780 0.0000 0.0000 1746.7934 -7572.0771 297.4205 -9318.8705 -7527.7966 300.6411 -309.4316 -230.3033 30956.9610 -141.1491 -70.4238
ENERGY: 600000 0.0961 2.8281 0.4955 0.0000 -10822.5640 1523.0577 0.0000 0.0000 1716.9722 -7579.1143 292.3430 -9296.0865 -7510.0239 300.0649 645.5487 715.4831 29961.0053 116.0791 174.6245
ENERGY: 900000 0.3976 5.1683 1.0162 0.0000 -10776.5253 1448.6881 0.0000 0.0000 1778.2548 -7543.0003 302.7774 -9321.2551 -7509.3930 299.6428 31.3539 49.2411 30199.6483 19.3234 76.3740
ENERGY: 1200000 0.5938 2.8793 1.5325 0.0000 -10621.4479 1374.3333 0.0000 0.0000 1765.3025 -7476.8064 300.5720 -9242.1090 -7509.2313 299.8537 -627.4957 -573.5639 30896.3963 -134.2523 -76.5872
ENERGY: 1500000 1.2312 3.6960 0.9136 0.0000 -10768.4666 1439.5261 0.0000 0.0000 1741.3170 -7581.7825 296.4881 -9323.0995 -7519.1450 298.8260 -185.6700 -130.8197 30303.3228 -213.2886 -152.0031
TCL: Running FEP window   3: Lambda1 0.1    Lambda2 0.15000000000000002 [dLambda 0.05000000000000002]
TCL: Setting parameter firsttimestep to 0
TCL: Setting parameter alchLambda to 0.1
Info: NONBONDED TABLE R-SQUARED SPACING: 0.0625
Info: NONBONDED TABLE SIZE: 705 POINTS
TCL: Setting parameter alchLambda2 to 0.15000000000000002
Info: NONBONDED TABLE R-SQUARED SPACING: 0.0625
Info: NONBONDED TABLE SIZE: 705 POINTS
TCL: Running for 1500000 steps
ETITLE: TS BOND ANGLE DIHED IMPRP ELECT VDW BOUNDARY MISC KINETIC TOTAL TEMP POTENTIAL TOTALAVG TEMPAVG PRESSURE GPRESSURE VOLUME PRESSAVG GPRESSAVG
ENERGY: 0 1.2312 3.6960 0.9136 0.0000 -10768.4672 1443.4377 0.0000 0.0000 1740.4036 -7578.7850 296.3326 -9319.1886 -7578.7850 296.3326 -204.0739 -118.6992 30303.3228 -204.0739 -118.6992
ENERGY: 300000 0.3878 4.8223 0.1497 0.0000 -10794.3989 1512.0904 0.0000 0.0000 1802.3911 -7474.5575 306.8870 -9276.9487 -7557.7029 296.8933 636.2768 624.0754 30233.1043 346.0182 395.4834
ENERGY: 600000 0.1654 2.8975 0.1675 0.0000 -10734.0856 1454.2730 0.0000 0.0000 1768.3895 -7508.1927 301.0976 -9276.5822 -7540.5979 298.5362 -124.8497 -74.9862 30594.8012 -13.5158 52.4387
ENERGY: 900000 0.4451 4.1072 0.8804 0.0000 -10769.6032 1501.7079 0.0000 0.0000 1766.8768 -7495.5857 300.8401 -9262.4626 -7541.4699 298.1959 337.4923 406.0781 30270.4241 -41.7831 18.7232
ENERGY: 1200000 0.5508 3.5646 0.0607 0.0000 -10815.6794 1531.3473 0.0000 0.0000 1772.0756 -7508.0803 301.7253 -9280.1560 -7537.8722 298.5705 566.1519 590.3300 30348.9981 -7.9501 41.9495
ENERGY: 1500000 0.5180 4.4875 0.2552 0.0000 -10850.0688 1529.9773 0.0000 0.0000 1749.4493 -7565.3815 297.8728 -9314.8308 -7540.2759 298.7839 755.3111 792.4010 29973.7356 28.9933 82.8730
TCL: Running FEP window   4: Lambda1 0.15000000000000002 Lambda2 0.2    [dLambda 0.04999999999999999]
TCL: Setting parameter firsttimestep to 0
TCL: Setting parameter alchLambda to 0.15000000000000002
Info: NONBONDED TABLE R-SQUARED SPACING: 0.0625
Info: NONBONDED TABLE SIZE: 705 POINTS
TCL: Setting parameter alchLambda2 to 0.2
Info: NONBONDED TABLE R-SQUARED SPACING: 0.0625
Info: NONBONDED TABLE SIZE: 705 POINTS
TCL: Running for 1500000 steps
ETITLE: TS BOND ANGLE DIHED IMPRP ELECT VDW BOUNDARY MISC KINETIC TOTAL TEMP POTENTIAL TOTALAVG TEMPAVG PRESSURE GPRESSURE VOLUME PRESSAVG GPRESSAVG
ENERGY: 0 0.5180 4.4875 0.2552 0.0000 -10850.0691 1530.3211 0.0000 0.0000 1748.6014 -7565.8859 297.7284 -9314.4873 -7565.8859 297.7284 717.5480 797.3853 29973.7356 717.5480 797.3853
ENERGY: 300000 0.3851 7.0865 0.0567 0.0000 -10709.4216 1438.1478 0.0000 0.0000 1795.5615 -7468.1838 305.7241 -9263.7454 -7531.1031 299.9188 -194.7027 -147.3696 30525.7449 -2.6212 56.1910
ENERGY: 600000 0.8392 1.9964 0.0420 0.0000 -10733.4625 1403.6284 0.0000 0.0000 1763.2105 -7563.7461 300.2158 -9326.9566 -7518.4063 299.7804 -439.5576 -413.9785 30475.2321 -137.1067 -96.8996
ENERGY: 900000 0.5574 1.1886 0.0548 0.0000 -10711.0472 1478.5982 0.0000 0.0000 1775.0090 -7455.6391 302.2247 -9230.6482 -7516.6041 299.1999 276.7038 342.0695 30737.5952 -130.3164 -84.8352
ENERGY: 1200000 0.8465 1.6210 0.1224 0.0000 -10681.4050 1432.7356 0.0000 0.0000 1759.3138 -7486.7658 299.5524 -9246.0796 -7519.7438 299.1366 -189.7910 -78.2679 30744.0472 -196.2981 -147.5900
ENERGY: 1500000 1.5842 4.6955 0.1992 0.0000 -10722.4701 1469.9817 0.0000 0.0000 1745.5359 -7500.4735 297.2064 -9246.0094 -7514.5792 299.3274 142.8532 196.5100 30453.8113 -157.0176 -111.1275
TCL: Running FEP window   5: Lambda1 0.2    Lambda2 0.25   [dLambda 0.04999999999999999]
TCL: Setting parameter firsttimestep to 0
TCL: Setting parameter alchLambda to 0.2
Info: NONBONDED TABLE R-SQUARED SPACING: 0.0625
Info: NONBONDED TABLE SIZE: 705 POINTS
TCL: Setting parameter alchLambda2 to 0.25
Info: NONBONDED TABLE R-SQUARED SPACING: 0.0625
Info: NONBONDED TABLE SIZE: 705 POINTS
TCL: Running for 1500000 steps
ETITLE: TS BOND ANGLE DIHED IMPRP ELECT VDW BOUNDARY MISC KINETIC TOTAL TEMP POTENTIAL TOTALAVG TEMPAVG PRESSURE GPRESSURE VOLUME PRESSAVG GPRESSAVG
ENERGY: 0 1.5842 4.6955 0.1992 0.0000 -10722.4708 1470.4309 0.0000 0.0000 1744.6625 -7500.8984 297.0577 -9245.5609 -7500.8984 297.0577 121.2186 201.5257 30453.8113 121.2186 201.5257
ENERGY: 300000 0.0584 2.3759 0.1248 0.0000 -10733.5216 1464.4018 0.0000 0.0000 1710.6575 -7555.9032 291.2678 -9266.5607 -7491.8583 299.5070 -324.0473 -250.9906 31336.5284 14.5214 86.6354
ENERGY: 600000 1.4685 4.8044 0.2186 0.0000 -10765.0276 1451.8299 0.0000 0.0000 1756.0187 -7550.6875 298.9913 -9306.7062 -7513.8524 299.1397 -70.3891 -27.3454 30417.1259 -59.6112 9.0133
ENERGY: 900000 0.1068 2.1970 0.0366 0.0000 -10746.4868 1423.8466 0.0000 0.0000 1721.6002 -7598.6996 293.1310 -9320.2999 -7522.2962 298.9435 -182.7725 -157.1647 30344.1929 -113.8422 -55.7068
ENERGY: 1200000 0.2042 1.6683 0.0395 0.0000 -10646.5400 1403.1994 0.0000 0.0000 1779.9078 -7461.5207 303.0588 -9241.4285 -7506.4285 299.5118 -524.1309 -381.9529 30822.4171 -162.6281 -93.1004
ENERGY: 1500000 0.1850 2.3724 0.1712 0.0000 -10575.2968 1333.1171 0.0000 0.0000 1702.9228 -7536.5283 289.9509 -9239.4511 -7510.4492 299.1802 -1170.3103 -1105.1521 31008.6902 -228.6204 -164.0308
TCL: Running FEP window   6: Lambda1 0.25   Lambda2 0.3    [dLambda 0.04999999999999999]
TCL: Setting parameter firsttimestep to 0
TCL: Setting parameter alchLambda to 0.25
Info: NONBONDED TABLE R-SQUARED SPACING: 0.0625
Info: NONBONDED TABLE SIZE: 705 POINTS
TCL: Setting parameter alchLambda2 to 0.3
Info: NONBONDED TABLE R-SQUARED SPACING: 0.0625
Info: NONBONDED TABLE SIZE: 705 POINTS
TCL: Running for 1500000 steps
ETITLE: TS BOND ANGLE DIHED IMPRP ELECT VDW BOUNDARY MISC KINETIC TOTAL TEMP POTENTIAL TOTALAVG TEMPAVG PRESSURE GPRESSURE VOLUME PRESSAVG GPRESSAVG
ENERGY: 0 0.1850 2.3724 0.1712 0.0000 -10575.2968 1333.8402 0.0000 0.0000 1702.0255 -7536.7025 289.7981 -9238.7280 -7536.7025 289.7981 -1177.7831 -1098.4926 31008.6902 -1177.7831 -1098.4926
ENERGY: 300000 0.3020 1.5078 0.0047 0.0000 -10721.0486 1386.1400 0.0000 0.0000 1811.9952 -7521.0990 308.5222 -9333.0942 -7541.8510 298.5394 -805.0020 -754.7817 30705.7661 -412.6552 -343.0816
ENERGY: 600000 0.0701 2.1363 0.1906 0.0000 -10636.4250 1394.4245 0.0000 0.0000 1775.9186 -7463.6849 302.3796 -9239.6035 -7532.4037 300.1722 -148.5218 -102.7171 30246.1244 -167.8710 -108.0565
ENERGY: 900000 0.3359 2.5999 0.1077 0.0000 -10498.9535 1378.5377 0.0000 0.0000 1798.8266 -7318.5457 306.2801 -9117.3724 -7511.8560 300.2337 -188.4284 -194.4489 30970.5445 -149.4312 -97.4307
ENERGY: 1200000 1.7538 3.3765 0.0372 0.0000 -10576.6090 1386.1638 0.0000 0.0000 1764.1546 -7421.1232 300.3766 -9185.2777 -7508.1875 300.3330 -194.9627 -99.4691 30539.7853 -170.1247 -117.1323
ENERGY: 1500000 0.1523 3.0094 0.0509 0.0000 -10720.7913 1432.7387 0.0000 0.0000 1760.3903 -7524.4497 299.7356 -9284.8400 -7505.8137 299.8873 69.9093 142.5654 30197.3975 -115.7879 -62.2581
TCL: Running FEP window   7: Lambda1 0.3    Lambda2 0.35   [dLambda 0.04999999999999999]
TCL: Setting parameter firsttimestep to 0
TCL: Setting parameter alchLambda to 0.3
Info: NONBONDED TABLE R-SQUARED SPACING: 0.0625
Info: NONBONDED TABLE SIZE: 705 POINTS
TCL: Setting parameter alchLambda2 to 0.35
Info: NONBONDED TABLE R-SQUARED SPACING: 0.0625
Info: NONBONDED TABLE SIZE: 705 POINTS
TCL: Running for 1500000 steps
ETITLE: TS BOND ANGLE DIHED IMPRP ELECT VDW BOUNDARY MISC KINETIC TOTAL TEMP POTENTIAL TOTALAVG TEMPAVG PRESSURE GPRESSURE VOLUME PRESSAVG GPRESSAVG
ENERGY: 0 0.1523 3.0094 0.0509 0.0000 -10720.7915 1432.6485 0.0000 0.0000 1759.4921 -7525.4384 299.5827 -9284.9305 -7525.4384 299.5827 60.5747 145.4536 30197.3975 60.5747 145.4536
ENERGY: 300000 2.4344 1.6688 0.0194 0.0000 -10648.6732 1386.8304 0.0000 0.0000 1760.8889 -7496.8314 299.8205 -9257.7202 -7507.6586 296.5790 -227.0756 -140.6188 30122.4667 -302.2037 -221.7731
ENERGY: 600000 2.1771 4.5271 0.1159 0.0000 -10678.3657 1432.4005 0.0000 0.0000 1767.3299 -7471.8152 300.9172 -9239.1451 -7504.5363 297.5089 177.9904 276.8460 29980.1934 -218.5053 -144.8180
ENERGY: 900000 0.9255 2.3235 0.6419 0.0000 -10708.3526 1482.6168 0.0000 0.0000 1757.5365 -7464.3084 299.2497 -9221.8449 -7492.0795 297.7188 377.1844 487.5527 30645.7690 -48.4751 21.5164
ENERGY: 1200000 0.2155 2.3667 0.8133 0.0000 -10865.7520 1537.0745 0.0000 0.0000 1746.7131 -7578.5689 297.4069 -9325.2820 -7500.7566 298.7992 536.1573 576.4522 30538.3547 -18.5711 51.6794
ENERGY: 1500000 0.6705 1.8177 0.1258 0.0000 -10617.7006 1385.0233 0.0000 0.0000 1766.2315 -7463.8317 300.7302 -9230.0633 -7506.1279 299.5462 -411.4014 -390.6238 30729.8526 22.5869 84.9297
TCL: Running FEP window   8: Lambda1 0.35   Lambda2 0.39999999999999997 [dLambda 0.04999999999999999]
TCL: Setting parameter firsttimestep to 0
TCL: Setting parameter alchLambda to 0.35
Info: NONBONDED TABLE R-SQUARED SPACING: 0.0625
Info: NONBONDED TABLE SIZE: 705 POINTS
TCL: Setting parameter alchLambda2 to 0.39999999999999997
Info: NONBONDED TABLE R-SQUARED SPACING: 0.0625
Info: NONBONDED TABLE SIZE: 705 POINTS
TCL: Running for 1500000 steps
ETITLE: TS BOND ANGLE DIHED IMPRP ELECT VDW BOUNDARY MISC KINETIC TOTAL TEMP POTENTIAL TOTALAVG TEMPAVG PRESSURE GPRESSURE VOLUME PRESSAVG GPRESSAVG
ENERGY: 0 0.6705 1.8177 0.1258 0.0000 -10617.6994 1385.2045 0.0000 0.0000 1765.3897 -7464.4912 300.5869 -9229.8809 -7464.4912 300.5869 -467.9826 -384.1968 30729.8526 -467.9826 -384.1968
ENERGY: 300000 0.3421 3.8119 0.9482 0.0000 -10873.2748 1542.7102 0.0000 0.0000 1791.8368 -7533.6257 305.0899 -9325.4625 -7529.7102 298.9954 657.6627 718.0347 30323.6378 -391.3030 -306.1928
ENERGY: 600000 0.3144 3.8263 0.2268 0.0000 -10933.3578 1642.8711 0.0000 0.0000 1782.7960 -7503.3231 303.5506 -9286.1191 -7542.8722 299.0906 1733.0444 1749.2807 29915.2723 -12.8952 55.7117
ENERGY: 900000 0.1437 2.1588 0.1579 0.0000 -10672.0421 1363.2145 0.0000 0.0000 1778.0574 -7528.3098 302.7438 -9306.3672 -7532.6886 300.7666 -637.7647 -609.2312 30234.8798 52.4230 110.9077
ENERGY: 1200000 0.0145 3.3996 0.1014 0.0000 -10757.1269 1470.8441 0.0000 0.0000 1753.5258 -7529.2413 298.5669 -9282.7672 -7537.8351 300.6246 196.9215 222.3753 30405.5451 9.1977 65.2432
ENERGY: 1500000 1.9281 3.0875 0.3140 0.0000 -10720.2562 1453.5804 0.0000 0.0000 1758.9758 -7502.3704 299.4948 -9261.3462 -7534.0990 300.2759 299.0501 402.5817 30098.4225 -26.9033 28.8768
TCL: Running FEP window   9: Lambda1 0.39999999999999997 Lambda2 0.44999999999999996 [dLambda 0.04999999999999999]
TCL: Setting parameter firsttimestep to 0
TCL: Setting parameter alchLambda to 0.39999999999999997
Info: NONBONDED TABLE R-SQUARED SPACING: 0.0625
Info: NONBONDED TABLE SIZE: 705 POINTS
TCL: Setting parameter alchLambda2 to 0.44999999999999996
Info: NONBONDED TABLE R-SQUARED SPACING: 0.0625
Info: NONBONDED TABLE SIZE: 705 POINTS
TCL: Running for 1500000 steps
ETITLE: TS BOND ANGLE DIHED IMPRP ELECT VDW BOUNDARY MISC KINETIC TOTAL TEMP POTENTIAL TOTALAVG TEMPAVG PRESSURE GPRESSURE VOLUME PRESSAVG GPRESSAVG
ENERGY: 0 1.9281 3.0875 0.3140 0.0000 -10720.2558 1453.4599 0.0000 0.0000 1758.1007 -7503.3656 299.3458 -9261.4663 -7503.3656 299.3458 325.7800 405.0522 30098.4225 325.7800 405.0522
ENERGY: 300000 0.1201 4.3141 1.4944 0.0000 -10742.0468 1480.3044 0.0000 0.0000 1777.9446 -7477.8691 302.7245 -9255.8137 -7503.3431 303.8842 115.1900 179.6090 30729.0508 192.6776 249.6177
ENERGY: 600000 0.2276 1.3597 0.6753 0.0000 -10483.4626 1350.6838 0.0000 0.0000 1741.1385 -7389.3777 296.4577 -9130.5162 -7498.3158 301.0163 -463.6425 -349.1957 30661.7195 -18.4588 45.1409
ENERGY: 900000 0.2018 3.5398 0.5333 0.0000 -10665.3388 1420.1210 0.0000 0.0000 1733.1399 -7507.8030 295.0958 -9240.9429 -7508.4342 300.3401 -13.9605 52.0072 30298.5100 27.2693 92.7779
ENERGY: 1200000 1.2328 5.2233 0.0802 0.0000 -10887.5037 1558.0520 0.0000 0.0000 1753.1825 -7569.7329 298.5084 -9322.9153 -7522.2475 299.4369 636.0318 701.0683 30385.9474 19.0115 82.0348
ENERGY: 1500000 0.2393 2.1272 0.2674 0.0000 -10624.0478 1372.2394 0.0000 0.0000 1805.2637 -7443.9108 307.3761 -9249.1745 -7510.7617 299.6710 -373.9507 -327.3428 30451.4184 -31.9869 29.9801
TCL: Running FEP window  10: Lambda1 0.44999999999999996 Lambda2 0.49999999999999994 [dLambda 0.04999999999999999]
TCL: Setting parameter firsttimestep to 0
TCL: Setting parameter alchLambda to 0.44999999999999996
Info: NONBONDED TABLE R-SQUARED SPACING: 0.0625
Info: NONBONDED TABLE SIZE: 705 POINTS
TCL: Setting parameter alchLambda2 to 0.49999999999999994
Info: NONBONDED TABLE R-SQUARED SPACING: 0.0625
Info: NONBONDED TABLE SIZE: 705 POINTS
TCL: Running for 1500000 steps
ETITLE: TS BOND ANGLE DIHED IMPRP ELECT VDW BOUNDARY MISC KINETIC TOTAL TEMP POTENTIAL TOTALAVG TEMPAVG PRESSURE GPRESSURE VOLUME PRESSAVG GPRESSAVG
ENERGY: 0 0.2393 2.1272 0.2674 0.0000 -10624.0492 1372.1329 0.0000 0.0000 1804.3599 -7444.9225 307.2222 -9249.2824 -7444.9225 307.2222 -381.0036 -321.1123 30451.4184 -381.0036 -321.1123
ENERGY: 300000 0.4963 3.1837 0.3035 0.0000 -10563.4050 1390.5175 0.0000 0.0000 1752.2106 -7416.6934 298.3429 -9168.9040 -7485.6607 301.2783 -362.3270 -308.4500 31009.7537 -191.4628 -107.8700
ENERGY: 600000 0.0612 2.3889 0.1699 0.0000 -10725.9442 1381.8679 0.0000 0.0000 1802.2193 -7539.2369 306.8577 -9341.4562 -7506.4364 302.1835 -402.8146 -300.4681 29982.4271 -227.0021 -158.1447
ENERGY: 900000 1.9786 3.5735 0.2666 0.0000 -10668.4342 1401.2695 0.0000 0.0000 1767.8941 -7493.4519 301.0133 -9261.3460 -7523.6210 301.4064 -543.9090 -477.3408 30743.7528 -208.7222 -135.4191
ENERGY: 1200000 0.2645 2.6845 0.1774 0.0000 -10763.2457 1425.1419 0.0000 0.0000 1761.4804 -7573.4970 299.9213 -9334.9774 -7515.5216 301.0448 -262.3566 -223.0165 30268.4525 -232.8482 -168.6492
ENERGY: 1500000 0.2620 1.8298 1.3229 0.0000 -10722.9612 1475.6039 0.0000 0.0000 1739.1566 -7504.7858 296.1203 -9243.9424 -7517.7363 300.6448 335.1915 297.2141 30428.1011 -169.7568 -110.0330
TCL: Running FEP window  11: Lambda1 0.49999999999999994 Lambda2 0.5499999999999999 [dLambda 0.04999999999999999]
TCL: Setting parameter firsttimestep to 0
TCL: Setting parameter alchLambda to 0.49999999999999994
Info: NONBONDED TABLE R-SQUARED SPACING: 0.0625
Info: NONBONDED TABLE SIZE: 705 POINTS
TCL: Setting parameter alchLambda2 to 0.5499999999999999
Info: NONBONDED TABLE R-SQUARED SPACING: 0.0625
Info: NONBONDED TABLE SIZE: 705 POINTS
TCL: Running for 1500000 steps
ETITLE: TS BOND ANGLE DIHED IMPRP ELECT VDW BOUNDARY MISC KINETIC TOTAL TEMP POTENTIAL TOTALAVG TEMPAVG PRESSURE GPRESSURE VOLUME PRESSAVG GPRESSAVG
ENERGY: 0 0.2621 1.8298 1.3229 0.0000 -10722.9622 1475.4456 0.0000 0.0000 1738.2435 -7505.8582 295.9648 -9244.1017 -7505.8582 295.9648 215.1669 299.8152 30428.1011 215.1669 299.8152
ENERGY: 300000 0.1382 4.4037 0.3773 0.0000 -10679.3592 1379.9369 0.0000 0.0000 1745.9809 -7548.5222 297.2822 -9294.5032 -7526.1869 294.0275 -745.3940 -668.2470 30628.3336 3.1297 67.1567
ENERGY: 600000 1.6298 1.7417 0.0417 0.0000 -10519.2669 1336.5643 0.0000 0.0000 1760.1132 -7419.1762 299.6885 -9179.2894 -7505.4533 295.8931 -692.2234 -619.7493 30863.1729 -139.7214 -61.1041
ENERGY: 900000 2.9191 3.9876 0.9425 0.0000 -10669.4593 1474.3797 0.0000 0.0000 1742.5462 -7444.6842 296.6974 -9187.2304 -7492.9672 297.5108 357.7709 426.9889 30828.6197 -54.0567 24.7513
ENERGY: 1200000 0.1298 7.2793 0.2250 0.0000 -10670.7539 1438.9587 0.0000 0.0000 1757.3344 -7466.8267 299.2153 -9224.1612 -7491.1375 298.0387 96.9298 158.9754 30211.3851 -2.9679 70.4137
ENERGY: 1500000 0.5569 1.5972 0.3223 0.0000 -10682.8124 1420.2555 0.0000 0.0000 1790.2305 -7469.8499 304.8164 -9260.0805 -7488.1011 298.6454 -199.3560 -145.6809 30539.4224 31.4215 98.9180
TCL: Running FEP window  12: Lambda1 0.5499999999999999 Lambda2 0.6    [dLambda 0.050000000000000044]
TCL: Setting parameter firsttimestep to 0
TCL: Setting parameter alchLambda to 0.5499999999999999
Info: NONBONDED TABLE R-SQUARED SPACING: 0.0625
Info: NONBONDED TABLE SIZE: 705 POINTS
TCL: Setting parameter alchLambda2 to 0.6
Info: NONBONDED TABLE R-SQUARED SPACING: 0.0625
Info: NONBONDED TABLE SIZE: 705 POINTS
TCL: Running for 1500000 steps
ETITLE: TS BOND ANGLE DIHED IMPRP ELECT VDW BOUNDARY MISC KINETIC TOTAL TEMP POTENTIAL TOTALAVG TEMPAVG PRESSURE GPRESSURE VOLUME PRESSAVG GPRESSAVG
ENERGY: 0 0.5569 1.5972 0.3223 0.0000 -10682.6666 1419.8479 0.0000 0.0000 1789.3263 -7471.0161 304.6625 -9260.3424 -7471.0161 304.6625 -235.9211 -148.9384 30539.4224 -235.9211 -148.9384
ENERGY: 300000 0.1012 2.9514 0.2881 0.0000 -10681.2994 1456.0028 0.0000 0.0000 1699.0162 -7522.9396 289.2857 -9221.9559 -7513.0899 297.9264 -28.3614 62.8389 30820.6020 5.6679 98.5883
ENERGY: 600000 0.1450 1.4253 0.3155 0.0000 -10597.3410 1417.7432 0.0000 0.0000 1783.5340 -7394.1780 303.6762 -9177.7120 -7487.2225 300.6165 -125.4349 1.1383 30697.0071 120.7885 212.0177
ENERGY: 900000 0.0667 3.0455 0.1784 0.0000 -10767.8101 1444.5397 0.0000 0.0000 1769.5069 -7550.4729 301.2879 -9319.9799 -7496.2283 301.9605 -100.5952 -58.8883 30489.5598 81.9586 155.7056
ENERGY: 1200000 0.6305 1.9392 0.0171 0.0000 -10698.7698 1377.1345 0.0000 0.0000 1777.6400 -7541.4085 302.6727 -9319.0485 -7500.2781 302.3125 -932.3271 -889.4763 31126.1428 -22.7550 48.6134
ENERGY: 1500000 0.0958 3.4905 0.3033 0.0000 -10620.0302 1410.7983 0.0000 0.0000 1740.9292 -7464.4131 296.4221 -9205.3423 -7506.8322 301.3836 -413.9309 -346.9012 30899.1190 -17.4429 46.6688
TCL: Running FEP window  13: Lambda1 0.6    Lambda2 0.65   [dLambda 0.050000000000000044]
TCL: Setting parameter firsttimestep to 0
TCL: Setting parameter alchLambda to 0.6
Info: NONBONDED TABLE R-SQUARED SPACING: 0.0625
Info: NONBONDED TABLE SIZE: 705 POINTS
TCL: Setting parameter alchLambda2 to 0.65
Info: NONBONDED TABLE R-SQUARED SPACING: 0.0625
Info: NONBONDED TABLE SIZE: 705 POINTS
TCL: Running for 1500000 steps
ETITLE: TS BOND ANGLE DIHED IMPRP ELECT VDW BOUNDARY MISC KINETIC TOTAL TEMP POTENTIAL TOTALAVG TEMPAVG PRESSURE GPRESSURE VOLUME PRESSAVG GPRESSAVG
ENERGY: 0 0.0958 3.4905 0.3033 0.0000 -10619.8451 1412.8236 0.0000 0.0000 1740.0383 -7463.0936 296.2704 -9203.1319 -7463.0936 296.2704 -402.8479 -322.3466 30899.1190 -402.8479 -322.3466
ENERGY: 300000 0.3573 6.5341 0.4412 0.0000 -10606.5766 1311.9747 0.0000 0.0000 1704.2272 -7583.0422 290.1730 -9287.2694 -7517.9106 298.0286 -913.2218 -947.3584 30203.1878 -368.2424 -327.5015
ENERGY: 600000 0.0151 1.8993 0.0742 0.0000 -10525.7844 1273.9401 0.0000 0.0000 1796.4843 -7453.3715 305.8812 -9249.8558 -7512.6210 298.8773 -1143.8125 -1096.4526 30473.1921 -363.5761 -304.6566
ENERGY: 900000 0.6381 2.2781 0.0425 0.0000 -10892.9087 1529.6116 0.0000 0.0000 1731.5002 -7628.8381 294.8166 -9360.3384 -7530.6065 298.3728 865.5942 840.6055 29712.7170 -13.6995 39.1807
ENERGY: 1200000 0.1443 3.1021 1.5263 0.0000 -10668.8406 1404.0806 0.0000 0.0000 1780.2536 -7479.7336 303.1177 -9259.9872 -7530.5788 299.1932 -369.8393 -267.3281 30784.7468 -75.5099 -15.5567
ENERGY: 1500000 0.1334 4.2842 0.7636 0.0000 -10698.8873 1428.5690 0.0000 0.0000 1753.7018 -7511.4354 298.5968 -9265.1372 -7519.6215 299.5555 -96.7406 -31.9929 30472.6188 -55.0734 8.4912
TCL: Running FEP window  14: Lambda1 0.65   Lambda2 0.7000000000000001 [dLambda 0.050000000000000044]
TCL: Setting parameter firsttimestep to 0
TCL: Setting parameter alchLambda to 0.65
Info: NONBONDED TABLE R-SQUARED SPACING: 0.0625
Info: NONBONDED TABLE SIZE: 705 POINTS
TCL: Setting parameter alchLambda2 to 0.7000000000000001
Info: NONBONDED TABLE R-SQUARED SPACING: 0.0625
Info: NONBONDED TABLE SIZE: 705 POINTS
TCL: Running for 1500000 steps
ETITLE: TS BOND ANGLE DIHED IMPRP ELECT VDW BOUNDARY MISC KINETIC TOTAL TEMP POTENTIAL TOTALAVG TEMPAVG PRESSURE GPRESSURE VOLUME PRESSAVG GPRESSAVG
ENERGY: 0 0.1334 4.2842 0.7636 0.0000 -10699.1535 1428.8907 0.0000 0.0000 1752.7959 -7512.2858 298.4426 -9265.0816 -7512.2858 298.4426 -104.1096 -21.7648 30472.6188 -104.1096 -21.7648
ENERGY: 300000 1.2663 2.1653 0.4547 0.0000 -10708.9107 1406.7452 0.0000 0.0000 1756.8668 -7541.4125 299.1357 -9298.2793 -7532.2240 299.2602 -140.8525 -100.5210 30332.5338 158.3384 214.6088
ENERGY: 600000 0.4200 2.0492 0.0317 0.0000 -10838.5779 1552.2172 0.0000 0.0000 1768.0815 -7515.7783 301.0452 -9283.8598 -7514.3178 300.3737 911.6960 987.9424 30060.4594 228.5184 284.2087
ENERGY: 900000 0.5407 4.4261 0.1392 0.0000 -10684.6129 1463.7083 0.0000 0.0000 1755.2787 -7460.5199 298.8653 -9215.7986 -7515.8118 299.6019 53.0257 111.0185 31017.0450 130.1542 181.0031
ENERGY: 1200000 0.0665 2.7742 0.0559 0.0000 -10745.0573 1471.2670 0.0000 0.0000 1769.2428 -7501.6510 301.2429 -9270.8938 -7518.0604 299.6575 649.2044 678.1511 29942.1944 265.2051 309.9702
ENERGY: 1500000 0.1577 2.9359 0.0835 0.0000 -10724.7340 1434.4228 0.0000 0.0000 1793.0646 -7494.0696 305.2990 -9287.1342 -7509.2856 300.8458 -44.9292 56.6956 30288.2027 201.5260 249.2648
TCL: Running FEP window  15: Lambda1 0.7000000000000001 Lambda2 0.7500000000000001 [dLambda 0.050000000000000044]
TCL: Setting parameter firsttimestep to 0
TCL: Setting parameter alchLambda to 0.7000000000000001
Info: NONBONDED TABLE R-SQUARED SPACING: 0.0625
Info: NONBONDED TABLE SIZE: 705 POINTS
TCL: Setting parameter alchLambda2 to 0.7500000000000001
Info: NONBONDED TABLE R-SQUARED SPACING: 0.0625
Info: NONBONDED TABLE SIZE: 705 POINTS
TCL: Running for 1500000 steps
ETITLE: TS BOND ANGLE DIHED IMPRP ELECT VDW BOUNDARY MISC KINETIC TOTAL TEMP POTENTIAL TOTALAVG TEMPAVG PRESSURE GPRESSURE VOLUME PRESSAVG GPRESSAVG
ENERGY: 0 0.1577 2.9359 0.0835 0.0000 -10725.5573 1435.3683 0.0000 0.0000 1792.1778 -7494.8342 305.1480 -9287.0120 -7494.8342 305.1480 -9.5340 68.9439 30288.2027 -9.5340 68.9439
ENERGY: 300000 1.3609 4.5009 0.0156 0.0000 -10751.1355 1452.5335 0.0000 0.0000 1767.9017 -7524.8230 301.0146 -9292.7247 -7523.1591 299.7560 20.5499 117.7835 30241.7561 -169.9148 -91.0678
ENERGY: 600000 0.2945 3.4104 0.0592 0.0000 -10879.8404 1566.0171 0.0000 0.0000 1773.1539 -7536.9053 301.9089 -9310.0591 -7534.9951 299.2024 721.0938 796.4691 30452.5630 -121.8078 -43.6676
ENERGY: 900000 1.6173 4.3645 0.2410 0.0000 -10620.4516 1374.1029 0.0000 0.0000 1813.6073 -7426.5186 308.7967 -9240.1259 -7531.5669 299.2577 -308.0885 -275.5942 30357.4758 1.0765 70.7168
ENERGY: 1200000 0.6934 4.4532 0.1697 0.0000 -10727.5063 1475.5310 0.0000 0.0000 1767.4469 -7479.2121 300.9372 -9246.6590 -7528.6159 298.9487 381.9440 410.1506 30220.2827 25.3216 90.2516
ENERGY: 1500000 0.4216 2.1921 0.0564 0.0000 -10665.9566 1390.4021 0.0000 0.0000 1819.0396 -7453.8449 309.7217 -9272.8845 -7513.1413 300.0581 -478.5933 -432.8262 30470.8460 -26.8385 40.7867
TCL: Running FEP window  16: Lambda1 0.7500000000000001 Lambda2 0.8000000000000002 [dLambda 0.050000000000000044]
TCL: Setting parameter firsttimestep to 0
TCL: Setting parameter alchLambda to 0.7500000000000001
Info: NONBONDED TABLE R-SQUARED SPACING: 0.0625
Info: NONBONDED TABLE SIZE: 705 POINTS
TCL: Setting parameter alchLambda2 to 0.8000000000000002
Info: NONBONDED TABLE R-SQUARED SPACING: 0.0625
Info: NONBONDED TABLE SIZE: 705 POINTS
TCL: Running for 1500000 steps
ETITLE: TS BOND ANGLE DIHED IMPRP ELECT VDW BOUNDARY MISC KINETIC TOTAL TEMP POTENTIAL TOTALAVG TEMPAVG PRESSURE GPRESSURE VOLUME PRESSAVG GPRESSAVG
ENERGY: 0 0.4216 2.1921 0.0564 0.0000 -10665.9789 1390.3268 0.0000 0.0000 1818.1192 -7454.8629 309.5649 -9272.9821 -7454.8629 309.5649 -509.6904 -426.8811 30470.8460 -509.6904 -426.8811
ENERGY: 300000 1.8311 2.2597 2.6145 0.0000 -10565.7057 1391.6640 0.0000 0.0000 1756.1631 -7411.1732 299.0159 -9167.3363 -7497.2006 299.7755 -142.0221 -54.4863 30399.7230 -217.4199 -164.2986
ENERGY: 600000 1.2311 3.3213 0.2084 0.0000 -10771.2014 1431.6966 0.0000 0.0000 1769.4116 -7565.3323 301.2717 -9334.7439 -7502.5493 299.7266 -253.5383 -156.0756 30570.0074 -322.0121 -262.9933
ENERGY: 900000 0.1259 3.5900 0.0727 0.0000 -10652.8557 1380.2282 0.0000 0.0000 1787.6084 -7481.2305 304.3700 -9268.8389 -7504.0088 300.5978 -590.5672 -573.7653 30656.1709 -347.4191 -295.9421
ENERGY: 1200000 0.7133 2.4946 0.1980 0.0000 -10637.5524 1364.6049 0.0000 0.0000 1729.2801 -7540.2615 294.4386 -9269.5416 -7513.4044 298.9127 -956.9626 -877.0499 31185.6276 -328.6025 -266.8713
ENERGY: 1500000 0.8720 2.0392 0.2916 0.0000 -10712.8787 1465.2299 0.0000 0.0000 1730.7908 -7513.6552 294.6958 -9244.4460 -7517.2426 298.6020 165.4248 191.4425 30690.4855 -250.0529 -189.4007
TCL: Running FEP window  17: Lambda1 0.8000000000000002 Lambda2 0.8500000000000002 [dLambda 0.050000000000000044]
TCL: Setting parameter firsttimestep to 0
TCL: Setting parameter alchLambda to 0.8000000000000002
Info: NONBONDED TABLE R-SQUARED SPACING: 0.0625
Info: NONBONDED TABLE SIZE: 705 POINTS
TCL: Setting parameter alchLambda2 to 0.8500000000000002
Info: NONBONDED TABLE R-SQUARED SPACING: 0.0625
Info: NONBONDED TABLE SIZE: 705 POINTS
TCL: Running for 1500000 steps
ETITLE: TS BOND ANGLE DIHED IMPRP ELECT VDW BOUNDARY MISC KINETIC TOTAL TEMP POTENTIAL TOTALAVG TEMPAVG PRESSURE GPRESSURE VOLUME PRESSAVG GPRESSAVG
ENERGY: 0 0.8720 2.0392 0.2916 0.0000 -10713.1993 1464.9328 0.0000 0.0000 1729.9039 -7515.1599 294.5448 -9245.0638 -7515.1599 294.5448 124.9863 196.4264 30690.4855 124.9863 196.4264
ENERGY: 300000 0.0343 6.5509 0.0873 0.0000 -10761.1684 1506.6973 0.0000 0.0000 1780.1607 -7467.6379 303.1019 -9247.7986 -7498.0548 299.4251 522.7611 522.2192 30576.1754 8.1662 32.7562
ENERGY: 600000 0.0013 2.8860 0.0576 0.0000 -10704.2662 1462.9840 0.0000 0.0000 1777.4270 -7460.9103 302.6364 -9238.3373 -7483.4766 301.8349 378.2208 447.4569 30459.8408 127.4517 161.8730
ENERGY: 900000 0.8659 2.4531 0.1301 0.0000 -10691.5078 1443.5463 0.0000 0.0000 1772.1124 -7472.3999 301.7315 -9244.5123 -7479.6696 300.4279 -56.9658 16.7634 30812.3118 59.0470 93.4028
ENERGY: 1200000 0.7355 3.5059 0.1481 0.0000 -10813.1968 1476.0067 0.0000 0.0000 1796.7059 -7536.0946 305.9190 -9332.8006 -7492.9113 300.3383 306.6170 363.4653 30295.4967 79.8974 131.2117
ENERGY: 1500000 0.1249 1.8050 0.0462 0.0000 -10714.2100 1474.5321 0.0000 0.0000 1694.6776 -7543.0242 288.5470 -9237.7018 -7501.9639 299.3495 560.7905 571.0064 30015.2301 105.1124 154.5393
TCL: Running FEP window  18: Lambda1 0.8500000000000002 Lambda2 0.9000000000000002 [dLambda 0.050000000000000044]
TCL: Setting parameter firsttimestep to 0
TCL: Setting parameter alchLambda to 0.8500000000000002
Info: NONBONDED TABLE R-SQUARED SPACING: 0.0625
Info: NONBONDED TABLE SIZE: 705 POINTS
TCL: Setting parameter alchLambda2 to 0.9000000000000002
Info: NONBONDED TABLE R-SQUARED SPACING: 0.0625
Info: NONBONDED TABLE SIZE: 705 POINTS
TCL: Running for 1500000 steps
ETITLE: TS BOND ANGLE DIHED IMPRP ELECT VDW BOUNDARY MISC KINETIC TOTAL TEMP POTENTIAL TOTALAVG TEMPAVG PRESSURE GPRESSURE VOLUME PRESSAVG GPRESSAVG
ENERGY: 0 0.1249 1.8050 0.0462 0.0000 -10714.5113 1474.7371 0.0000 0.0000 1693.7926 -7544.0054 288.3963 -9237.7981 -7544.0054 288.3963 505.0993 578.7448 30015.2301 505.0993 578.7448
ENERGY: 300000 0.5559 1.7613 0.0210 0.0000 -10670.4359 1453.6999 0.0000 0.0000 1805.1059 -7409.2918 307.3492 -9214.3977 -7537.3194 297.7518 382.7247 399.1128 30411.5744 140.7443 182.8942
ENERGY: 600000 0.5693 2.1963 0.0759 0.0000 -10864.7098 1502.5440 0.0000 0.0000 1765.9522 -7593.3720 300.6826 -9359.3242 -7537.7372 299.5066 18.0118 63.2471 31012.9414 -110.1966 -58.0469
ENERGY: 900000 1.1743 2.8541 0.0636 0.0000 -10835.6859 1505.5958 0.0000 0.0000 1785.1045 -7540.8935 303.9437 -9325.9980 -7524.9206 300.0833 679.6650 721.1594 29836.1281 8.5343 63.3529
ENERGY: 1200000 1.2363 5.8462 0.4114 0.0000 -10743.6765 1497.3365 0.0000 0.0000 1781.7619 -7457.0843 303.3745 -9238.8462 -7512.9014 300.3252 578.5990 639.1928 30361.5176 39.9626 97.8505
ENERGY: 1500000 0.0383 5.2693 0.8990 0.0000 -10865.6826 1418.3966 0.0000 0.0000 1724.4696 -7716.6097 293.6196 -9441.0794 -7529.4230 299.1901 -812.3374 -702.3852 30491.2960 22.0416 84.1006
TCL: Running FEP window  19: Lambda1 0.9000000000000002 Lambda2 0.9500000000000003 [dLambda 0.050000000000000044]
TCL: Setting parameter firsttimestep to 0
TCL: Setting parameter alchLambda to 0.9000000000000002
Info: NONBONDED TABLE R-SQUARED SPACING: 0.0625
Info: NONBONDED TABLE SIZE: 705 POINTS
TCL: Setting parameter alchLambda2 to 0.9500000000000003
Info: NONBONDED TABLE R-SQUARED SPACING: 0.0625
Info: NONBONDED TABLE SIZE: 705 POINTS
TCL: Running for 1500000 steps
ETITLE: TS BOND ANGLE DIHED IMPRP ELECT VDW BOUNDARY MISC KINETIC TOTAL TEMP POTENTIAL TOTALAVG TEMPAVG PRESSURE GPRESSURE VOLUME PRESSAVG GPRESSAVG
ENERGY: 0 0.0383 5.2693 0.8990 0.0000 -10865.9204 1418.2694 0.0000 0.0000 1723.5848 -7717.8596 293.4689 -9441.4444 -7717.8596 293.4689 -786.1089 -700.1622 30491.2960 -786.1089 -700.1622
ENERGY: 300000 0.1577 1.9347 0.1396 0.0000 -10735.5121 1460.2824 0.0000 0.0000 1752.1888 -7520.8089 298.3392 -9272.9977 -7592.5485 294.6791 -61.3967 65.4935 30673.4935 58.7456 150.3096
ENERGY: 600000 0.1026 2.5872 0.0663 0.0000 -10736.6306 1443.7864 0.0000 0.0000 1737.6817 -7552.4063 295.8691 -9290.0881 -7576.7786 297.6713 74.1064 110.2841 30202.7177 13.5163 95.2922
ENERGY: 900000 0.2535 3.5905 0.3681 0.0000 -10772.9774 1493.0854 0.0000 0.0000 1768.5177 -7507.1622 301.1195 -9275.6798 -7551.9347 297.7295 408.0028 466.8117 30624.9204 184.2168 261.6511
ENERGY: 1200000 0.0882 2.6192 0.0595 0.0000 -10830.3007 1492.7434 0.0000 0.0000 1739.3949 -7595.3956 296.1608 -9334.7905 -7543.8284 298.2551 171.6331 145.0098 30429.3948 152.4290 218.8303
ENERGY: 1500000 1.1293 3.0317 0.0825 0.0000 -10742.3339 1463.3004 0.0000 0.0000 1797.0802 -7477.7098 305.9827 -9274.7900 -7538.8421 299.1723 263.0942 330.7498 30416.7313 118.8560 184.2629
TCL: Running FEP window  20: Lambda1 0.9500000000000003 Lambda2 1.0    [dLambda 0.04999999999999971]
TCL: Setting parameter firsttimestep to 0
TCL: Setting parameter alchLambda to 0.9500000000000003
Info: NONBONDED TABLE R-SQUARED SPACING: 0.0625
Info: NONBONDED TABLE SIZE: 705 POINTS
TCL: Setting parameter alchLambda2 to 1.0
Info: NONBONDED TABLE R-SQUARED SPACING: 0.0625
Info: NONBONDED TABLE SIZE: 705 POINTS
TCL: Running for 1500000 steps
ETITLE: TS BOND ANGLE DIHED IMPRP ELECT VDW BOUNDARY MISC KINETIC TOTAL TEMP POTENTIAL TOTALAVG TEMPAVG PRESSURE GPRESSURE VOLUME PRESSAVG GPRESSAVG
ENERGY: 0 1.1293 3.0317 0.0825 0.0000 -10742.4285 1463.1162 0.0000 0.0000 1796.2084 -7478.8604 305.8343 -9275.0688 -7478.8604 305.8343 244.5647 337.2221 30416.7313 244.5647 337.2221
ENERGY: 300000 0.0238 2.2052 0.0664 0.0000 -10699.6923 1466.8131 0.0000 0.0000 1737.5533 -7493.0305 295.8473 -9230.5838 -7497.1299 300.1641 186.5465 313.8142 30597.6970 178.9294 277.1471
ENERGY: 600000 0.0699 1.6441 0.4624 0.0000 -10714.2379 1427.9392 0.0000 0.0000 1739.7960 -7544.3262 296.2291 -9284.1223 -7515.8757 298.7220 189.4075 212.3725 29970.0217 132.9315 210.9477
ENERGY: 900000 0.1494 1.8179 0.7932 0.0000 -10585.6321 1355.8431 0.0000 0.0000 1772.8195 -7454.2090 301.8519 -9227.0285 -7505.9534 299.3563 -721.8350 -587.6106 30706.0866 -134.3827 -50.0079
ENERGY: 1200000 0.3371 3.2620 0.2412 0.0000 -10664.8834 1391.0700 0.0000 0.0000 1780.9983 -7488.9747 303.2445 -9269.9730 -7506.2177 300.2698 -475.8837 -402.8023 30739.6585 -168.4956 -83.1438
ENERGY: 1500000 0.6733 2.2041 0.6854 0.0000 -10707.1104 1417.1031 0.0000 0.0000 1820.6610 -7465.7835 309.9977 -9286.4445 -7507.1140 300.8456 -400.8057 -333.7809 30794.5951 -94.2208 -13.0890
TCL: Exiting due to exit command.
