Info: SIMULATION PARAMETERS:
Info: TIMESTEP               2
Info: NUMBER OF STEPS        0
Info: STEPS PER CYCLE        10
Info: PERIODIC CELL BASIS 1  36.005 0 0
Info: PERIODIC CELL BASIS 2  0 34.26 0
Info: PERIODIC CELL BASIS 3  0 0 36.488
Info: PERIODIC CELL CENTER   0 0 0
Info: WRAPPING WATERS AROUND PERIODIC BOUNDARIES ON OUTPUT.
Info: WRAPPING ALL CLUSTERS AROUND PERIODIC BOUNDARIES ON OUTPUT.
Info: FIRST LDB TIMESTEP     50
Info: LAST LDB TIMESTEP     -1
Info: HOM BACKGROUND SCALING 1
Info: PME BACKGROUND SCALING 1
Info: MIN ATOMS PER PATCH    40
Info: EMPTY PATCH LOAD       40 ATOMS
Info: INITIAL TEMPERATURE    300
Info: CENTER OF MASS MOVING INITIALLY? NO
Info: DIELECTRIC             1
Info: EXCLUDE                SCALED ONE-FOUR
Info: 1-4 ELECTROSTATICS SCALED BY 0.833333
Info: MODIFIED 1-4 VDW PARAMETERS WILL BE USED
Info: DCD FILENAME           mobley_9478823_equil.dcd
Info: DCD FREQUENCY          100000
Info: DCD FIRST STEP         100000
Info: DCD FILE WILL CONTAIN UNIT CELL DATA
Info: XST FILENAME           mobley_9478823_equil.xst
Info: XST FREQUENCY          100000
Info: NO VELOCITY DCD OUTPUT
Info: NO FORCE DCD OUTPUT
Info: OUTPUT FILENAME        mobley_9478823_equil
Info: BINARY OUTPUT FILES WILL BE USED
Info: RESTART FILENAME       mobley_9478823_equil.restart
Info: RESTART FREQUENCY      100000
Info: BINARY RESTART FILES WILL BE USED
Info: CUTOFF                 9
Info: PAIRLIST DISTANCE      11
Info: PAIRLIST SHRINK RATE   0.01
Info: PAIRLIST GROW RATE     0.01
Info: PAIRLIST TRIGGER       0.3
Info: PAIRLISTS PER CYCLE    2
Info: PAIRLISTS ENABLED
Info: MARGIN                 8
Info: HYDROGEN GROUP CUTOFF  2.5
Info: PATCH DIMENSION        21.5
Info: ENERGY OUTPUT STEPS    100000
Info: ENERGY EVALUATION STEPS    100000
Info: OUTPUT ENERGY PRECISION 4
Info: CROSSTERM ENERGY INCLUDED IN DIHEDRAL
Info: TIMING OUTPUT STEPS    1000000
Info: PRESSURE OUTPUT STEPS  100000
Info: LANGEVIN DYNAMICS ACTIVE
Info: LANGEVIN TEMPERATURE   30
Info: LANGEVIN USING BBK INTEGRATOR
Info: LANGEVIN DAMPING COEFFICIENT IS 1 INVERSE PS
Info: LANGEVIN DYNAMICS APPLIED TO HYDROGENS
Info: LANGEVIN PISTON PRESSURE CONTROL ACTIVE
Info:        TARGET PRESSURE IS 1.01325 BAR
Info:     OSCILLATION PERIOD IS 50 FS
Info:             DECAY TIME IS 25 FS
Info:     PISTON TEMPERATURE IS 300 K
Info:       PRESSURE CONTROL IS GROUP-BASED
Info:    INITIAL STRAIN RATE IS 0 0 0
Info:       CELL FLUCTUATION IS ISOTROPIC
Info: PARTICLE MESH EWALD (PME) ACTIVE
Info: PME TOLERANCE               1e-06
Info: PME EWALD COEFFICIENT       0.348832
Info: PME INTERPOLATION ORDER     4
Info: PME GRID DIMENSIONS         40 36 40
Info: PME MAXIMUM GRID SPACING    1
Info: FULL ELECTROSTATIC EVALUATION FREQUENCY      2
Info: USING VERLET I (r-RESPA) MTS SCHEME.
Info: C1 SPLITTING OF LONG RANGE ELECTROSTATICS
Info: PLACING ATOMS IN PATCHES BY HYDROGEN GROUPS
Info: RIGID BONDS TO HYDROGEN : ALL
Info:         ERROR TOLERANCE : 1e-08
Info:          MAX ITERATIONS : 100
Info: RIGID WATER USING SETTLE ALGORITHM
Info: RANDOM NUMBER SEED     1743215376
Info: USE HYDROGEN BONDS?    NO
Info: Using AMBER format force field!
Info: AMBER PARM FILE        mobley_9478823.prmtop
Info: COORDINATE PDB         mobley_9478823.pdb
Info: Exclusions will be read from PARM file!
Info: SCNB (VDW SCALING)     2
Info: USING ARITHMETIC MEAN TO COMBINE L-J SIGMA PARAMETERS
Info: BINARY COORDINATES     mobley_9478823_min.coor
Info: SUMMARY OF PARAMETERS:
Info: 6 BONDS
Info: 5 ANGLES
Info:   5 HARMONIC
Info:   0 COSINE-BASED
Info: 3 DIHEDRAL
Info: 0 IMPROPER
Info: 0 CROSSTERM
Info: 0 VDW
Info: 21 VDW_PAIRS
Info: 0 NBTHOLE_PAIRS
Info: STRUCTURE SUMMARY:
Info: 2991 ATOMS
Info: 2991 BONDS
Info: 30 ANGLES
Info: 42 DIHEDRALS
Info: 0 IMPROPERS
Info: 0 CROSSTERMS
Info: 3054 EXCLUSIONS
Info: 2983 RIGID BONDS
Info: 5990 DEGREES OF FREEDOM
Info: 999 HYDROGEN GROUPS
Info: 4 ATOMS IN LARGEST HYDROGEN GROUP
Info: 999 MIGRATION GROUPS
Info: 4 ATOMS IN LARGEST MIGRATION GROUP
Info: TOTAL MASS = 17960 amu
Info: TOTAL CHARGE = -9.99719e-05 e
Info: MASS DENSITY = 0.662622 g/cm^3
Info: ATOM DENSITY = 0.0664532 atoms/A^3
Info: ADDED 0 IMPLICIT EXCLUSIONS
Info: NONBONDED TABLE R-SQUARED SPACING: 0.0625
Info: NONBONDED TABLE SIZE: 705 POINTS
Info: REMOVING COM VELOCITY -0.024949 0.0340249 0.0763943
TCL: Running for 100000 steps
ETITLE: TS BOND ANGLE DIHED IMPRP ELECT VDW BOUNDARY MISC KINETIC TOTAL TEMP POTENTIAL TOTAL3 TEMPAVG PRESSURE GPRESSURE VOLUME PRESSAVG GPRESSAVG
ENERGY: 0 0.2786 0.2776 0.0616 0.0000 -13763.7283 2406.3677 0.0000 0.0000 1786.1993 -9570.5436 300.1190 -11356.7429 -9570.1873 300.1190 402.7484 439.0030 45009.0901 402.7484 439.0030
ENERGY: 100000 0.6053 1.1305 0.4386 0.0000 -14303.5942 2417.0853 0.0000 0.0000 176.0875 -11708.2470 29.5864 -11884.3345 -11707.5532 30.9138 -896.5470 -804.1701 29550.9247 4.8556 4.8764
TCL: Running 100000 steps at 60 kelvin.
TCL: Setting parameter langevinTemp to 60
TCL: Running for 100000 steps
ETITLE: TS BOND ANGLE DIHED IMPRP ELECT VDW BOUNDARY MISC KINETIC TOTAL TEMP POTENTIAL TOTAL3 TEMPAVG PRESSURE GPRESSURE VOLUME PRESSAVG GPRESSAVG
ENERGY: 100000 0.6053 1.1305 0.4386 0.0000 -14303.5942 2417.0853 0.0000 0.0000 175.9963 -11708.3382 29.5711 -11884.3345 -11707.8620 29.5711 -861.8780 -804.1782 29550.9247 -861.8780 -804.1782
ENERGY: 200000 0.2979 1.0371 0.3228 0.0000 -14317.4678 2510.8697 0.0000 0.0000 370.7781 -11434.1622 62.2985 -11804.9404 -11433.0322 59.9992 626.2174 674.7189 28924.8984 3.5004 3.4893
TCL: Running 100000 steps at 90 kelvin.
TCL: Setting parameter langevinTemp to 90
TCL: Running for 100000 steps
ETITLE: TS BOND ANGLE DIHED IMPRP ELECT VDW BOUNDARY MISC KINETIC TOTAL TEMP POTENTIAL TOTAL3 TEMPAVG PRESSURE GPRESSURE VOLUME PRESSAVG GPRESSAVG
ENERGY: 200000 0.2979 1.0371 0.3228 0.0000 -14317.4678 2510.8697 0.0000 0.0000 370.5976 -11434.3428 62.2682 -11804.9404 -11433.5480 62.2682 626.2276 674.7363 28924.8984 626.2276 674.7363
ENERGY: 300000 1.1978 1.2111 0.3656 0.0000 -14118.5209 2390.5283 0.0000 0.0000 536.9917 -11188.2263 90.2259 -11725.2180 -11186.6170 90.0286 -149.8818 -109.7321 29053.7256 2.8141 2.9018
TCL: Running 100000 steps at 120 kelvin.
TCL: Setting parameter langevinTemp to 120
TCL: Running for 100000 steps
ETITLE: TS BOND ANGLE DIHED IMPRP ELECT VDW BOUNDARY MISC KINETIC TOTAL TEMP POTENTIAL TOTAL3 TEMPAVG PRESSURE GPRESSURE VOLUME PRESSAVG GPRESSAVG
ENERGY: 300000 1.1978 1.2111 0.3656 0.0000 -14118.5209 2390.5283 0.0000 0.0000 536.7203 -11188.4977 90.1803 -11725.2180 -11187.3924 90.1803 -156.6081 -109.7425 29053.7256 -156.6081 -109.7425
ENERGY: 400000 2.0458 3.7805 0.5327 0.0000 -13838.9858 2258.9033 0.0000 0.0000 732.2259 -10841.4975 123.0293 -11573.7234 -10840.0459 119.8678 -812.2253 -749.7395 29434.2084 3.1547 3.2715
TCL: Running 100000 steps at 150 kelvin.
TCL: Setting parameter langevinTemp to 150
TCL: Running for 100000 steps
ETITLE: TS BOND ANGLE DIHED IMPRP ELECT VDW BOUNDARY MISC KINETIC TOTAL TEMP POTENTIAL TOTAL3 TEMPAVG PRESSURE GPRESSURE VOLUME PRESSAVG GPRESSAVG
ENERGY: 400000 2.0458 3.7805 0.5327 0.0000 -13838.9858 2258.9033 0.0000 0.0000 731.8645 -10841.8589 122.9686 -11573.7234 -10840.4927 122.9686 -806.8030 -750.4904 29434.2084 -806.8030 -750.4904
ENERGY: 500000 2.4195 2.3792 1.2035 0.0000 -13691.0796 2341.4138 0.0000 0.0000 898.4735 -10445.1900 150.9624 -11343.6635 -10443.0382 149.9748 570.6632 619.0410 29336.0840 4.5498 4.3952
TCL: Running 100000 steps at 180 kelvin.
TCL: Setting parameter langevinTemp to 180
TCL: Running for 100000 steps
ETITLE: TS BOND ANGLE DIHED IMPRP ELECT VDW BOUNDARY MISC KINETIC TOTAL TEMP POTENTIAL TOTAL3 TEMPAVG PRESSURE GPRESSURE VOLUME PRESSAVG GPRESSAVG
ENERGY: 500000 2.4195 2.3792 1.2035 0.0000 -13691.0796 2341.4138 0.0000 0.0000 898.0249 -10445.6386 150.8870 -11343.6635 -10444.1175 150.8870 561.9962 619.1367 29336.0840 561.9962 619.1367
ENERGY: 600000 2.4072 4.9739 2.6164 0.0000 -13292.3564 2178.6280 0.0000 0.0000 1088.9053 -10014.8256 182.9589 -11103.7308 -10010.7743 180.1771 132.5789 174.6828 29189.3393 4.1489 3.9501
TCL: Running 100000 steps at 210 kelvin.
TCL: Setting parameter langevinTemp to 210
TCL: Running for 100000 steps
ETITLE: TS BOND ANGLE DIHED IMPRP ELECT VDW BOUNDARY MISC KINETIC TOTAL TEMP POTENTIAL TOTAL3 TEMPAVG PRESSURE GPRESSURE VOLUME PRESSAVG GPRESSAVG
ENERGY: 600000 2.4072 4.9739 2.6164 0.0000 -13292.3564 2178.6280 0.0000 0.0000 1088.3729 -10015.3579 182.8695 -11103.7308 -10013.8408 182.8695 125.3979 175.9397 29189.3393 125.3979 175.9397
ENERGY: 700000 3.4225 6.5188 1.5278 0.0000 -12697.6405 2006.1281 0.0000 0.0000 1243.1055 -9436.9377 208.8678 -10680.0432 -9434.4692 209.7700 240.2729 346.1494 29305.2900 3.8674 3.8408
TCL: Running 100000 steps at 240 kelvin.
TCL: Setting parameter langevinTemp to 240
TCL: Running for 100000 steps
ETITLE: TS BOND ANGLE DIHED IMPRP ELECT VDW BOUNDARY MISC KINETIC TOTAL TEMP POTENTIAL TOTAL3 TEMPAVG PRESSURE GPRESSURE VOLUME PRESSAVG GPRESSAVG
ENERGY: 700000 3.4225 6.5188 1.5278 0.0000 -12697.6405 2006.1281 0.0000 0.0000 1242.4821 -9437.5611 208.7631 -10680.0432 -9435.1665 208.7631 292.6858 345.5496 29305.2900 292.6858 345.5496
ENERGY: 800000 3.2608 4.7972 2.8215 0.0000 -11871.0422 1766.2259 0.0000 0.0000 1445.4001 -8648.5365 242.8576 -10093.9367 -8646.4556 240.1407 413.5604 518.7901 29484.9775 3.4083 3.4885
TCL: Running 100000 steps at 270 kelvin.
TCL: Setting parameter langevinTemp to 270
TCL: Running for 100000 steps
ETITLE: TS BOND ANGLE DIHED IMPRP ELECT VDW BOUNDARY MISC KINETIC TOTAL TEMP POTENTIAL TOTAL3 TEMPAVG PRESSURE GPRESSURE VOLUME PRESSAVG GPRESSAVG
ENERGY: 800000 3.2608 4.7972 2.8215 0.0000 -11871.0422 1766.2259 0.0000 0.0000 1444.6932 -8649.2434 242.7388 -10093.9367 -8647.3877 242.7388 417.5402 516.4978 29484.9775 417.5402 516.4978
ENERGY: 900000 2.2018 4.7151 4.2666 0.0000 -11361.6602 1575.5226 0.0000 0.0000 1606.1585 -8168.7957 269.8684 -9774.9542 -8165.3911 269.9535 -54.5575 69.1633 29719.8070 4.7299 4.8257
TCL: Running 1000000 steps at 300 kelvin.
TCL: Setting parameter langevinTemp to 300
TCL: Running for 1000000 steps
ETITLE: TS BOND ANGLE DIHED IMPRP ELECT VDW BOUNDARY MISC KINETIC TOTAL TEMP POTENTIAL TOTAL3 TEMPAVG PRESSURE GPRESSURE VOLUME PRESSAVG GPRESSAVG
ENERGY: 900000 2.2018 4.7151 4.2666 0.0000 -11361.6602 1575.5226 0.0000 0.0000 1605.3241 -8169.6300 269.7282 -9774.9542 -8167.0216 269.7282 -15.1372 69.8365 29719.8070 -15.1372 69.8365
ENERGY: 1100000 1.9275 6.0483 1.7614 0.0000 -10704.1604 1378.2372 0.0000 0.0000 1791.1096 -7525.0765 300.9440 -9316.1861 -7522.1714 300.6810 -530.2146 -386.9378 30901.9408 2.6239 2.2906
ENERGY: 1300000 2.7537 7.1257 0.6499 0.0000 -10799.5418 1429.3633 0.0000 0.0000 1802.5490 -7557.1003 302.8661 -9359.6493 -7554.2170 300.4841 19.1900 122.0521 30566.8330 3.1305 3.0063
ENERGY: 1500000 1.3343 3.6650 3.1887 0.0000 -10877.5844 1502.6723 0.0000 0.0000 1748.5018 -7618.2223 293.7850 -9366.7241 -7614.9817 300.8743 327.9594 423.4369 30840.0337 4.2828 4.1810
ENERGY: 1700000 2.6424 5.8999 1.2545 0.0000 -10886.3445 1488.8183 0.0000 0.0000 1761.7036 -7626.0258 296.0032 -9387.7294 -7623.4529 300.0278 -169.9698 -24.3387 30989.4547 1.9038 2.1302
ENERGY: 1900000 2.2941 7.4090 0.5644 0.0000 -10873.6180 1507.1090 0.0000 0.0000 1852.9151 -7503.3265 311.3287 -9356.2416 -7495.8678 300.2149 147.9223 230.6120 31287.1366 1.7358 1.8334
TCL: Exiting due to exit command.
