Info: SIMULATION PARAMETERS:
Info: TIMESTEP               2
Info: NUMBER OF STEPS        0
Info: STEPS PER CYCLE        10
Info: PERIODIC CELL BASIS 1  31.7035 0 0
Info: PERIODIC CELL BASIS 2  0 30.2636 0
Info: PERIODIC CELL BASIS 3  0 0 31.7097
Info: PERIODIC CELL CENTER   0 0 0
Info: WRAPPING WATERS AROUND PERIODIC BOUNDARIES ON OUTPUT.
Info: WRAPPING ALL CLUSTERS AROUND PERIODIC BOUNDARIES ON OUTPUT.
Info: FIRST LDB TIMESTEP     50
Info: LAST LDB TIMESTEP     -1
Info: HOM BACKGROUND SCALING 1
Info: PME BACKGROUND SCALING 1
Info: MIN ATOMS PER PATCH    40
Info: EMPTY PATCH LOAD       40 ATOMS
Info: VELOCITY FILE          mobley_8311321_equil.vel
Info: CENTER OF MASS MOVING INITIALLY? NO
Info: DIELECTRIC             1
Info: EXCLUDE                SCALED ONE-FOUR
Info: 1-4 ELECTROSTATICS SCALED BY 0.833333
Info: MODIFIED 1-4 VDW PARAMETERS WILL BE USED
Info: DCD FILENAME           mobley_8311321_prod.dcd
Info: DCD FREQUENCY          100000
Info: DCD FIRST STEP         100000
Info: DCD FILE WILL CONTAIN UNIT CELL DATA
Info: XST FILENAME           mobley_8311321_prod.xst
Info: XST FREQUENCY          100000
Info: NO VELOCITY DCD OUTPUT
Info: NO FORCE DCD OUTPUT
Info: OUTPUT FILENAME        mobley_8311321_prod
Info: BINARY OUTPUT FILES WILL BE USED
Info: RESTART FILENAME       mobley_8311321_prod.restart
Info: RESTART FREQUENCY      100000
Info: BINARY RESTART FILES WILL BE USED
Info: CUTOFF                 9
Info: PAIRLIST DISTANCE      11
Info: PAIRLIST SHRINK RATE   0.01
Info: PAIRLIST GROW RATE     0.01
Info: PAIRLIST TRIGGER       0.3
Info: PAIRLISTS PER CYCLE    2
Info: PAIRLISTS ENABLED
Info: MARGIN                 2
Info: HYDROGEN GROUP CUTOFF  2.5
Info: PATCH DIMENSION        15.5
Info: ENERGY OUTPUT STEPS    100000
Info: ENERGY EVALUATION STEPS    100000
Info: OUTPUT ENERGY PRECISION 4
Info: CROSSTERM ENERGY INCLUDED IN DIHEDRAL
Info: TIMING OUTPUT STEPS    1000000
Info: PRESSURE OUTPUT STEPS  100000
Info: ALCHEMICAL FEP ON
Info: FEP CURRENT LAMBDA VALUE     1
Info: FEP COMPARISON LAMBDA VALUE  0.95
Info: FEP INTRA-ALCHEMICAL NON-BONDED INTERACTIONS WILL BE RETAINED
Info: FEP INTRA-ALCHEMICAL BONDED INTERACTIONS WILL BE RETAINED
Info: FEP VDW SHIFTING COEFFICIENT 5
Info: FEP ELEC. ACTIVE FOR ANNIHILATED PARTICLES BETWEEN LAMBDA = 0 AND LAMBDA = 0.5
Info: FEP ELEC. ACTIVE FOR EXNIHILATED PARTICLES BETWEEN LAMBDA = 0.5 AND LAMBDA = 1
Info: FEP VDW ACTIVE FOR ANNIHILATED PARTICLES BETWEEN LAMBDA = 0 AND LAMBDA = 1
Info: FEP VDW ACTIVE FOR EXNIHILATED PARTICLES BETWEEN LAMBDA = 0 AND LAMBDA = 1
Info: FEP BOND ACTIVE FOR ANNIHILATED PARTICLES BETWEEN LAMBDA = 1 AND LAMBDA = 1
Info: FEP BOND ACTIVE FOR EXNIHILATED PARTICLES BETWEEN LAMBDA = 0 AND LAMBDA = 0
Info: LANGEVIN DYNAMICS ACTIVE
Info: LANGEVIN TEMPERATURE   300
Info: LANGEVIN USING BBK INTEGRATOR
Info: LANGEVIN DAMPING COEFFICIENT IS 1 INVERSE PS
Info: LANGEVIN DYNAMICS APPLIED TO HYDROGENS
Info: LANGEVIN PISTON PRESSURE CONTROL ACTIVE
Info:        TARGET PRESSURE IS 1.01325 BAR
Info:     OSCILLATION PERIOD IS 50 FS
Info:             DECAY TIME IS 25 FS
Info:     PISTON TEMPERATURE IS 300 K
Info:       PRESSURE CONTROL IS GROUP-BASED
Info:    INITIAL STRAIN RATE IS -0.000379651 -0.000379651 -0.000379651
Info:       CELL FLUCTUATION IS ISOTROPIC
Info: PARTICLE MESH EWALD (PME) ACTIVE
Info: PME TOLERANCE               1e-06
Info: PME EWALD COEFFICIENT       0.348832
Info: PME INTERPOLATION ORDER     4
Info: PME GRID DIMENSIONS         32 32 32
Info: PME MAXIMUM GRID SPACING    1
Info: PME CALCULATION WILL BE PERFORMED ON GPU
Info: FULL ELECTROSTATIC EVALUATION FREQUENCY      2
Info: USING VERLET I (r-RESPA) MTS SCHEME.
Info: C1 SPLITTING OF LONG RANGE ELECTROSTATICS
Info: PLACING ATOMS IN PATCHES BY HYDROGEN GROUPS
Info: RIGID BONDS TO HYDROGEN : ALL
Info:         ERROR TOLERANCE : 1e-08
Info:          MAX ITERATIONS : 100
Info: RIGID WATER USING SETTLE ALGORITHM
Info: RANDOM NUMBER SEED     1743477753
Info: USE HYDROGEN BONDS?    NO
Info: Using AMBER format force field!
Info: AMBER PARM FILE        mobley_8311321.prmtop
Info: COORDINATE PDB         mobley_8311321.pdb
Info: Exclusions will be read from PARM file!
Info: SCNB (VDW SCALING)     2
Info: USING ARITHMETIC MEAN TO COMBINE L-J SIGMA PARAMETERS
Info: BINARY COORDINATES     mobley_8311321_equil.coor
Info: SUMMARY OF PARAMETERS:
Info: 5 BONDS
Info: 4 ANGLES
Info:   4 HARMONIC
Info:   0 COSINE-BASED
Info: 0 DIHEDRAL
Info: 0 IMPROPER
Info: 0 CROSSTERM
Info: 0 VDW
Info: 21 VDW_PAIRS
Info: 0 NBTHOLE_PAIRS
Info: To read alchdata from file: mobley_8311321.pdb
Info: To read alchflag data from column: 5
Info: STRUCTURE SUMMARY:
Info: 2939 ATOMS
Info: 2938 BONDS
Info: 6 ANGLES
Info: 0 DIHEDRALS
Info: 0 IMPROPERS
Info: 0 CROSSTERMS
Info: 2944 EXCLUSIONS
Info: 2935 RIGID BONDS
Info: ALCH: 0 ATOMS TO DISAPPEAR IN FINAL STATE
Info: ALCH: 5 ATOMS TO APPEAR IN FINAL STATE
Info: 5882 DEGREES OF FREEDOM
Info: 982 HYDROGEN GROUPS
Info: 3 ATOMS IN LARGEST HYDROGEN GROUP
Info: 982 MIGRATION GROUPS
Info: 3 ATOMS IN LARGEST MIGRATION GROUP
Info: TOTAL MASS = 17706.1 amu
Info: TOTAL CHARGE = -9.99868e-05 e
Info: MASS DENSITY = 0.966411 g/cm^3
Info: ATOM DENSITY = 0.0966004 atoms/A^3
Info: ADDED 0 IMPLICIT EXCLUSIONS
Info: NONBONDED TABLE R-SQUARED SPACING: 0.0625
Info: NONBONDED TABLE SIZE: 705 POINTS
Info: REMOVING COM VELOCITY 0.0105692 -0.0853847 0.0205845
Info: Use 3D box decompostion in PME FFT.
Info: Updated CUDA force table with 4096 elements.
Info: Updated CUDA LJ table with 6 x 6 elements.
Info: Found 8 unique exclusion lists needing 8 bytes
TCL: Running for 1500000 steps
ETITLE: TS BOND ANGLE DIHED IMPRP ELECT VDW BOUNDARY MISC KINETIC TOTAL TEMP POTENTIAL TOTALAVG TEMPAVG PRESSURE GPRESSURE VOLUME PRESSAVG GPRESSAVG
ENERGY: 0 1.2473 1.1216 0.0000 0.0000 -10745.1365 1405.9693 0.0000 0.0000 1736.6255 -7600.1728 297.1471 -9336.7983 -7600.1728 297.1471 -684.2939 -599.3464 30424.3131 -684.2939 -599.3464
ENERGY: 300000 1.1197 3.9105 0.0000 0.0000 -10700.8200 1390.9223 0.0000 0.0000 1725.5755 -7579.2920 295.2564 -9304.8675 -7546.7789 299.0461 -321.3810 -320.1779 30146.4123 -459.0107 -416.2236
ENERGY: 600000 1.9684 1.2948 0.0000 0.0000 -10772.4099 1441.2978 0.0000 0.0000 1741.0419 -7586.8070 297.9028 -9327.8489 -7551.5102 299.0266 -295.5799 -187.3573 30461.2508 -341.3457 -286.3839
ENERGY: 900000 1.1631 0.8649 0.0000 0.0000 -10728.5984 1347.7311 0.0000 0.0000 1734.6798 -7644.1595 296.8142 -9378.8393 -7553.7105 299.4484 -1049.6183 -1005.1164 30031.8597 -328.6362 -262.3318
ENERGY: 1200000 1.7252 2.5306 0.0000 0.0000 -10646.6877 1390.1346 0.0000 0.0000 1722.5537 -7529.7437 294.7394 -9252.2973 -7543.7721 299.3254 -369.4567 -357.3323 30196.3646 -326.1519 -270.9252
ENERGY: 1500000 1.2277 0.4598 0.0000 0.0000 -10801.1490 1487.2372 0.0000 0.0000 1792.0219 -7520.2024 306.6258 -9312.2243 -7533.3744 300.8549 177.5780 168.5762 30406.3583 -248.4468 -196.0076
TCL: Running FEP window   2: Lambda1 0.95   Lambda2 0.8999999999999999 [dLambda -0.050000000000000044]
TCL: Setting parameter firsttimestep to 0
TCL: Setting parameter alchLambda to 0.95
Info: NONBONDED TABLE R-SQUARED SPACING: 0.0625
Info: NONBONDED TABLE SIZE: 705 POINTS
TCL: Setting parameter alchLambda2 to 0.8999999999999999
Info: NONBONDED TABLE R-SQUARED SPACING: 0.0625
Info: NONBONDED TABLE SIZE: 705 POINTS
TCL: Running for 1500000 steps
ETITLE: TS BOND ANGLE DIHED IMPRP ELECT VDW BOUNDARY MISC KINETIC TOTAL TEMP POTENTIAL TOTALAVG TEMPAVG PRESSURE GPRESSURE VOLUME PRESSAVG GPRESSAVG
ENERGY: 0 1.2277 0.4598 0.0000 0.0000 -10800.8178 1487.5507 0.0000 0.0000 1791.1730 -7520.4066 306.4805 -9311.5796 -7520.4066 306.4805 98.3597 169.1212 30406.3583 98.3597 169.1212
ENERGY: 300000 0.4029 0.4346 0.0000 0.0000 -10650.6821 1404.9939 0.0000 0.0000 1792.6584 -7452.1923 306.7347 -9244.8507 -7482.5200 304.2672 -157.3130 -137.3803 30102.5519 39.9304 86.2705
ENERGY: 600000 2.9403 3.0016 0.0000 0.0000 -10507.0289 1329.3734 0.0000 0.0000 1792.0505 -7379.6632 306.6307 -9171.7137 -7469.3361 302.0490 -754.7665 -718.0644 30738.5308 -55.4083 -22.1029
ENERGY: 900000 0.6475 0.3029 0.0000 0.0000 -10498.1821 1304.0947 0.0000 0.0000 1747.2854 -7445.8516 298.9711 -9193.1370 -7472.3510 300.9275 -1027.9522 -971.2238 30899.8155 -154.2161 -107.5917
ENERGY: 1200000 0.0950 1.1138 0.0000 0.0000 -10735.8987 1476.4865 0.0000 0.0000 1783.0259 -7475.1775 305.0865 -9258.2034 -7478.7711 301.2108 219.9941 310.2348 30309.1752 -153.8125 -95.1178
ENERGY: 1500000 1.7649 1.5798 0.0000 0.0000 -10658.5228 1463.7085 0.0000 0.0000 1719.3286 -7472.1410 294.1875 -9191.4696 -7489.4402 300.2291 630.7396 626.0117 29796.8861 -105.2096 -52.6374
TCL: Running FEP window   3: Lambda1 0.8999999999999999 Lambda2 0.8499999999999999 [dLambda -0.050000000000000044]
TCL: Setting parameter firsttimestep to 0
TCL: Setting parameter alchLambda to 0.8999999999999999
Info: NONBONDED TABLE R-SQUARED SPACING: 0.0625
Info: NONBONDED TABLE SIZE: 705 POINTS
TCL: Setting parameter alchLambda2 to 0.8499999999999999
Info: NONBONDED TABLE R-SQUARED SPACING: 0.0625
Info: NONBONDED TABLE SIZE: 705 POINTS
TCL: Running for 1500000 steps
ETITLE: TS BOND ANGLE DIHED IMPRP ELECT VDW BOUNDARY MISC KINETIC TOTAL TEMP POTENTIAL TOTALAVG TEMPAVG PRESSURE GPRESSURE VOLUME PRESSAVG GPRESSAVG
ENERGY: 0 1.7649 1.5798 0.0000 0.0000 -10658.2813 1463.7514 0.0000 0.0000 1718.4336 -7472.7516 294.0344 -9191.1852 -7472.7516 294.0344 538.2508 620.0921 29796.8861 538.2508 620.0921
ENERGY: 300000 0.2907 1.0183 0.0000 0.0000 -10653.9968 1482.9326 0.0000 0.0000 1795.4777 -7374.2776 307.2171 -9169.7552 -7426.3140 301.8494 721.9335 800.2951 30048.6301 231.6845 294.8940
ENERGY: 600000 0.0703 1.9730 0.0000 0.0000 -10641.9301 1359.5712 0.0000 0.0000 1739.3738 -7540.9419 297.6174 -9280.3157 -7477.5308 299.1977 -603.4925 -522.9421 29972.9272 -61.1591 7.8968
ENERGY: 900000 0.0477 0.7554 0.0000 0.0000 -10767.8306 1440.2476 0.0000 0.0000 1746.5010 -7580.2789 298.8369 -9326.7799 -7487.4157 300.2937 9.8415 26.6753 30002.6399 -98.8808 -26.6162
ENERGY: 1200000 0.5663 1.2941 0.0000 0.0000 -10823.1985 1456.8011 0.0000 0.0000 1771.8657 -7592.6713 303.1769 -9364.5370 -7486.9977 301.2018 -248.3759 -236.0290 30279.5796 -68.2669 1.9667
ENERGY: 1500000 0.4119 0.9963 0.0000 0.0000 -10618.3721 1372.8612 0.0000 0.0000 1745.4067 -7498.6960 298.6496 -9244.1027 -7491.8964 300.6813 -430.1085 -398.7860 30208.1203 -18.7096 47.5479
TCL: Running FEP window   4: Lambda1 0.8499999999999999 Lambda2 0.7999999999999998 [dLambda -0.050000000000000044]
TCL: Setting parameter firsttimestep to 0
TCL: Setting parameter alchLambda to 0.8499999999999999
Info: NONBONDED TABLE R-SQUARED SPACING: 0.0625
Info: NONBONDED TABLE SIZE: 705 POINTS
TCL: Setting parameter alchLambda2 to 0.7999999999999998
Info: NONBONDED TABLE R-SQUARED SPACING: 0.0625
Info: NONBONDED TABLE SIZE: 705 POINTS
TCL: Running for 1500000 steps
ETITLE: TS BOND ANGLE DIHED IMPRP ELECT VDW BOUNDARY MISC KINETIC TOTAL TEMP POTENTIAL TOTALAVG TEMPAVG PRESSURE GPRESSURE VOLUME PRESSAVG GPRESSAVG
ENERGY: 0 0.4119 0.9963 0.0000 0.0000 -10617.6003 1373.1427 0.0000 0.0000 1744.5604 -7498.4891 298.5048 -9243.0495 -7498.4891 298.5048 -482.1178 -399.3960 30208.1203 -482.1178 -399.3960
ENERGY: 300000 0.4364 2.1439 0.0000 0.0000 -10675.6331 1431.2437 0.0000 0.0000 1755.4272 -7486.3819 300.3642 -9241.8091 -7499.3584 298.9161 -195.3604 -52.8405 30383.2230 149.0329 273.1829
ENERGY: 600000 2.2321 4.9837 0.0000 0.0000 -10592.1099 1372.3465 0.0000 0.0000 1779.6535 -7432.8940 304.5095 -9212.5475 -7485.2227 298.4955 -350.2144 -231.2576 29986.6324 79.9061 187.2445
ENERGY: 900000 0.2347 0.8795 0.0000 0.0000 -10654.8630 1323.0424 0.0000 0.0000 1691.6729 -7639.0336 289.4555 -9330.7064 -7483.5578 298.6311 -1220.2840 -1130.6881 30517.2991 -87.6185 6.1383
ENERGY: 1200000 0.1035 3.8400 0.0000 0.0000 -10654.3429 1385.2551 0.0000 0.0000 1765.7949 -7499.3495 302.1382 -9265.1444 -7489.4272 298.2111 -501.6486 -435.2476 30281.7738 -120.0780 -30.2670
ENERGY: 1500000 0.7539 0.8019 0.0000 0.0000 -10776.4380 1475.6139 0.0000 0.0000 1708.1764 -7591.0918 292.2793 -9299.2682 -7508.5455 296.8508 264.2351 338.1176 30102.0994 -42.9865 41.1631
TCL: Running FEP window   5: Lambda1 0.7999999999999998 Lambda2 0.7499999999999998 [dLambda -0.050000000000000044]
TCL: Setting parameter firsttimestep to 0
TCL: Setting parameter alchLambda to 0.7999999999999998
Info: NONBONDED TABLE R-SQUARED SPACING: 0.0625
Info: NONBONDED TABLE SIZE: 705 POINTS
TCL: Setting parameter alchLambda2 to 0.7499999999999998
Info: NONBONDED TABLE R-SQUARED SPACING: 0.0625
Info: NONBONDED TABLE SIZE: 705 POINTS
TCL: Running for 1500000 steps
ETITLE: TS BOND ANGLE DIHED IMPRP ELECT VDW BOUNDARY MISC KINETIC TOTAL TEMP POTENTIAL TOTALAVG TEMPAVG PRESSURE GPRESSURE VOLUME PRESSAVG GPRESSAVG
ENERGY: 0 0.7539 0.8019 0.0000 0.0000 -10775.9829 1475.8490 0.0000 0.0000 1707.3163 -7591.2617 292.1322 -9298.5781 -7591.2617 292.1322 244.3172 338.2672 30102.0994 244.3172 338.2672
ENERGY: 300000 0.0656 2.5537 0.0000 0.0000 -10636.3650 1429.0032 0.0000 0.0000 1674.8081 -7529.9344 286.5698 -9204.7425 -7518.4755 293.8910 -59.9472 18.3940 30516.9056 140.8152 218.9707
ENERGY: 600000 0.2367 1.7450 0.0000 0.0000 -10593.1834 1366.8157 0.0000 0.0000 1720.3950 -7503.9910 294.3700 -9224.3861 -7506.3656 295.3284 -536.0968 -452.0700 30332.9838 22.8038 112.1588
ENERGY: 900000 0.2387 0.8725 0.0000 0.0000 -10599.7125 1404.5527 0.0000 0.0000 1690.6148 -7503.4339 289.2744 -9194.0486 -7500.4525 295.0083 -190.4680 -237.2595 30502.5938 91.7020 166.1680
ENERGY: 1200000 0.5894 2.3482 0.0000 0.0000 -10652.8856 1395.6466 0.0000 0.0000 1778.9693 -7475.3321 304.3924 -9254.3013 -7491.1603 296.9246 -220.8780 -127.1238 29940.0604 115.2350 187.7366
ENERGY: 1500000 2.4312 0.8474 0.0000 0.0000 -10653.4236 1384.1553 0.0000 0.0000 1798.6342 -7467.3557 307.7572 -9265.9898 -7485.0463 298.4207 -649.2364 -563.9116 30692.7390 7.4520 79.1318
TCL: Running FEP window   6: Lambda1 0.7499999999999998 Lambda2 0.6999999999999997 [dLambda -0.050000000000000044]
TCL: Setting parameter firsttimestep to 0
TCL: Setting parameter alchLambda to 0.7499999999999998
Info: NONBONDED TABLE R-SQUARED SPACING: 0.0625
Info: NONBONDED TABLE SIZE: 705 POINTS
TCL: Setting parameter alchLambda2 to 0.6999999999999997
Info: NONBONDED TABLE R-SQUARED SPACING: 0.0625
Info: NONBONDED TABLE SIZE: 705 POINTS
TCL: Running for 1500000 steps
ETITLE: TS BOND ANGLE DIHED IMPRP ELECT VDW BOUNDARY MISC KINETIC TOTAL TEMP POTENTIAL TOTALAVG TEMPAVG PRESSURE GPRESSURE VOLUME PRESSAVG GPRESSAVG
ENERGY: 0 2.4312 0.8474 0.0000 0.0000 -10652.9330 1383.9037 0.0000 0.0000 1797.7938 -7467.9569 307.6134 -9265.7508 -7467.9569 307.6134 -663.2750 -572.1047 30692.7390 -663.2750 -572.1047
ENERGY: 300000 2.3445 0.9208 0.0000 0.0000 -10824.4479 1550.7721 0.0000 0.0000 1677.9777 -7592.4328 287.1121 -9270.4104 -7523.4832 297.8521 641.8767 730.5600 30255.3390 233.0000 313.1272
ENERGY: 600000 1.7865 0.6415 0.0000 0.0000 -10764.7890 1434.0145 0.0000 0.0000 1746.7967 -7581.5497 298.8875 -9328.3464 -7505.0447 297.8905 -201.2368 -152.9002 30141.6577 -13.1222 42.7266
ENERGY: 900000 0.5598 1.1010 0.0000 0.0000 -10675.4642 1409.6595 0.0000 0.0000 1796.2618 -7467.8821 307.3513 -9264.1439 -7500.6728 299.2300 -97.9729 -37.7910 30004.6671 39.3336 99.6759
ENERGY: 1200000 0.3530 0.7290 0.0000 0.0000 -10704.7933 1513.2743 0.0000 0.0000 1829.1680 -7361.2692 312.9817 -9190.4371 -7483.8434 300.5915 713.8796 767.8787 30291.1136 77.9478 136.3212
ENERGY: 1500000 1.0540 2.6243 0.0000 0.0000 -10643.1274 1405.9589 0.0000 0.0000 1751.4163 -7482.0739 299.6779 -9233.4902 -7483.7539 300.1428 -50.4209 47.1461 29831.9233 -40.8543 20.4653
TCL: Running FEP window   7: Lambda1 0.6999999999999997 Lambda2 0.6499999999999997 [dLambda -0.050000000000000044]
TCL: Setting parameter firsttimestep to 0
TCL: Setting parameter alchLambda to 0.6999999999999997
Info: NONBONDED TABLE R-SQUARED SPACING: 0.0625
Info: NONBONDED TABLE SIZE: 705 POINTS
TCL: Setting parameter alchLambda2 to 0.6499999999999997
Info: NONBONDED TABLE R-SQUARED SPACING: 0.0625
Info: NONBONDED TABLE SIZE: 705 POINTS
TCL: Running for 1500000 steps
ETITLE: TS BOND ANGLE DIHED IMPRP ELECT VDW BOUNDARY MISC KINETIC TOTAL TEMP POTENTIAL TOTALAVG TEMPAVG PRESSURE GPRESSURE VOLUME PRESSAVG GPRESSAVG
ENERGY: 0 1.0540 2.6243 0.0000 0.0000 -10642.8385 1406.1607 0.0000 0.0000 1750.5487 -7482.4507 299.5295 -9232.9995 -7482.4507 299.5295 -43.8247 46.1492 29831.9233 -43.8247 46.1492
ENERGY: 300000 0.8281 0.8711 0.0000 0.0000 -10590.0272 1429.0057 0.0000 0.0000 1717.7073 -7441.6150 293.9101 -9159.3223 -7496.7366 296.8831 -3.0616 74.4685 30420.1392 36.0777 119.1794
ENERGY: 600000 1.1119 0.7247 0.0000 0.0000 -10647.8430 1401.9536 0.0000 0.0000 1735.1813 -7508.8715 296.9000 -9244.0529 -7499.4070 296.2282 -407.6536 -389.5801 30560.0376 -152.1494 -91.1518
ENERGY: 900000 1.4814 1.5798 0.0000 0.0000 -10783.4936 1467.9176 0.0000 0.0000 1778.3002 -7534.2146 304.2779 -9312.5148 -7482.3036 298.2173 87.8590 136.4266 30326.8549 -10.0753 52.8743
ENERGY: 1200000 2.5135 1.3621 0.0000 0.0000 -10859.0811 1581.5378 0.0000 0.0000 1783.7068 -7489.9609 305.2030 -9273.6677 -7487.0564 298.3882 1314.1981 1313.1845 30141.3125 134.7770 203.4525
ENERGY: 1500000 2.9677 3.4492 0.0000 0.0000 -10669.7339 1391.0649 0.0000 0.0000 1728.2388 -7544.0132 295.7121 -9272.2520 -7493.0111 298.4279 -434.9729 -454.9650 30342.0956 80.3363 146.5866
TCL: Running FEP window   8: Lambda1 0.6499999999999997 Lambda2 0.5999999999999996 [dLambda -0.050000000000000044]
TCL: Setting parameter firsttimestep to 0
TCL: Setting parameter alchLambda to 0.6499999999999997
Info: NONBONDED TABLE R-SQUARED SPACING: 0.0625
Info: NONBONDED TABLE SIZE: 705 POINTS
TCL: Setting parameter alchLambda2 to 0.5999999999999996
Info: NONBONDED TABLE R-SQUARED SPACING: 0.0625
Info: NONBONDED TABLE SIZE: 705 POINTS
TCL: Running for 1500000 steps
ETITLE: TS BOND ANGLE DIHED IMPRP ELECT VDW BOUNDARY MISC KINETIC TOTAL TEMP POTENTIAL TOTALAVG TEMPAVG PRESSURE GPRESSURE VOLUME PRESSAVG GPRESSAVG
ENERGY: 0 2.9677 3.4492 0.0000 0.0000 -10669.5961 1391.1751 0.0000 0.0000 1727.3572 -7544.6468 295.5613 -9272.0040 -7544.6468 295.5613 -535.4896 -458.0265 30342.0956 -535.4896 -458.0265
ENERGY: 300000 0.1509 0.5887 0.0000 0.0000 -10769.7355 1445.9922 0.0000 0.0000 1780.1540 -7542.8497 304.5951 -9323.0037 -7528.0666 298.6370 -49.7691 29.5101 30424.9359 -260.8640 -188.0319
ENERGY: 600000 0.4167 1.3131 0.0000 0.0000 -10668.7324 1451.5761 0.0000 0.0000 1719.4331 -7495.9933 294.2054 -9215.4265 -7509.4567 298.5294 -209.1544 -98.6674 30677.2755 -174.9281 -99.8549
ENERGY: 900000 2.9027 2.8015 0.0000 0.0000 -10754.4130 1461.4997 0.0000 0.0000 1705.2925 -7581.9166 291.7859 -9287.2092 -7495.1640 299.1642 222.8860 307.3553 30045.6349 -94.3514 -20.9011
ENERGY: 1200000 0.8809 0.8524 0.0000 0.0000 -10677.4844 1407.4725 0.0000 0.0000 1773.6777 -7494.6008 303.4870 -9268.2785 -7494.8822 299.3311 -308.7175 -246.9834 30217.5542 -122.5061 -47.3176
ENERGY: 1500000 1.2776 0.4343 0.0000 0.0000 -10736.1135 1498.9026 0.0000 0.0000 1758.1618 -7477.3372 300.8321 -9235.4989 -7495.3087 299.4026 432.4820 480.4233 30309.8970 -108.6886 -32.3648
TCL: Running FEP window   9: Lambda1 0.5999999999999996 Lambda2 0.5499999999999996 [dLambda -0.050000000000000044]
TCL: Setting parameter firsttimestep to 0
TCL: Setting parameter alchLambda to 0.5999999999999996
Info: NONBONDED TABLE R-SQUARED SPACING: 0.0625
Info: NONBONDED TABLE SIZE: 705 POINTS
TCL: Setting parameter alchLambda2 to 0.5499999999999996
Info: NONBONDED TABLE R-SQUARED SPACING: 0.0625
Info: NONBONDED TABLE SIZE: 705 POINTS
TCL: Running for 1500000 steps
ETITLE: TS BOND ANGLE DIHED IMPRP ELECT VDW BOUNDARY MISC KINETIC TOTAL TEMP POTENTIAL TOTALAVG TEMPAVG PRESSURE GPRESSURE VOLUME PRESSAVG GPRESSAVG
ENERGY: 0 1.2776 0.4343 0.0000 0.0000 -10736.0036 1499.1603 0.0000 0.0000 1757.2568 -7477.8745 300.6773 -9235.1314 -7477.8745 300.6773 393.9984 481.5124 30309.8970 393.9984 481.5124
ENERGY: 300000 1.1290 1.0726 0.0000 0.0000 -10715.6718 1480.0023 0.0000 0.0000 1778.7897 -7454.6782 304.3617 -9233.4680 -7466.4811 305.4902 596.6852 695.5785 29885.7056 532.3398 595.3984
ENERGY: 600000 0.8149 0.2672 0.0000 0.0000 -10680.5870 1375.1798 0.0000 0.0000 1735.8314 -7568.4936 297.0113 -9304.3251 -7486.7612 302.5176 -624.5185 -538.7783 30050.4001 170.2225 239.2059
ENERGY: 900000 2.2291 2.6567 0.0000 0.0000 -10598.8898 1375.7271 0.0000 0.0000 1749.8692 -7468.4076 299.4132 -9218.2768 -7484.2412 302.0980 -678.9399 -635.5427 31069.6260 -35.1512 27.9561
ENERGY: 1200000 0.1220 2.1010 0.0000 0.0000 -10684.7754 1437.6020 0.0000 0.0000 1685.6876 -7559.2629 288.4313 -9244.9504 -7505.3478 300.1745 -79.6599 9.0570 30419.8877 -36.9348 36.2871
ENERGY: 1500000 0.3492 0.3393 0.0000 0.0000 -10691.3769 1398.9168 0.0000 0.0000 1742.9617 -7548.8099 298.2313 -9291.7716 -7497.1047 300.4054 -403.1419 -350.1342 29972.7872 -56.6462 13.7303
TCL: Running FEP window  10: Lambda1 0.5499999999999996 Lambda2 0.4999999999999996 [dLambda -0.04999999999999999]
TCL: Setting parameter firsttimestep to 0
TCL: Setting parameter alchLambda to 0.5499999999999996
Info: NONBONDED TABLE R-SQUARED SPACING: 0.0625
Info: NONBONDED TABLE SIZE: 705 POINTS
TCL: Setting parameter alchLambda2 to 0.4999999999999996
Info: NONBONDED TABLE R-SQUARED SPACING: 0.0625
Info: NONBONDED TABLE SIZE: 705 POINTS
TCL: Running for 1500000 steps
ETITLE: TS BOND ANGLE DIHED IMPRP ELECT VDW BOUNDARY MISC KINETIC TOTAL TEMP POTENTIAL TOTALAVG TEMPAVG PRESSURE GPRESSURE VOLUME PRESSAVG GPRESSAVG
ENERGY: 0 0.3492 0.3393 0.0000 0.0000 -10691.1342 1398.8558 0.0000 0.0000 1742.0861 -7549.5038 298.0815 -9291.5899 -7549.5038 298.0815 -449.5490 -352.7730 29972.7872 -449.5490 -352.7730
ENERGY: 300000 0.5320 0.3204 0.0000 0.0000 -10688.9709 1382.9319 0.0000 0.0000 1780.6004 -7524.5862 304.6715 -9305.1866 -7500.7000 298.7944 -284.1129 -231.8314 29724.0905 -295.1112 -223.5585
ENERGY: 600000 0.5198 0.7887 0.0000 0.0000 -10711.4120 1418.1917 0.0000 0.0000 1820.6754 -7471.2364 311.5286 -9291.9119 -7505.0559 299.7697 -318.2717 -259.5726 30323.7385 -394.2135 -323.1045
ENERGY: 900000 0.9658 2.0863 0.0000 0.0000 -10666.6119 1372.1021 0.0000 0.0000 1799.8536 -7491.6041 307.9658 -9291.4577 -7506.5478 300.4185 -818.3410 -711.3435 30384.9539 -411.9298 -339.4146
ENERGY: 1200000 0.9722 1.1270 0.0000 0.0000 -10633.1576 1459.2955 0.0000 0.0000 1741.6590 -7430.1039 298.0084 -9171.7629 -7492.5741 300.2882 261.6992 338.7912 30364.8000 -270.9822 -202.5980
ENERGY: 1500000 0.5314 1.7989 0.0000 0.0000 -10672.8032 1435.8913 0.0000 0.0000 1780.8904 -7453.6912 304.7211 -9234.5816 -7493.3051 299.7519 104.7900 152.4672 30252.3275 -218.5992 -158.9829
TCL: Running FEP window  11: Lambda1 0.4999999999999996 Lambda2 0.4499999999999996 [dLambda -0.04999999999999999]
TCL: Setting parameter firsttimestep to 0
TCL: Setting parameter alchLambda to 0.4999999999999996
Info: NONBONDED TABLE R-SQUARED SPACING: 0.0625
Info: NONBONDED TABLE SIZE: 705 POINTS
TCL: Setting parameter alchLambda2 to 0.4499999999999996
Info: NONBONDED TABLE R-SQUARED SPACING: 0.0625
Info: NONBONDED TABLE SIZE: 705 POINTS
TCL: Running for 1500000 steps
ETITLE: TS BOND ANGLE DIHED IMPRP ELECT VDW BOUNDARY MISC KINETIC TOTAL TEMP POTENTIAL TOTALAVG TEMPAVG PRESSURE GPRESSURE VOLUME PRESSAVG GPRESSAVG
ENERGY: 0 0.5314 1.7989 0.0000 0.0000 -10672.6346 1435.9784 0.0000 0.0000 1780.0285 -7454.2973 304.5736 -9234.3258 -7454.2973 304.5736 66.7481 148.7813 30252.3275 66.7481 148.7813
ENERGY: 300000 0.9159 0.6240 0.0000 0.0000 -10578.8564 1390.6539 0.0000 0.0000 1753.8842 -7432.7785 300.1002 -9186.6627 -7466.6932 304.6444 15.9521 117.1439 29918.4688 109.0590 170.4824
ENERGY: 600000 1.1097 2.4696 0.0000 0.0000 -10516.6106 1317.9947 0.0000 0.0000 1742.0843 -7452.9522 298.0812 -9195.0365 -7468.6768 303.2083 -1092.8369 -984.1504 30643.7602 -142.0362 -75.1897
ENERGY: 900000 0.2362 1.4421 0.0000 0.0000 -10653.3795 1417.2978 0.0000 0.0000 1762.1056 -7472.2977 301.5069 -9234.4034 -7458.6746 303.7517 14.2423 39.5493 30105.1744 -41.2760 19.2712
ENERGY: 1200000 0.9835 1.7660 0.0000 0.0000 -10670.5615 1393.0112 0.0000 0.0000 1798.7337 -7476.0671 307.7742 -9274.8008 -7467.2402 303.6678 -467.7495 -427.5240 30373.2595 -50.8572 9.7037
ENERGY: 1500000 1.3665 0.7490 0.0000 0.0000 -10667.6048 1386.4055 0.0000 0.0000 1773.6153 -7505.4685 303.4763 -9279.0838 -7469.8898 302.9827 -357.6984 -254.5324 30114.4717 -62.4991 -0.1467
TCL: Running FEP window  12: Lambda1 0.4499999999999996 Lambda2 0.39999999999999963 [dLambda -0.04999999999999999]
TCL: Setting parameter firsttimestep to 0
TCL: Setting parameter alchLambda to 0.4499999999999996
Info: NONBONDED TABLE R-SQUARED SPACING: 0.0625
Info: NONBONDED TABLE SIZE: 705 POINTS
TCL: Setting parameter alchLambda2 to 0.39999999999999963
Info: NONBONDED TABLE R-SQUARED SPACING: 0.0625
Info: NONBONDED TABLE SIZE: 705 POINTS
TCL: Running for 1500000 steps
ETITLE: TS BOND ANGLE DIHED IMPRP ELECT VDW BOUNDARY MISC KINETIC TOTAL TEMP POTENTIAL TOTALAVG TEMPAVG PRESSURE GPRESSURE VOLUME PRESSAVG GPRESSAVG
ENERGY: 0 1.3665 0.7490 0.0000 0.0000 -10667.6065 1386.5799 0.0000 0.0000 1772.7170 -7506.1941 303.3226 -9278.9111 -7506.1941 303.3226 -332.3778 -254.6590 30114.4717 -332.3778 -254.6590
ENERGY: 300000 1.3254 3.1645 0.0000 0.0000 -10742.6727 1473.0344 0.0000 0.0000 1713.4486 -7551.6999 293.1814 -9265.1485 -7497.5693 301.0292 114.8913 228.1837 29838.2482 -15.1039 59.7651
ENERGY: 600000 0.3581 0.6298 0.0000 0.0000 -10488.8382 1292.1082 0.0000 0.0000 1704.3762 -7491.3658 291.6291 -9195.7420 -7494.7280 298.9127 -1261.2046 -1164.2906 30725.7957 -224.7968 -151.2704
ENERGY: 900000 0.3917 0.9081 0.0000 0.0000 -10768.0847 1481.6639 0.0000 0.0000 1787.9820 -7497.1389 305.9345 -9285.1209 -7491.6325 300.7907 462.5282 440.3674 29958.4903 -12.0167 51.9611
ENERGY: 1200000 0.0109 1.8067 0.0000 0.0000 -10577.2153 1292.9818 0.0000 0.0000 1768.0966 -7514.3193 302.5320 -9282.4159 -7484.5690 301.5056 -1209.7158 -1177.4666 30335.5245 -133.3003 -70.0098
ENERGY: 1500000 0.4818 3.7119 0.0000 0.0000 -10663.7724 1433.4421 0.0000 0.0000 1769.0272 -7457.1095 302.6913 -9226.1367 -7477.6183 302.1408 -213.6439 -188.0489 30627.1901 -71.7948 -18.3305
TCL: Running FEP window  13: Lambda1 0.39999999999999963 Lambda2 0.34999999999999964 [dLambda -0.04999999999999999]
TCL: Setting parameter firsttimestep to 0
TCL: Setting parameter alchLambda to 0.39999999999999963
Info: NONBONDED TABLE R-SQUARED SPACING: 0.0625
Info: NONBONDED TABLE SIZE: 705 POINTS
TCL: Setting parameter alchLambda2 to 0.34999999999999964
Info: NONBONDED TABLE R-SQUARED SPACING: 0.0625
Info: NONBONDED TABLE SIZE: 705 POINTS
TCL: Running for 1500000 steps
ETITLE: TS BOND ANGLE DIHED IMPRP ELECT VDW BOUNDARY MISC KINETIC TOTAL TEMP POTENTIAL TOTALAVG TEMPAVG PRESSURE GPRESSURE VOLUME PRESSAVG GPRESSAVG
ENERGY: 0 0.4818 3.7119 0.0000 0.0000 -10663.7721 1433.5213 0.0000 0.0000 1768.1695 -7457.8877 302.5445 -9226.0572 -7457.8877 302.5445 -260.5998 -189.9798 30627.1901 -260.5998 -189.9798
ENERGY: 300000 0.6928 1.2755 0.0000 0.0000 -10707.6995 1477.0212 0.0000 0.0000 1781.5993 -7447.1107 304.8424 -9228.7100 -7499.6423 298.1995 159.2943 214.9394 30322.5860 64.0246 139.8368
ENERGY: 600000 0.5017 1.3209 0.0000 0.0000 -10511.5819 1341.1757 0.0000 0.0000 1716.3512 -7452.2323 293.6781 -9168.5836 -7486.7322 298.5123 -884.1667 -813.4391 30999.7476 45.2803 128.5852
ENERGY: 900000 0.7357 1.9620 0.0000 0.0000 -10667.3592 1433.7836 0.0000 0.0000 1799.3309 -7431.5469 307.8764 -9230.8778 -7496.0767 297.2779 99.0218 207.8368 30128.3231 56.3564 139.6194
ENERGY: 1200000 1.5808 3.9085 0.0000 0.0000 -10773.8729 1489.6848 0.0000 0.0000 1702.5180 -7576.1808 291.3111 -9278.6987 -7495.9743 298.5116 62.0605 138.0869 30438.2750 65.1013 137.8019
ENERGY: 1500000 1.2344 1.5667 0.0000 0.0000 -10739.9625 1494.0743 0.0000 0.0000 1751.4676 -7491.6195 299.6867 -9243.0871 -7495.2156 298.5800 587.3698 646.7472 30166.4340 47.7780 116.2950
TCL: Running FEP window  14: Lambda1 0.34999999999999964 Lambda2 0.29999999999999966 [dLambda -0.04999999999999999]
TCL: Setting parameter firsttimestep to 0
TCL: Setting parameter alchLambda to 0.34999999999999964
Info: NONBONDED TABLE R-SQUARED SPACING: 0.0625
Info: NONBONDED TABLE SIZE: 705 POINTS
TCL: Setting parameter alchLambda2 to 0.29999999999999966
Info: NONBONDED TABLE R-SQUARED SPACING: 0.0625
Info: NONBONDED TABLE SIZE: 705 POINTS
TCL: Running for 1500000 steps
ETITLE: TS BOND ANGLE DIHED IMPRP ELECT VDW BOUNDARY MISC KINETIC TOTAL TEMP POTENTIAL TOTALAVG TEMPAVG PRESSURE GPRESSURE VOLUME PRESSAVG GPRESSAVG
ENERGY: 0 1.2344 1.5667 0.0000 0.0000 -10739.9638 1493.8807 0.0000 0.0000 1750.6065 -7492.6756 299.5394 -9243.2821 -7492.6756 299.5394 562.8106 643.4688 30166.4340 562.8106 643.4688
ENERGY: 300000 0.4342 1.4088 0.0000 0.0000 -10749.9734 1488.9309 0.0000 0.0000 1760.4642 -7498.7353 301.2261 -9259.1995 -7508.8380 299.0623 417.1502 506.8341 30036.6999 132.6073 210.4773
ENERGY: 600000 0.5005 1.9274 0.0000 0.0000 -10732.2852 1479.0311 0.0000 0.0000 1754.1209 -7496.7052 300.1407 -9250.8262 -7489.0365 299.0053 511.1814 573.3189 29698.4653 65.1128 136.2050
ENERGY: 900000 1.1800 2.7442 0.0000 0.0000 -10609.1464 1389.7402 0.0000 0.0000 1805.5057 -7409.9763 308.9329 -9215.4820 -7482.5419 300.8086 -490.9692 -446.8765 30570.2744 50.3126 114.4216
ENERGY: 1200000 0.1413 2.0693 0.0000 0.0000 -10696.2185 1385.5307 0.0000 0.0000 1845.6311 -7462.8461 315.7986 -9308.4772 -7491.4320 301.7789 -669.4629 -568.0707 30371.0169 -49.4093 15.1139
ENERGY: 1500000 0.9131 2.7073 0.0000 0.0000 -10710.4262 1444.0537 0.0000 0.0000 1786.5691 -7476.1830 305.6928 -9262.7521 -7486.7795 302.7033 -114.9214 -178.5844 30735.2946 -52.0273 5.8774
TCL: Running FEP window  15: Lambda1 0.29999999999999966 Lambda2 0.24999999999999967 [dLambda -0.04999999999999999]
TCL: Setting parameter firsttimestep to 0
TCL: Setting parameter alchLambda to 0.29999999999999966
Info: NONBONDED TABLE R-SQUARED SPACING: 0.0625
Info: NONBONDED TABLE SIZE: 705 POINTS
TCL: Setting parameter alchLambda2 to 0.24999999999999967
Info: NONBONDED TABLE R-SQUARED SPACING: 0.0625
Info: NONBONDED TABLE SIZE: 705 POINTS
TCL: Running for 1500000 steps
ETITLE: TS BOND ANGLE DIHED IMPRP ELECT VDW BOUNDARY MISC KINETIC TOTAL TEMP POTENTIAL TOTALAVG TEMPAVG PRESSURE GPRESSURE VOLUME PRESSAVG GPRESSAVG
ENERGY: 0 0.9131 2.7073 0.0000 0.0000 -10710.4265 1444.3273 0.0000 0.0000 1785.7013 -7476.7775 305.5443 -9262.4788 -7476.7775 305.5443 -263.0637 -178.0758 30735.2946 -263.0637 -178.0758
ENERGY: 300000 1.8281 2.0660 0.0000 0.0000 -10664.8771 1457.7734 0.0000 0.0000 1703.6094 -7499.6001 291.4979 -9203.2096 -7491.6098 298.6526 336.5784 454.3597 30039.2922 -243.1116 -162.2966
ENERGY: 600000 3.2338 0.5477 0.0000 0.0000 -10764.2523 1477.7491 0.0000 0.0000 1757.4649 -7525.2567 300.7129 -9282.7216 -7507.1650 297.8901 184.7240 252.2627 30418.9985 -155.4770 -86.2481
ENERGY: 900000 0.4861 0.9701 0.0000 0.0000 -10675.5398 1431.4754 0.0000 0.0000 1796.4373 -7446.1708 307.3813 -9242.6081 -7509.7535 298.7783 -202.6550 -58.1027 30568.4563 -127.4702 -59.3139
ENERGY: 1200000 1.5649 1.2175 0.0000 0.0000 -10823.3469 1556.3590 0.0000 0.0000 1788.0042 -7476.2013 305.9383 -9264.2055 -7507.1937 299.3597 743.4562 790.5367 30262.6024 -56.7942 13.8359
ENERGY: 1500000 0.7763 1.4007 0.0000 0.0000 -10619.9401 1362.6268 0.0000 0.0000 1734.2675 -7520.8688 296.7437 -9255.1363 -7510.6175 299.4766 -699.4662 -567.9751 30225.2882 -110.5539 -34.2565
TCL: Running FEP window  16: Lambda1 0.24999999999999967 Lambda2 0.19999999999999968 [dLambda -0.04999999999999999]
TCL: Setting parameter firsttimestep to 0
TCL: Setting parameter alchLambda to 0.24999999999999967
Info: NONBONDED TABLE R-SQUARED SPACING: 0.0625
Info: NONBONDED TABLE SIZE: 705 POINTS
TCL: Setting parameter alchLambda2 to 0.19999999999999968
Info: NONBONDED TABLE R-SQUARED SPACING: 0.0625
Info: NONBONDED TABLE SIZE: 705 POINTS
TCL: Running for 1500000 steps
ETITLE: TS BOND ANGLE DIHED IMPRP ELECT VDW BOUNDARY MISC KINETIC TOTAL TEMP POTENTIAL TOTALAVG TEMPAVG PRESSURE GPRESSURE VOLUME PRESSAVG GPRESSAVG
ENERGY: 0 0.7763 1.4007 0.0000 0.0000 -10619.9401 1362.8721 0.0000 0.0000 1733.4222 -7521.4688 296.5990 -9254.8910 -7521.4688 296.5990 -666.2128 -568.5027 30225.2882 -666.2128 -568.5027
ENERGY: 300000 0.4910 0.7860 0.0000 0.0000 -10538.1041 1345.2135 0.0000 0.0000 1701.1144 -7490.4993 291.0710 -9191.6137 -7503.5044 293.3457 -482.0829 -378.5103 29903.8226 -511.8482 -441.3761
ENERGY: 600000 0.7359 1.3145 0.0000 0.0000 -10684.3798 1423.1673 0.0000 0.0000 1806.5749 -7452.5873 309.1159 -9259.1622 -7503.7960 297.9770 -346.2719 -283.2929 30581.5299 -453.5331 -384.5360
ENERGY: 900000 1.6391 1.9801 0.0000 0.0000 -10656.9513 1376.0666 0.0000 0.0000 1691.9149 -7585.3507 289.4969 -9277.2655 -7499.0816 299.4542 -839.2338 -784.2044 30777.0549 -261.5550 -188.5270
ENERGY: 1200000 1.6432 0.5849 0.0000 0.0000 -10736.9238 1413.9122 0.0000 0.0000 1735.4065 -7585.3769 296.9385 -9320.7834 -7506.5112 298.8733 -341.6521 -250.8260 30212.6670 -145.0087 -72.8588
ENERGY: 1500000 0.4215 1.6301 0.0000 0.0000 -10606.7977 1367.7759 0.0000 0.0000 1758.7924 -7478.1779 300.9400 -9236.9703 -7493.1026 299.6693 -362.7489 -307.0501 30023.5146 -126.0915 -55.2794
TCL: Running FEP window  17: Lambda1 0.19999999999999968 Lambda2 0.1499999999999997 [dLambda -0.04999999999999999]
TCL: Setting parameter firsttimestep to 0
TCL: Setting parameter alchLambda to 0.19999999999999968
Info: NONBONDED TABLE R-SQUARED SPACING: 0.0625
Info: NONBONDED TABLE SIZE: 705 POINTS
TCL: Setting parameter alchLambda2 to 0.1499999999999997
Info: NONBONDED TABLE R-SQUARED SPACING: 0.0625
Info: NONBONDED TABLE SIZE: 705 POINTS
TCL: Running for 1500000 steps
ETITLE: TS BOND ANGLE DIHED IMPRP ELECT VDW BOUNDARY MISC KINETIC TOTAL TEMP POTENTIAL TOTALAVG TEMPAVG PRESSURE GPRESSURE VOLUME PRESSAVG GPRESSAVG
ENERGY: 0 0.4215 1.6301 0.0000 0.0000 -10606.7969 1367.3234 0.0000 0.0000 1757.9054 -7479.5164 300.7883 -9237.4218 -7479.5164 300.7883 -402.5746 -313.1951 30023.5146 -402.5746 -313.1951
ENERGY: 300000 0.2724 1.9173 0.0000 0.0000 -10680.2906 1492.8767 0.0000 0.0000 1756.9642 -7428.2600 300.6272 -9185.2242 -7488.8742 300.0686 491.8638 640.9455 30080.4930 -75.0038 -3.1086
ENERGY: 600000 0.5976 0.7520 0.0000 0.0000 -10526.7222 1328.6559 0.0000 0.0000 1713.9235 -7482.7933 293.2627 -9196.7168 -7484.3329 299.1685 -1058.7749 -972.1768 30904.9479 -166.9135 -95.7806
ENERGY: 900000 0.7396 1.2637 0.0000 0.0000 -10909.7584 1583.7628 0.0000 0.0000 1775.7938 -7548.1985 303.8491 -9323.9923 -7495.0161 300.3343 809.8434 916.1965 30112.0159 -106.6102 -29.8758
ENERGY: 1200000 0.9823 2.4151 0.0000 0.0000 -10713.4784 1470.3805 0.0000 0.0000 1736.7868 -7502.9136 297.1747 -9239.7004 -7488.5125 300.7547 -69.8509 75.7336 30233.0996 -92.1350 -4.9837
ENERGY: 1500000 2.7498 1.0953 0.0000 0.0000 -10576.4283 1362.0119 0.0000 0.0000 1737.7717 -7472.7996 297.3433 -9210.5713 -7494.1213 299.9301 -820.8407 -753.0696 30656.1248 -138.9048 -54.0298
TCL: Running FEP window  18: Lambda1 0.1499999999999997 Lambda2 0.09999999999999969 [dLambda -0.05 ]
TCL: Setting parameter firsttimestep to 0
TCL: Setting parameter alchLambda to 0.1499999999999997
Info: NONBONDED TABLE R-SQUARED SPACING: 0.0625
Info: NONBONDED TABLE SIZE: 705 POINTS
TCL: Setting parameter alchLambda2 to 0.09999999999999969
Info: NONBONDED TABLE R-SQUARED SPACING: 0.0625
Info: NONBONDED TABLE SIZE: 705 POINTS
TCL: Running for 1500000 steps
ETITLE: TS BOND ANGLE DIHED IMPRP ELECT VDW BOUNDARY MISC KINETIC TOTAL TEMP POTENTIAL TOTALAVG TEMPAVG PRESSURE GPRESSURE VOLUME PRESSAVG GPRESSAVG
ENERGY: 0 2.7498 1.0953 0.0000 0.0000 -10576.4281 1362.1025 0.0000 0.0000 1736.8779 -7473.6025 297.1903 -9210.4804 -7473.6025 297.1903 -837.0047 -753.8656 30656.1248 -837.0047 -753.8656
ENERGY: 300000 1.1582 1.7942 0.0000 0.0000 -10501.3362 1359.8749 0.0000 0.0000 1761.9535 -7376.5555 301.4809 -9138.5089 -7459.3650 298.5342 -172.5854 -151.0947 30152.3617 -399.0805 -340.8016
ENERGY: 600000 0.4803 4.1095 0.0000 0.0000 -10754.0287 1433.5470 0.0000 0.0000 1754.6416 -7561.2503 300.2298 -9315.8919 -7470.1544 300.8436 -419.0061 -327.9265 30256.4000 -283.1245 -221.6863
ENERGY: 900000 1.6910 1.1000 0.0000 0.0000 -10687.0255 1444.1717 0.0000 0.0000 1814.2461 -7425.8168 310.4285 -9240.0629 -7474.1852 301.9935 -183.9058 -92.3771 30392.8547 -301.1621 -243.0149
ENERGY: 1200000 0.2748 0.9920 0.0000 0.0000 -10643.8886 1403.5944 0.0000 0.0000 1790.0928 -7448.9345 306.2957 -9239.0273 -7475.3927 301.4558 -31.5878 47.3605 29876.6567 -182.4553 -117.9498
ENERGY: 1500000 1.1141 1.3721 0.0000 0.0000 -10690.8756 1399.5747 0.0000 0.0000 1741.6352 -7547.1795 298.0043 -9288.8147 -7479.3085 300.6915 -540.9724 -492.6396 30331.9479 -222.5126 -158.6033
TCL: Running FEP window  19: Lambda1 0.09999999999999969 Lambda2 0.049999999999999684 [dLambda -0.05 ]
TCL: Setting parameter firsttimestep to 0
TCL: Setting parameter alchLambda to 0.09999999999999969
Info: NONBONDED TABLE R-SQUARED SPACING: 0.0625
Info: NONBONDED TABLE SIZE: 705 POINTS
TCL: Setting parameter alchLambda2 to 0.049999999999999684
Info: NONBONDED TABLE R-SQUARED SPACING: 0.0625
Info: NONBONDED TABLE SIZE: 705 POINTS
TCL: Running for 1500000 steps
ETITLE: TS BOND ANGLE DIHED IMPRP ELECT VDW BOUNDARY MISC KINETIC TOTAL TEMP POTENTIAL TOTALAVG TEMPAVG PRESSURE GPRESSURE VOLUME PRESSAVG GPRESSAVG
ENERGY: 0 1.1141 1.3721 0.0000 0.0000 -10690.8744 1399.8268 0.0000 0.0000 1740.7820 -7547.7795 297.8583 -9288.5615 -7547.7795 297.8583 -586.0487 -491.5613 30331.9479 -586.0487 -491.5613
ENERGY: 300000 0.2334 4.8432 0.0000 0.0000 -10521.1645 1319.3765 0.0000 0.0000 1792.9244 -7403.7870 306.7802 -9196.7114 -7521.7294 295.7326 -842.0413 -718.8853 30387.6519 -665.0220 -573.3431
ENERGY: 600000 0.2079 0.9376 0.0000 0.0000 -10722.2224 1468.4760 0.0000 0.0000 1760.7526 -7491.8484 301.2754 -9252.6010 -7524.3720 296.3338 322.5711 323.0834 30084.7512 -525.8902 -469.8273
ENERGY: 900000 1.4517 0.7034 0.0000 0.0000 -10786.8997 1507.4398 0.0000 0.0000 1771.9892 -7505.3156 303.1981 -9277.3048 -7510.8605 298.0916 506.8717 562.5401 29891.9441 -281.4808 -222.4039
ENERGY: 1200000 0.1555 1.2943 0.0000 0.0000 -10633.4305 1466.6804 0.0000 0.0000 1750.4543 -7414.8460 299.5133 -9165.3003 -7493.9639 298.6315 1.9042 106.1298 30903.2290 -196.9300 -134.1033
ENERGY: 1500000 1.0706 0.9433 0.0000 0.0000 -10556.1387 1371.9165 0.0000 0.0000 1718.9727 -7463.2357 294.1266 -9182.2083 -7490.8960 299.0533 -276.2679 -164.4843 30113.5326 -239.1524 -176.2137
TCL: Running FEP window  20: Lambda1 0.049999999999999684 Lambda2 0.0    [dLambda -0.049999999999999684]
TCL: Setting parameter firsttimestep to 0
TCL: Setting parameter alchLambda to 0.049999999999999684
Info: NONBONDED TABLE R-SQUARED SPACING: 0.0625
Info: NONBONDED TABLE SIZE: 705 POINTS
TCL: Setting parameter alchLambda2 to 0.0
Info: NONBONDED TABLE R-SQUARED SPACING: 0.0625
Info: NONBONDED TABLE SIZE: 705 POINTS
TCL: Running for 1500000 steps
ETITLE: TS BOND ANGLE DIHED IMPRP ELECT VDW BOUNDARY MISC KINETIC TOTAL TEMP POTENTIAL TOTALAVG TEMPAVG PRESSURE GPRESSURE VOLUME PRESSAVG GPRESSAVG
ENERGY: 0 1.0706 0.9433 0.0000 0.0000 -10556.1382 1372.1798 0.0000 0.0000 1718.0768 -7463.8677 293.9733 -9181.9446 -7463.8677 293.9733 -231.9203 -163.2158 30113.5326 -231.9203 -163.2158
ENERGY: 300000 0.1882 1.3033 0.0000 0.0000 -10689.1148 1449.3127 0.0000 0.0000 1837.3862 -7400.9244 314.3879 -9238.3106 -7441.6733 303.3078 98.8240 218.1071 30096.6816 -345.0473 -279.1091
ENERGY: 600000 2.7503 1.6826 0.0000 0.0000 -10712.7593 1477.3957 0.0000 0.0000 1753.4057 -7477.5250 300.0183 -9230.9307 -7468.3118 301.2458 164.9001 269.3671 30071.5996 -180.0815 -105.2540
ENERGY: 900000 0.6199 1.5955 0.0000 0.0000 -10640.1007 1398.0306 0.0000 0.0000 1781.7593 -7458.0954 304.8698 -9239.8547 -7474.8194 301.3375 -100.3637 -89.9776 29978.9930 -90.9249 -19.3694
ENERGY: 1200000 1.0412 2.2938 0.0000 0.0000 -10736.8404 1452.2067 0.0000 0.0000 1729.4055 -7551.8932 295.9117 -9281.2987 -7483.0427 301.4683 -173.7187 -137.9039 30422.9404 -135.3389 -72.2944
ENERGY: 1500000 0.8011 0.4362 0.0000 0.0000 -10666.4294 1427.6171 0.0000 0.0000 1765.3456 -7472.2295 302.0613 -9237.5751 -7480.8047 301.7763 -343.5049 -273.8296 30755.4228 -165.4505 -103.1215
TCL: Exiting due to exit command.
