Info: SIMULATION PARAMETERS:
Info: TIMESTEP               2
Info: NUMBER OF STEPS        0
Info: STEPS PER CYCLE        10
Info: PERIODIC CELL BASIS 1  35.01 0 0
Info: PERIODIC CELL BASIS 2  0 35.411 0
Info: PERIODIC CELL BASIS 3  0 0 35.516
Info: PERIODIC CELL CENTER   0 0 0
Info: WRAPPING WATERS AROUND PERIODIC BOUNDARIES ON OUTPUT.
Info: WRAPPING ALL CLUSTERS AROUND PERIODIC BOUNDARIES ON OUTPUT.
Info: FIRST LDB TIMESTEP     50
Info: LAST LDB TIMESTEP     -1
Info: HOM BACKGROUND SCALING 1
Info: PME BACKGROUND SCALING 1
Info: MIN ATOMS PER PATCH    40
Info: EMPTY PATCH LOAD       40 ATOMS
Info: INITIAL TEMPERATURE    300
Info: CENTER OF MASS MOVING INITIALLY? NO
Info: DIELECTRIC             1
Info: EXCLUDE                SCALED ONE-FOUR
Info: 1-4 ELECTROSTATICS SCALED BY 0.833333
Info: MODIFIED 1-4 VDW PARAMETERS WILL BE USED
Info: DCD FILENAME           mobley_2481002_equil.dcd
Info: DCD FREQUENCY          100000
Info: DCD FIRST STEP         100000
Info: DCD FILE WILL CONTAIN UNIT CELL DATA
Info: XST FILENAME           mobley_2481002_equil.xst
Info: XST FREQUENCY          100000
Info: NO VELOCITY DCD OUTPUT
Info: NO FORCE DCD OUTPUT
Info: OUTPUT FILENAME        mobley_2481002_equil
Info: BINARY OUTPUT FILES WILL BE USED
Info: RESTART FILENAME       mobley_2481002_equil.restart
Info: RESTART FREQUENCY      100000
Info: BINARY RESTART FILES WILL BE USED
Info: CUTOFF                 9
Info: PAIRLIST DISTANCE      11
Info: PAIRLIST SHRINK RATE   0.01
Info: PAIRLIST GROW RATE     0.01
Info: PAIRLIST TRIGGER       0.3
Info: PAIRLISTS PER CYCLE    2
Info: PAIRLISTS ENABLED
Info: MARGIN                 8
Info: HYDROGEN GROUP CUTOFF  2.5
Info: PATCH DIMENSION        21.5
Info: ENERGY OUTPUT STEPS    100000
Info: ENERGY EVALUATION STEPS    100000
Info: OUTPUT ENERGY PRECISION 4
Info: CROSSTERM ENERGY INCLUDED IN DIHEDRAL
Info: TIMING OUTPUT STEPS    1000000
Info: PRESSURE OUTPUT STEPS  100000
Info: LANGEVIN DYNAMICS ACTIVE
Info: LANGEVIN TEMPERATURE   30
Info: LANGEVIN USING BBK INTEGRATOR
Info: LANGEVIN DAMPING COEFFICIENT IS 1 INVERSE PS
Info: LANGEVIN DYNAMICS APPLIED TO HYDROGENS
Info: LANGEVIN PISTON PRESSURE CONTROL ACTIVE
Info:        TARGET PRESSURE IS 1.01325 BAR
Info:     OSCILLATION PERIOD IS 50 FS
Info:             DECAY TIME IS 25 FS
Info:     PISTON TEMPERATURE IS 300 K
Info:       PRESSURE CONTROL IS GROUP-BASED
Info:    INITIAL STRAIN RATE IS 0 0 0
Info:       CELL FLUCTUATION IS ISOTROPIC
Info: PARTICLE MESH EWALD (PME) ACTIVE
Info: PME TOLERANCE               1e-06
Info: PME EWALD COEFFICIENT       0.348832
Info: PME INTERPOLATION ORDER     4
Info: PME GRID DIMENSIONS         36 36 36
Info: PME MAXIMUM GRID SPACING    1
Info: FULL ELECTROSTATIC EVALUATION FREQUENCY      2
Info: USING VERLET I (r-RESPA) MTS SCHEME.
Info: C1 SPLITTING OF LONG RANGE ELECTROSTATICS
Info: PLACING ATOMS IN PATCHES BY HYDROGEN GROUPS
Info: RIGID BONDS TO HYDROGEN : ALL
Info:         ERROR TOLERANCE : 1e-08
Info:          MAX ITERATIONS : 100
Info: RIGID WATER USING SETTLE ALGORITHM
Info: RANDOM NUMBER SEED     1742859284
Info: USE HYDROGEN BONDS?    NO
Info: Using AMBER format force field!
Info: AMBER PARM FILE        mobley_2481002.prmtop
Info: COORDINATE PDB         mobley_2481002.pdb
Info: Exclusions will be read from PARM file!
Info: SCNB (VDW SCALING)     2
Info: USING ARITHMETIC MEAN TO COMBINE L-J SIGMA PARAMETERS
Info: BINARY COORDINATES     mobley_2481002_min.coor
Info: SUMMARY OF PARAMETERS:
Info: 5 BONDS
Info: 4 ANGLES
Info:   4 HARMONIC
Info:   0 COSINE-BASED
Info: 1 DIHEDRAL
Info: 0 IMPROPER
Info: 0 CROSSTERM
Info: 0 VDW
Info: 21 VDW_PAIRS
Info: 0 NBTHOLE_PAIRS
Info: STRUCTURE SUMMARY:
Info: 2929 ATOMS
Info: 2928 BONDS
Info: 9 ANGLES
Info: 6 DIHEDRALS
Info: 0 IMPROPERS
Info: 0 CROSSTERMS
Info: 2943 EXCLUSIONS
Info: 2922 RIGID BONDS
Info: 5865 DEGREES OF FREEDOM
Info: 981 HYDROGEN GROUPS
Info: 3 ATOMS IN LARGEST HYDROGEN GROUP
Info: 981 MIGRATION GROUPS
Info: 3 ATOMS IN LARGEST MIGRATION GROUP
Info: TOTAL MASS = 17712 amu
Info: TOTAL CHARGE = 1.11759e-08 e
Info: MASS DENSITY = 0.667992 g/cm^3
Info: ATOM DENSITY = 0.066522 atoms/A^3
Info: ADDED 0 IMPLICIT EXCLUSIONS
Info: NONBONDED TABLE R-SQUARED SPACING: 0.0625
Info: NONBONDED TABLE SIZE: 705 POINTS
Info: REMOVING COM VELOCITY 0.190763 0.0246208 -0.0275828
TCL: Running for 100000 steps
ETITLE: TS BOND ANGLE DIHED IMPRP ELECT VDW BOUNDARY MISC KINETIC TOTAL TEMP POTENTIAL TOTAL3 TEMPAVG PRESSURE GPRESSURE VOLUME PRESSAVG GPRESSAVG
ENERGY: 0 0.1049 0.3457 0.0000 0.0000 -13552.6274 2411.4821 0.0000 0.0000 1738.1605 -9402.5341 298.2718 -11140.6946 -9402.2016 298.2718 561.5362 591.6712 44030.5742 561.5362 591.6712
ENERGY: 100000 0.1779 1.0046 0.0000 0.0000 -14048.0645 2371.7388 0.0000 0.0000 176.2841 -11498.8591 30.2507 -11675.1432 -11498.3500 30.9014 -885.0901 -849.5445 28732.1124 4.6918 4.6941
TCL: Running 100000 steps at 60 kelvin.
TCL: Setting parameter langevinTemp to 60
TCL: Running for 100000 steps
ETITLE: TS BOND ANGLE DIHED IMPRP ELECT VDW BOUNDARY MISC KINETIC TOTAL TEMP POTENTIAL TOTAL3 TEMPAVG PRESSURE GPRESSURE VOLUME PRESSAVG GPRESSAVG
ENERGY: 100000 0.1779 1.0046 0.0000 0.0000 -14048.0645 2371.7388 0.0000 0.0000 176.1956 -11498.9476 30.2355 -11675.1432 -11498.5094 30.2355 -883.7587 -849.8123 28732.1124 -883.7587 -849.8123
ENERGY: 200000 0.3872 0.9055 0.0000 0.0000 -14027.4051 2405.7363 0.0000 0.0000 359.6144 -11260.7617 61.7105 -11620.3761 -11259.6406 60.0397 -272.9795 -231.3998 28619.5708 3.8504 3.8431
TCL: Running 100000 steps at 90 kelvin.
TCL: Setting parameter langevinTemp to 90
TCL: Running for 100000 steps
ETITLE: TS BOND ANGLE DIHED IMPRP ELECT VDW BOUNDARY MISC KINETIC TOTAL TEMP POTENTIAL TOTAL3 TEMPAVG PRESSURE GPRESSURE VOLUME PRESSAVG GPRESSAVG
ENERGY: 200000 0.3872 0.9055 0.0000 0.0000 -14027.4051 2405.7363 0.0000 0.0000 359.4368 -11260.9393 61.6801 -11620.3761 -11259.9969 61.6801 -286.4042 -231.6687 28619.5708 -286.4042 -231.6687
ENERGY: 300000 0.7731 1.5787 0.0000 0.0000 -13937.1174 2421.7537 0.0000 0.0000 530.8717 -10982.1402 91.0987 -11513.0119 -10980.4285 89.7908 523.1410 574.4391 28308.5254 4.4084 4.3696
TCL: Running 100000 steps at 120 kelvin.
TCL: Setting parameter langevinTemp to 120
TCL: Running for 100000 steps
ETITLE: TS BOND ANGLE DIHED IMPRP ELECT VDW BOUNDARY MISC KINETIC TOTAL TEMP POTENTIAL TOTAL3 TEMPAVG PRESSURE GPRESSURE VOLUME PRESSAVG GPRESSAVG
ENERGY: 300000 0.7731 1.5787 0.0000 0.0000 -13937.1174 2421.7537 0.0000 0.0000 530.6015 -10982.4104 91.0523 -11513.0119 -10981.4963 91.0523 509.9836 574.4393 28308.5254 509.9836 574.4393
ENERGY: 400000 1.2036 0.5308 0.0000 0.0000 -13601.1366 2221.9573 0.0000 0.0000 715.7665 -10661.6783 122.8270 -11377.4449 -10659.5153 119.6877 -605.6084 -603.7323 28666.8204 4.2727 4.2385
TCL: Running 100000 steps at 150 kelvin.
TCL: Setting parameter langevinTemp to 150
TCL: Running for 100000 steps
ETITLE: TS BOND ANGLE DIHED IMPRP ELECT VDW BOUNDARY MISC KINETIC TOTAL TEMP POTENTIAL TOTAL3 TEMPAVG PRESSURE GPRESSURE VOLUME PRESSAVG GPRESSAVG
ENERGY: 400000 1.2036 0.5308 0.0000 0.0000 -13601.1366 2221.9573 0.0000 0.0000 715.4176 -10662.0273 122.7671 -11377.4449 -10660.3706 122.7671 -657.8870 -604.5024 28666.8204 -657.8870 -604.5024
ENERGY: 500000 1.2214 1.3747 0.0000 0.0000 -13475.2249 2227.3660 0.0000 0.0000 893.3630 -10351.8998 153.3029 -11245.2628 -10349.2172 149.8347 -189.1136 -95.0876 28530.8482 3.0300 3.0867
TCL: Running 100000 steps at 180 kelvin.
TCL: Setting parameter langevinTemp to 180
TCL: Running for 100000 steps
ETITLE: TS BOND ANGLE DIHED IMPRP ELECT VDW BOUNDARY MISC KINETIC TOTAL TEMP POTENTIAL TOTAL3 TEMPAVG PRESSURE GPRESSURE VOLUME PRESSAVG GPRESSAVG
ENERGY: 500000 1.2214 1.3747 0.0000 0.0000 -13475.2249 2227.3660 0.0000 0.0000 892.9300 -10352.3328 153.2286 -11245.2628 -10350.6617 153.2286 -154.4264 -93.8618 28530.8482 -154.4264 -93.8618
ENERGY: 600000 2.7664 2.6414 0.0000 0.0000 -12997.0501 2090.6461 0.0000 0.0000 1052.2258 -9848.7704 180.5641 -10900.9962 -9847.7699 179.7332 -12.8637 57.4343 28975.3128 3.0927 2.9716
TCL: Running 100000 steps at 210 kelvin.
TCL: Setting parameter langevinTemp to 210
TCL: Running for 100000 steps
ETITLE: TS BOND ANGLE DIHED IMPRP ELECT VDW BOUNDARY MISC KINETIC TOTAL TEMP POTENTIAL TOTAL3 TEMPAVG PRESSURE GPRESSURE VOLUME PRESSAVG GPRESSAVG
ENERGY: 600000 2.7664 2.6414 0.0000 0.0000 -12997.0501 2090.6461 0.0000 0.0000 1051.7194 -9849.2768 180.4772 -10900.9962 -9847.5531 180.4772 -10.8720 56.2301 28975.3128 -10.8720 56.2301
ENERGY: 700000 1.1084 1.4840 0.0000 0.0000 -12530.5766 1973.7294 0.0000 0.0000 1225.3772 -9328.8776 210.2772 -10554.2547 -9326.5727 209.7440 540.8186 642.0214 28354.3715 5.0012 5.1635
TCL: Running 100000 steps at 240 kelvin.
TCL: Setting parameter langevinTemp to 240
TCL: Running for 100000 steps
ETITLE: TS BOND ANGLE DIHED IMPRP ELECT VDW BOUNDARY MISC KINETIC TOTAL TEMP POTENTIAL TOTAL3 TEMPAVG PRESSURE GPRESSURE VOLUME PRESSAVG GPRESSAVG
ENERGY: 700000 1.1084 1.4840 0.0000 0.0000 -12530.5766 1973.7294 0.0000 0.0000 1224.7711 -9329.4836 210.1732 -10554.2547 -9327.5477 210.1732 561.9609 641.1077 28354.3715 561.9609 641.1077
ENERGY: 800000 2.3688 1.1788 0.0000 0.0000 -11898.7620 1804.2464 0.0000 0.0000 1370.6125 -8720.3554 235.1999 -10090.9679 -8717.9494 240.0720 642.8400 734.0801 28693.9234 2.9340 3.0664
TCL: Running 100000 steps at 270 kelvin.
TCL: Setting parameter langevinTemp to 270
TCL: Running for 100000 steps
ETITLE: TS BOND ANGLE DIHED IMPRP ELECT VDW BOUNDARY MISC KINETIC TOTAL TEMP POTENTIAL TOTAL3 TEMPAVG PRESSURE GPRESSURE VOLUME PRESSAVG GPRESSAVG
ENERGY: 800000 2.3688 1.1788 0.0000 0.0000 -11898.7620 1804.2464 0.0000 0.0000 1369.9213 -8721.0467 235.0812 -10090.9679 -8719.1631 235.0812 654.4510 734.0364 28693.9234 654.4510 734.0364
ENERGY: 900000 1.3815 2.4359 0.0000 0.0000 -11145.8473 1559.2681 0.0000 0.0000 1550.7912 -8031.9705 266.1189 -9582.7617 -8029.8802 269.6675 -146.2184 -51.5850 29677.6510 3.9022 4.0074
TCL: Running 1000000 steps at 300 kelvin.
TCL: Setting parameter langevinTemp to 300
TCL: Running for 1000000 steps
ETITLE: TS BOND ANGLE DIHED IMPRP ELECT VDW BOUNDARY MISC KINETIC TOTAL TEMP POTENTIAL TOTAL3 TEMPAVG PRESSURE GPRESSURE VOLUME PRESSAVG GPRESSAVG
ENERGY: 900000 1.3815 2.4359 0.0000 0.0000 -11145.8473 1559.2681 0.0000 0.0000 1549.9936 -8032.7681 265.9820 -9582.7617 -8029.7003 265.9820 -147.5150 -54.0951 29677.6510 -147.5150 -54.0951
ENERGY: 1100000 0.4748 3.0871 0.0000 0.0000 -10734.1362 1492.2568 0.0000 0.0000 1772.7164 -7465.6010 304.2017 -9238.3175 -7462.1201 300.6313 374.2478 486.4402 30026.1891 2.6971 2.8129
ENERGY: 1300000 1.7530 1.8543 0.0000 0.0000 -10622.6523 1397.0424 0.0000 0.0000 1760.7390 -7461.2636 302.1464 -9222.0026 -7457.1723 300.2580 -342.1039 -328.8759 30345.2198 2.8625 2.7778
ENERGY: 1500000 1.1462 3.3899 0.0000 0.0000 -10717.9791 1443.6586 0.0000 0.0000 1723.1036 -7546.6808 295.6880 -9269.7844 -7545.7800 300.9500 -30.4250 56.2533 30017.0920 3.2637 3.1007
ENERGY: 1700000 1.6295 2.0636 0.0000 0.0000 -10622.3372 1411.8878 0.0000 0.0000 1731.5390 -7475.2172 297.1356 -9206.7562 -7472.3908 300.2434 -321.2664 -201.3522 30416.6715 2.5524 2.6664
ENERGY: 1900000 2.4340 2.0049 0.0000 0.0000 -10622.0744 1434.3656 0.0000 0.0000 1793.8396 -7389.4304 307.8265 -9183.2699 -7384.1347 300.4465 120.9683 221.2526 30619.9830 2.4036 2.4108
TCL: Exiting due to exit command.
