Info: SIMULATION PARAMETERS:
Info: TIMESTEP               2
Info: NUMBER OF STEPS        0
Info: STEPS PER CYCLE        10
Info: PERIODIC CELL BASIS 1  36.592 0 0
Info: PERIODIC CELL BASIS 2  0 36.762 0
Info: PERIODIC CELL BASIS 3  0 0 33.152
Info: PERIODIC CELL CENTER   0 0 0
Info: WRAPPING WATERS AROUND PERIODIC BOUNDARIES ON OUTPUT.
Info: WRAPPING ALL CLUSTERS AROUND PERIODIC BOUNDARIES ON OUTPUT.
Info: FIRST LDB TIMESTEP     50
Info: LAST LDB TIMESTEP     -1
Info: HOM BACKGROUND SCALING 1
Info: PME BACKGROUND SCALING 1
Info: MIN ATOMS PER PATCH    40
Info: EMPTY PATCH LOAD       40 ATOMS
Info: INITIAL TEMPERATURE    300
Info: CENTER OF MASS MOVING INITIALLY? NO
Info: DIELECTRIC             1
Info: EXCLUDE                SCALED ONE-FOUR
Info: 1-4 ELECTROSTATICS SCALED BY 0.833333
Info: MODIFIED 1-4 VDW PARAMETERS WILL BE USED
Info: DCD FILENAME           mobley_3843583_equil.dcd
Info: DCD FREQUENCY          100000
Info: DCD FIRST STEP         100000
Info: DCD FILE WILL CONTAIN UNIT CELL DATA
Info: XST FILENAME           mobley_3843583_equil.xst
Info: XST FREQUENCY          100000
Info: NO VELOCITY DCD OUTPUT
Info: NO FORCE DCD OUTPUT
Info: OUTPUT FILENAME        mobley_3843583_equil
Info: BINARY OUTPUT FILES WILL BE USED
Info: RESTART FILENAME       mobley_3843583_equil.restart
Info: RESTART FREQUENCY      100000
Info: BINARY RESTART FILES WILL BE USED
Info: CUTOFF                 9
Info: PAIRLIST DISTANCE      11
Info: PAIRLIST SHRINK RATE   0.01
Info: PAIRLIST GROW RATE     0.01
Info: PAIRLIST TRIGGER       0.3
Info: PAIRLISTS PER CYCLE    2
Info: PAIRLISTS ENABLED
Info: MARGIN                 8
Info: HYDROGEN GROUP CUTOFF  2.5
Info: PATCH DIMENSION        21.5
Info: ENERGY OUTPUT STEPS    100000
Info: ENERGY EVALUATION STEPS    100000
Info: OUTPUT ENERGY PRECISION 4
Info: CROSSTERM ENERGY INCLUDED IN DIHEDRAL
Info: TIMING OUTPUT STEPS    1000000
Info: PRESSURE OUTPUT STEPS  100000
Info: LANGEVIN DYNAMICS ACTIVE
Info: LANGEVIN TEMPERATURE   30
Info: LANGEVIN USING BBK INTEGRATOR
Info: LANGEVIN DAMPING COEFFICIENT IS 1 INVERSE PS
Info: LANGEVIN DYNAMICS APPLIED TO HYDROGENS
Info: LANGEVIN PISTON PRESSURE CONTROL ACTIVE
Info:        TARGET PRESSURE IS 1.01325 BAR
Info:     OSCILLATION PERIOD IS 50 FS
Info:             DECAY TIME IS 25 FS
Info:     PISTON TEMPERATURE IS 300 K
Info:       PRESSURE CONTROL IS GROUP-BASED
Info:    INITIAL STRAIN RATE IS 0 0 0
Info:       CELL FLUCTUATION IS ISOTROPIC
Info: PARTICLE MESH EWALD (PME) ACTIVE
Info: PME TOLERANCE               1e-06
Info: PME EWALD COEFFICIENT       0.348832
Info: PME INTERPOLATION ORDER     4
Info: PME GRID DIMENSIONS         40 40 36
Info: PME MAXIMUM GRID SPACING    1
Info: FULL ELECTROSTATIC EVALUATION FREQUENCY      2
Info: USING VERLET I (r-RESPA) MTS SCHEME.
Info: C1 SPLITTING OF LONG RANGE ELECTROSTATICS
Info: PLACING ATOMS IN PATCHES BY HYDROGEN GROUPS
Info: RIGID BONDS TO HYDROGEN : ALL
Info:         ERROR TOLERANCE : 1e-08
Info:          MAX ITERATIONS : 100
Info: RIGID WATER USING SETTLE ALGORITHM
Info: RANDOM NUMBER SEED     1743219121
Info: USE HYDROGEN BONDS?    NO
Info: Using AMBER format force field!
Info: AMBER PARM FILE        mobley_3843583.prmtop
Info: COORDINATE PDB         mobley_3843583.pdb
Info: Exclusions will be read from PARM file!
Info: SCNB (VDW SCALING)     2
Info: USING ARITHMETIC MEAN TO COMBINE L-J SIGMA PARAMETERS
Info: BINARY COORDINATES     mobley_3843583_min.coor
Info: SUMMARY OF PARAMETERS:
Info: 6 BONDS
Info: 5 ANGLES
Info:   5 HARMONIC
Info:   0 COSINE-BASED
Info: 3 DIHEDRAL
Info: 0 IMPROPER
Info: 0 CROSSTERM
Info: 0 VDW
Info: 21 VDW_PAIRS
Info: 0 NBTHOLE_PAIRS
Info: STRUCTURE SUMMARY:
Info: 2960 ATOMS
Info: 2961 BONDS
Info: 33 ANGLES
Info: 59 DIHEDRALS
Info: 0 IMPROPERS
Info: 0 CROSSTERMS
Info: 3036 EXCLUSIONS
Info: 2949 RIGID BONDS
Info: 5931 DEGREES OF FREEDOM
Info: 991 HYDROGEN GROUPS
Info: 3 ATOMS IN LARGEST HYDROGEN GROUP
Info: 991 MIGRATION GROUPS
Info: 3 ATOMS IN LARGEST MIGRATION GROUP
Info: TOTAL MASS = 17798.9 amu
Info: TOTAL CHARGE = 0.000199977 e
Info: MASS DENSITY = 0.66276 g/cm^3
Info: ATOM DENSITY = 0.0663738 atoms/A^3
Info: ADDED 0 IMPLICIT EXCLUSIONS
Info: NONBONDED TABLE R-SQUARED SPACING: 0.0625
Info: NONBONDED TABLE SIZE: 705 POINTS
Info: REMOVING COM VELOCITY -0.0404165 -0.110921 0.0345272
TCL: Running for 100000 steps
ETITLE: TS BOND ANGLE DIHED IMPRP ELECT VDW BOUNDARY MISC KINETIC TOTAL TEMP POTENTIAL TOTAL3 TEMPAVG PRESSURE GPRESSURE VOLUME PRESSAVG GPRESSAVG
ENERGY: 0 0.4488 0.5024 2.7199 0.0000 -13634.8039 2412.3112 0.0000 0.0000 1835.1854 -9383.6362 311.4171 -11218.8216 -9383.2750 311.4171 507.6065 538.6023 44595.9081 507.6065 538.6023
ENERGY: 100000 1.1603 1.0362 3.6015 0.0000 -14296.6637 2507.2959 0.0000 0.0000 177.1487 -11606.4210 30.0608 -11783.5698 -11606.1447 30.9990 54.7874 108.6235 29015.8845 3.7434 3.7355
TCL: Running 100000 steps at 60 kelvin.
TCL: Setting parameter langevinTemp to 60
TCL: Running for 100000 steps
ETITLE: TS BOND ANGLE DIHED IMPRP ELECT VDW BOUNDARY MISC KINETIC TOTAL TEMP POTENTIAL TOTAL3 TEMPAVG PRESSURE GPRESSURE VOLUME PRESSAVG GPRESSAVG
ENERGY: 100000 1.1603 1.0362 3.6015 0.0000 -14296.6637 2507.2959 0.0000 0.0000 177.0586 -11606.5111 30.0455 -11783.5698 -11606.0685 30.0455 61.4723 108.2588 29015.8845 61.4723 108.2588
ENERGY: 200000 1.2256 1.5037 3.8328 0.0000 -14164.9179 2481.1018 0.0000 0.0000 356.9757 -11320.2784 60.5761 -11677.2541 -11319.4237 59.9267 402.3305 447.8250 28958.1017 5.0474 5.1477
TCL: Running 100000 steps at 90 kelvin.
TCL: Setting parameter langevinTemp to 90
TCL: Running for 100000 steps
ETITLE: TS BOND ANGLE DIHED IMPRP ELECT VDW BOUNDARY MISC KINETIC TOTAL TEMP POTENTIAL TOTAL3 TEMPAVG PRESSURE GPRESSURE VOLUME PRESSAVG GPRESSAVG
ENERGY: 200000 1.2256 1.5037 3.8328 0.0000 -14164.9179 2481.1018 0.0000 0.0000 356.7933 -11320.4608 60.5451 -11677.2541 -11319.6359 60.5451 398.3565 447.8304 28958.1017 398.3565 447.8304
ENERGY: 300000 1.8777 1.7512 3.7339 0.0000 -13974.1888 2337.7758 0.0000 0.0000 529.5898 -11099.4604 89.8674 -11629.0502 -11098.2221 90.0350 -552.7921 -525.9445 28717.8059 2.4944 2.5524
TCL: Running 100000 steps at 120 kelvin.
TCL: Setting parameter langevinTemp to 120
TCL: Running for 100000 steps
ETITLE: TS BOND ANGLE DIHED IMPRP ELECT VDW BOUNDARY MISC KINETIC TOTAL TEMP POTENTIAL TOTAL3 TEMPAVG PRESSURE GPRESSURE VOLUME PRESSAVG GPRESSAVG
ENERGY: 300000 1.8777 1.7512 3.7339 0.0000 -13974.1888 2337.7758 0.0000 0.0000 529.3372 -11099.7130 89.8245 -11629.0502 -11098.3950 89.8245 -574.8191 -525.9042 28717.8059 -574.8191 -525.9042
ENERGY: 400000 1.1948 1.9952 3.1557 0.0000 -13782.0827 2294.2959 0.0000 0.0000 727.9724 -10753.4687 123.5314 -11481.4410 -10751.6111 120.1085 -307.3505 -244.8022 28829.2853 1.3556 1.3941
TCL: Running 100000 steps at 150 kelvin.
TCL: Setting parameter langevinTemp to 150
TCL: Running for 100000 steps
ETITLE: TS BOND ANGLE DIHED IMPRP ELECT VDW BOUNDARY MISC KINETIC TOTAL TEMP POTENTIAL TOTAL3 TEMPAVG PRESSURE GPRESSURE VOLUME PRESSAVG GPRESSAVG
ENERGY: 400000 1.1948 1.9952 3.1557 0.0000 -13782.0827 2294.2959 0.0000 0.0000 727.6294 -10753.8116 123.4732 -11481.4410 -10752.3572 123.4732 -303.2076 -244.4603 28829.2853 -303.2076 -244.4603
ENERGY: 500000 0.8557 2.2598 3.2759 0.0000 -13645.7520 2304.1041 0.0000 0.0000 878.8446 -10456.4119 149.1333 -11335.2565 -10455.7766 149.8922 581.6113 671.6145 28544.4587 2.6266 2.6331
TCL: Running 100000 steps at 180 kelvin.
TCL: Setting parameter langevinTemp to 180
TCL: Running for 100000 steps
ETITLE: TS BOND ANGLE DIHED IMPRP ELECT VDW BOUNDARY MISC KINETIC TOTAL TEMP POTENTIAL TOTAL3 TEMPAVG PRESSURE GPRESSURE VOLUME PRESSAVG GPRESSAVG
ENERGY: 500000 0.8557 2.2598 3.2759 0.0000 -13645.7520 2304.1041 0.0000 0.0000 878.4134 -10456.8431 149.0601 -11335.2565 -10454.9869 149.0601 607.8071 670.6352 28544.4587 607.8071 670.6352
ENERGY: 600000 1.8738 4.4628 3.9172 0.0000 -13212.5285 2122.8564 0.0000 0.0000 1052.1157 -10027.3026 178.5361 -11079.4183 -10026.0876 179.9667 -80.7968 -28.7423 28734.0022 3.3535 3.2921
TCL: Running 100000 steps at 210 kelvin.
TCL: Setting parameter langevinTemp to 210
TCL: Running for 100000 steps
ETITLE: TS BOND ANGLE DIHED IMPRP ELECT VDW BOUNDARY MISC KINETIC TOTAL TEMP POTENTIAL TOTAL3 TEMPAVG PRESSURE GPRESSURE VOLUME PRESSAVG GPRESSAVG
ENERGY: 600000 1.8738 4.4628 3.9172 0.0000 -13212.5285 2122.8564 0.0000 0.0000 1051.5801 -10027.8382 178.4452 -11079.4183 -10025.7513 178.4452 -104.3913 -30.1804 28734.0022 -104.3913 -30.1804
ENERGY: 700000 3.2661 3.6407 6.6340 0.0000 -12577.3368 2004.8170 0.0000 0.0000 1263.5859 -9295.3931 214.4210 -10558.9790 -9291.2967 210.0533 889.1562 992.0772 28600.4765 5.1146 5.1187
TCL: Running 100000 steps at 240 kelvin.
TCL: Setting parameter langevinTemp to 240
TCL: Running for 100000 steps
ETITLE: TS BOND ANGLE DIHED IMPRP ELECT VDW BOUNDARY MISC KINETIC TOTAL TEMP POTENTIAL TOTAL3 TEMPAVG PRESSURE GPRESSURE VOLUME PRESSAVG GPRESSAVG
ENERGY: 700000 3.2661 3.6407 6.6340 0.0000 -12577.3368 2004.8170 0.0000 0.0000 1262.9737 -9296.0053 214.3171 -10558.9790 -9293.6587 214.3171 924.9064 994.6983 28600.4765 924.9064 994.6983
ENERGY: 800000 2.9842 5.5464 6.0032 0.0000 -11839.2424 1703.0972 0.0000 0.0000 1398.0428 -8723.5686 237.2373 -10121.6113 -8721.5403 239.4498 -99.4697 -42.7419 28972.3629 3.3630 3.3054
TCL: Running 100000 steps at 270 kelvin.
TCL: Setting parameter langevinTemp to 270
TCL: Running for 100000 steps
ETITLE: TS BOND ANGLE DIHED IMPRP ELECT VDW BOUNDARY MISC KINETIC TOTAL TEMP POTENTIAL TOTAL3 TEMPAVG PRESSURE GPRESSURE VOLUME PRESSAVG GPRESSAVG
ENERGY: 800000 2.9842 5.5464 6.0032 0.0000 -11839.2424 1703.0972 0.0000 0.0000 1397.3338 -8724.2775 237.1170 -10121.6113 -8721.4616 237.1170 -143.2008 -44.3944 28972.3629 -143.2008 -44.3944
ENERGY: 900000 3.1868 4.0730 7.2561 0.0000 -11154.5746 1482.2762 0.0000 0.0000 1632.1093 -8025.6731 276.9566 -9657.7824 -8020.3720 270.4609 -801.6666 -741.5686 29945.1851 2.7525 2.6695
TCL: Running 1000000 steps at 300 kelvin.
TCL: Setting parameter langevinTemp to 300
TCL: Running for 1000000 steps
ETITLE: TS BOND ANGLE DIHED IMPRP ELECT VDW BOUNDARY MISC KINETIC TOTAL TEMP POTENTIAL TOTAL3 TEMPAVG PRESSURE GPRESSURE VOLUME PRESSAVG GPRESSAVG
ENERGY: 900000 3.1868 4.0730 7.2561 0.0000 -11154.5746 1482.2762 0.0000 0.0000 1631.3157 -8026.4668 276.8219 -9657.7824 -8023.7664 276.8219 -826.5698 -740.0339 29945.1851 -826.5698 -740.0339
ENERGY: 1100000 5.1815 4.5534 2.5231 0.0000 -10628.3076 1393.2297 0.0000 0.0000 1724.5812 -7498.2388 292.6484 -9222.8200 -7494.6638 300.0686 -539.8068 -472.5024 31069.3534 2.0548 1.9881
ENERGY: 1300000 3.9849 3.0279 3.9286 0.0000 -10738.7114 1510.6780 0.0000 0.0000 1748.4172 -7468.6747 296.6932 -9217.0919 -7464.9796 300.8261 360.6658 467.8519 30791.0774 3.1019 3.1928
ENERGY: 1500000 4.9709 6.6205 4.6658 0.0000 -10564.6370 1366.8303 0.0000 0.0000 1780.6833 -7400.8662 302.1685 -9181.5495 -7396.8770 299.6073 -576.5867 -483.7390 30760.6742 2.5120 2.4887
ENERGY: 1700000 1.7776 3.8315 5.9277 0.0000 -10604.9594 1356.3020 0.0000 0.0000 1750.5948 -7486.5260 297.0627 -9237.1207 -7481.6770 300.2707 -798.9008 -677.3806 30661.3881 2.6300 2.6253
ENERGY: 1900000 5.1750 6.0365 2.3784 0.0000 -10718.1754 1467.3915 0.0000 0.0000 1768.2500 -7468.9440 300.0586 -9237.1941 -7467.0278 300.3188 17.4925 158.2050 30932.3625 3.4083 3.4181
TCL: Exiting due to exit command.
