Info: SIMULATION PARAMETERS:
Info: TIMESTEP               2
Info: NUMBER OF STEPS        0
Info: STEPS PER CYCLE        10
Info: PERIODIC CELL BASIS 1  34.207 0 0
Info: PERIODIC CELL BASIS 2  0 33.404 0
Info: PERIODIC CELL BASIS 3  0 0 37.451
Info: PERIODIC CELL CENTER   0 0 0
Info: WRAPPING WATERS AROUND PERIODIC BOUNDARIES ON OUTPUT.
Info: WRAPPING ALL CLUSTERS AROUND PERIODIC BOUNDARIES ON OUTPUT.
Info: FIRST LDB TIMESTEP     50
Info: LAST LDB TIMESTEP     -1
Info: HOM BACKGROUND SCALING 1
Info: PME BACKGROUND SCALING 1
Info: MIN ATOMS PER PATCH    40
Info: EMPTY PATCH LOAD       40 ATOMS
Info: INITIAL TEMPERATURE    300
Info: CENTER OF MASS MOVING INITIALLY? NO
Info: DIELECTRIC             1
Info: EXCLUDE                SCALED ONE-FOUR
Info: 1-4 ELECTROSTATICS SCALED BY 0.833333
Info: MODIFIED 1-4 VDW PARAMETERS WILL BE USED
Info: DCD FILENAME           mobley_8772587_equil.dcd
Info: DCD FREQUENCY          100000
Info: DCD FIRST STEP         100000
Info: DCD FILE WILL CONTAIN UNIT CELL DATA
Info: XST FILENAME           mobley_8772587_equil.xst
Info: XST FREQUENCY          100000
Info: NO VELOCITY DCD OUTPUT
Info: NO FORCE DCD OUTPUT
Info: OUTPUT FILENAME        mobley_8772587_equil
Info: BINARY OUTPUT FILES WILL BE USED
Info: RESTART FILENAME       mobley_8772587_equil.restart
Info: RESTART FREQUENCY      100000
Info: BINARY RESTART FILES WILL BE USED
Info: CUTOFF                 9
Info: PAIRLIST DISTANCE      11
Info: PAIRLIST SHRINK RATE   0.01
Info: PAIRLIST GROW RATE     0.01
Info: PAIRLIST TRIGGER       0.3
Info: PAIRLISTS PER CYCLE    2
Info: PAIRLISTS ENABLED
Info: MARGIN                 8
Info: HYDROGEN GROUP CUTOFF  2.5
Info: PATCH DIMENSION        21.5
Info: ENERGY OUTPUT STEPS    100000
Info: ENERGY EVALUATION STEPS    100000
Info: OUTPUT ENERGY PRECISION 4
Info: CROSSTERM ENERGY INCLUDED IN DIHEDRAL
Info: TIMING OUTPUT STEPS    1000000
Info: PRESSURE OUTPUT STEPS  100000
Info: LANGEVIN DYNAMICS ACTIVE
Info: LANGEVIN TEMPERATURE   30
Info: LANGEVIN USING BBK INTEGRATOR
Info: LANGEVIN DAMPING COEFFICIENT IS 1 INVERSE PS
Info: LANGEVIN DYNAMICS APPLIED TO HYDROGENS
Info: LANGEVIN PISTON PRESSURE CONTROL ACTIVE
Info:        TARGET PRESSURE IS 1.01325 BAR
Info:     OSCILLATION PERIOD IS 50 FS
Info:             DECAY TIME IS 25 FS
Info:     PISTON TEMPERATURE IS 300 K
Info:       PRESSURE CONTROL IS GROUP-BASED
Info:    INITIAL STRAIN RATE IS 0 0 0
Info:       CELL FLUCTUATION IS ISOTROPIC
Info: PARTICLE MESH EWALD (PME) ACTIVE
Info: PME TOLERANCE               1e-06
Info: PME EWALD COEFFICIENT       0.348832
Info: PME INTERPOLATION ORDER     4
Info: PME GRID DIMENSIONS         36 36 40
Info: PME MAXIMUM GRID SPACING    1
Info: FULL ELECTROSTATIC EVALUATION FREQUENCY      2
Info: USING VERLET I (r-RESPA) MTS SCHEME.
Info: C1 SPLITTING OF LONG RANGE ELECTROSTATICS
Info: PLACING ATOMS IN PATCHES BY HYDROGEN GROUPS
Info: RIGID BONDS TO HYDROGEN : ALL
Info:         ERROR TOLERANCE : 1e-08
Info:          MAX ITERATIONS : 100
Info: RIGID WATER USING SETTLE ALGORITHM
Info: RANDOM NUMBER SEED     1743239422
Info: USE HYDROGEN BONDS?    NO
Info: Using AMBER format force field!
Info: AMBER PARM FILE        mobley_8772587.prmtop
Info: COORDINATE PDB         mobley_8772587.pdb
Info: Exclusions will be read from PARM file!
Info: SCNB (VDW SCALING)     2
Info: USING ARITHMETIC MEAN TO COMBINE L-J SIGMA PARAMETERS
Info: BINARY COORDINATES     mobley_8772587_min.coor
Info: SUMMARY OF PARAMETERS:
Info: 6 BONDS
Info: 7 ANGLES
Info: 6 DIHEDRAL
Info: 0 IMPROPER
Info: 0 CROSSTERM
Info: 0 VDW
Info: 21 VDW_PAIRS
Info: 0 NBTHOLE_PAIRS
Info: STRUCTURE SUMMARY:
Info: 2918 ATOMS
Info: 2917 BONDS
Info: 24 ANGLES
Info: 29 DIHEDRALS
Info: 0 IMPROPERS
Info: 0 CROSSTERMS
Info: 2968 EXCLUSIONS
Info: 2913 RIGID BONDS
Info: 5841 DEGREES OF FREEDOM
Info: 973 HYDROGEN GROUPS
Info: 4 ATOMS IN LARGEST HYDROGEN GROUP
Info: 973 MIGRATION GROUPS
Info: 4 ATOMS IN LARGEST MIGRATION GROUP
Info: TOTAL MASS = 17623.5 amu
Info: TOTAL CHARGE = 0.000100031 e
Info: MASS DENSITY = 0.683872 g/cm^3
Info: ATOM DENSITY = 0.0681881 atoms/A^3
Info: ADDED 0 IMPLICIT EXCLUSIONS
Info: NONBONDED TABLE R-SQUARED SPACING: 0.0625
Info: NONBONDED TABLE SIZE: 705 POINTS
Info: REMOVING COM VELOCITY -0.0160788 0.0103515 -0.0656246
TCL: Running for 100000 steps
ETITLE: TS BOND ANGLE DIHED IMPRP ELECT VDW BOUNDARY MISC KINETIC TOTAL TEMP POTENTIAL TOTAL3 TEMPAVG PRESSURE GPRESSURE VOLUME PRESSAVG GPRESSAVG
ENERGY: 0 0.0247 0.2484 0.4253 0.0000 -13508.0805 2368.6395 0.0000 0.0000 1730.9031 -9407.8394 298.2469 -11138.7426 -9407.5261 298.2469 346.6290 384.0920 42793.4087 346.6290 384.0920
ENERGY: 100000 0.1773 0.5897 0.5419 0.0000 -13959.9056 2350.1161 0.0000 0.0000 176.3648 -11432.1158 30.3889 -11608.4807 -11431.3589 30.9728 -827.3521 -796.1397 28486.4215 4.1160 4.0857
TCL: Running 100000 steps at 60 kelvin.
TCL: Setting parameter langevinTemp to 60
TCL: Running for 100000 steps
ETITLE: TS BOND ANGLE DIHED IMPRP ELECT VDW BOUNDARY MISC KINETIC TOTAL TEMP POTENTIAL TOTAL3 TEMPAVG PRESSURE GPRESSURE VOLUME PRESSAVG GPRESSAVG
ENERGY: 100000 0.1773 0.5897 0.5419 0.0000 -13959.9056 2350.1161 0.0000 0.0000 176.2806 -11432.2000 30.3744 -11608.4806 -11431.7616 30.3744 -841.2817 -795.7431 28486.4215 -841.2817 -795.7431
ENERGY: 200000 0.1903 1.8474 0.5454 0.0000 -13963.3971 2413.7390 0.0000 0.0000 354.8745 -11192.2006 61.1474 -11547.0751 -11191.3955 59.9082 342.6960 377.5356 27811.0079 3.6229 3.6245
TCL: Running 100000 steps at 90 kelvin.
TCL: Setting parameter langevinTemp to 90
TCL: Running for 100000 steps
ETITLE: TS BOND ANGLE DIHED IMPRP ELECT VDW BOUNDARY MISC KINETIC TOTAL TEMP POTENTIAL TOTAL3 TEMPAVG PRESSURE GPRESSURE VOLUME PRESSAVG GPRESSAVG
ENERGY: 200000 0.1903 1.8474 0.5454 0.0000 -13963.3971 2413.7390 0.0000 0.0000 354.7058 -11192.3693 61.1183 -11547.0751 -11191.4711 61.1183 331.7719 377.7176 27811.0079 331.7719 377.7176
ENERGY: 300000 0.4386 2.3265 0.5120 0.0000 -13831.0346 2368.3157 0.0000 0.0000 526.3618 -10933.0800 90.6959 -11459.4418 -10932.2480 89.7983 155.8331 198.3940 28132.4321 3.9239 4.0462
TCL: Running 100000 steps at 120 kelvin.
TCL: Setting parameter langevinTemp to 120
TCL: Running for 100000 steps
ETITLE: TS BOND ANGLE DIHED IMPRP ELECT VDW BOUNDARY MISC KINETIC TOTAL TEMP POTENTIAL TOTAL3 TEMPAVG PRESSURE GPRESSURE VOLUME PRESSAVG GPRESSAVG
ENERGY: 300000 0.4386 2.3265 0.5120 0.0000 -13831.0346 2368.3157 0.0000 0.0000 526.1061 -10933.3357 90.6518 -11459.4418 -10932.2684 90.6518 155.4570 198.1863 28132.4321 155.4570 198.1863
ENERGY: 400000 0.1952 2.0291 0.6074 0.0000 -13629.9418 2284.4520 0.0000 0.0000 700.9227 -10641.7355 120.7740 -11342.6581 -10639.5311 120.0977 -80.5040 -71.8121 28328.8007 4.8069 4.8017
TCL: Running 100000 steps at 150 kelvin.
TCL: Setting parameter langevinTemp to 150
TCL: Running for 100000 steps
ETITLE: TS BOND ANGLE DIHED IMPRP ELECT VDW BOUNDARY MISC KINETIC TOTAL TEMP POTENTIAL TOTAL3 TEMPAVG PRESSURE GPRESSURE VOLUME PRESSAVG GPRESSAVG
ENERGY: 400000 0.1952 2.0291 0.6074 0.0000 -13629.9418 2284.4520 0.0000 0.0000 700.5710 -10642.0871 120.7134 -11342.6581 -10640.7168 120.7134 -118.3600 -70.7278 28328.8007 -118.3600 -70.7278
ENERGY: 500000 1.4040 2.4004 1.2002 0.0000 -13323.4971 2153.7639 0.0000 0.0000 871.9620 -10292.7666 150.2452 -11164.7286 -10291.8625 150.1405 -550.3094 -502.9031 28433.0374 2.0380 1.9155
TCL: Running 100000 steps at 180 kelvin.
TCL: Setting parameter langevinTemp to 180
TCL: Running for 100000 steps
ETITLE: TS BOND ANGLE DIHED IMPRP ELECT VDW BOUNDARY MISC KINETIC TOTAL TEMP POTENTIAL TOTAL3 TEMPAVG PRESSURE GPRESSURE VOLUME PRESSAVG GPRESSAVG
ENERGY: 500000 1.4040 2.4004 1.2002 0.0000 -13323.4971 2153.7639 0.0000 0.0000 871.5327 -10293.1959 150.1713 -11164.7286 -10291.7327 150.1713 -550.5031 -503.2176 28433.0374 -550.5031 -503.2176
ENERGY: 600000 1.3591 3.5112 2.1707 0.0000 -13106.7469 2179.8201 0.0000 0.0000 1020.6651 -9899.2208 175.8678 -10919.8859 -9896.1489 179.8410 543.0068 654.1627 28323.4503 2.0912 1.9526
TCL: Running 100000 steps at 210 kelvin.
TCL: Setting parameter langevinTemp to 210
TCL: Running for 100000 steps
ETITLE: TS BOND ANGLE DIHED IMPRP ELECT VDW BOUNDARY MISC KINETIC TOTAL TEMP POTENTIAL TOTAL3 TEMPAVG PRESSURE GPRESSURE VOLUME PRESSAVG GPRESSAVG
ENERGY: 600000 1.3591 3.5112 2.1707 0.0000 -13106.7469 2179.8201 0.0000 0.0000 1020.1725 -9899.7133 175.7830 -10919.8859 -9897.7599 175.7830 588.9078 654.3971 28323.4503 588.9078 654.3971
ENERGY: 700000 0.6034 4.9880 0.8617 0.0000 -12357.4280 1909.3192 0.0000 0.0000 1227.8269 -9213.8288 211.5633 -10441.6557 -9212.5502 210.2771 154.9791 270.9006 28452.4542 2.5308 2.3582
TCL: Running 100000 steps at 240 kelvin.
TCL: Setting parameter langevinTemp to 240
TCL: Running for 100000 steps
ETITLE: TS BOND ANGLE DIHED IMPRP ELECT VDW BOUNDARY MISC KINETIC TOTAL TEMP POTENTIAL TOTAL3 TEMPAVG PRESSURE GPRESSURE VOLUME PRESSAVG GPRESSAVG
ENERGY: 700000 0.6034 4.9880 0.8617 0.0000 -12357.4280 1909.3192 0.0000 0.0000 1227.2214 -9214.4343 211.4590 -10441.6557 -9212.0982 211.4590 202.5572 270.6245 28452.4542 202.5572 270.6245
ENERGY: 800000 0.3775 7.8455 0.8939 0.0000 -11663.1086 1688.9497 0.0000 0.0000 1414.7019 -8550.3401 243.7632 -9965.0420 -8548.9977 239.5839 140.8013 206.8280 28561.0447 1.8657 2.0081
TCL: Running 100000 steps at 270 kelvin.
TCL: Setting parameter langevinTemp to 270
TCL: Running for 100000 steps
ETITLE: TS BOND ANGLE DIHED IMPRP ELECT VDW BOUNDARY MISC KINETIC TOTAL TEMP POTENTIAL TOTAL3 TEMPAVG PRESSURE GPRESSURE VOLUME PRESSAVG GPRESSAVG
ENERGY: 800000 0.3775 7.8455 0.8939 0.0000 -11663.1086 1688.9497 0.0000 0.0000 1414.0195 -8551.0225 243.6456 -9965.0420 -8549.3013 243.6456 116.5319 205.2540 28561.0447 116.5319 205.2540
ENERGY: 900000 1.3089 5.0652 1.2705 0.0000 -11024.4256 1507.9812 0.0000 0.0000 1589.3418 -7919.4580 273.8549 -9508.7998 -7918.1061 270.2507 -502.8597 -370.2689 29614.0222 1.9446 1.9210
TCL: Running 1000000 steps at 300 kelvin.
TCL: Setting parameter langevinTemp to 300
TCL: Running for 1000000 steps
ETITLE: TS BOND ANGLE DIHED IMPRP ELECT VDW BOUNDARY MISC KINETIC TOTAL TEMP POTENTIAL TOTAL3 TEMPAVG PRESSURE GPRESSURE VOLUME PRESSAVG GPRESSAVG
ENERGY: 900000 1.3089 5.0652 1.2705 0.0000 -11024.4256 1507.9812 0.0000 0.0000 1588.5628 -7920.2370 273.7207 -9508.7998 -7917.9076 273.7207 -449.0063 -370.7645 29614.0222 -449.0063 -370.7645
ENERGY: 1100000 0.1224 4.6615 1.8486 0.0000 -10608.9530 1439.2470 0.0000 0.0000 1750.0245 -7413.0490 301.5417 -9163.0736 -7410.3124 300.5794 246.1688 343.1317 29801.1779 2.5755 2.7401
ENERGY: 1300000 1.6529 5.7142 0.9495 0.0000 -10624.7407 1439.5847 0.0000 0.0000 1732.4907 -7444.3488 298.5205 -9176.8395 -7438.8958 299.7168 -315.0442 -208.8225 30519.7744 3.4909 3.3857
ENERGY: 1500000 1.1655 5.1107 3.8432 0.0000 -10473.1196 1351.1787 0.0000 0.0000 1712.3826 -7399.4388 295.0557 -9111.8214 -7396.5612 299.6515 -717.7478 -649.0228 30363.1013 3.0873 3.2670
ENERGY: 1700000 1.9308 6.9161 0.9636 0.0000 -10615.9521 1470.8004 0.0000 0.0000 1719.6219 -7415.7195 296.3031 -9135.3413 -7413.7326 301.2189 548.8014 610.7218 29986.0883 3.6939 3.5325
ENERGY: 1900000 0.5026 9.4743 3.0414 0.0000 -10489.4186 1393.3323 0.0000 0.0000 1666.0650 -7417.0030 287.0748 -9083.0680 -7412.0746 300.0834 10.5841 25.5005 30086.4497 3.7453 3.7185
TCL: Exiting due to exit command.
