Info: SIMULATION PARAMETERS:
Info: TIMESTEP               2
Info: NUMBER OF STEPS        0
Info: STEPS PER CYCLE        10
Info: PERIODIC CELL BASIS 1  36.592 0 0
Info: PERIODIC CELL BASIS 2  0 35.411 0
Info: PERIODIC CELL BASIS 3  0 0 34.229
Info: PERIODIC CELL CENTER   0 0 0
Info: WRAPPING WATERS AROUND PERIODIC BOUNDARIES ON OUTPUT.
Info: WRAPPING ALL CLUSTERS AROUND PERIODIC BOUNDARIES ON OUTPUT.
Info: FIRST LDB TIMESTEP     50
Info: LAST LDB TIMESTEP     -1
Info: HOM BACKGROUND SCALING 1
Info: PME BACKGROUND SCALING 1
Info: MIN ATOMS PER PATCH    40
Info: EMPTY PATCH LOAD       40 ATOMS
Info: INITIAL TEMPERATURE    300
Info: CENTER OF MASS MOVING INITIALLY? NO
Info: DIELECTRIC             1
Info: EXCLUDE                SCALED ONE-FOUR
Info: 1-4 ELECTROSTATICS SCALED BY 0.833333
Info: MODIFIED 1-4 VDW PARAMETERS WILL BE USED
Info: DCD FILENAME           mobley_3727287_equil.dcd
Info: DCD FREQUENCY          100000
Info: DCD FIRST STEP         100000
Info: DCD FILE WILL CONTAIN UNIT CELL DATA
Info: XST FILENAME           mobley_3727287_equil.xst
Info: XST FREQUENCY          100000
Info: NO VELOCITY DCD OUTPUT
Info: NO FORCE DCD OUTPUT
Info: OUTPUT FILENAME        mobley_3727287_equil
Info: BINARY OUTPUT FILES WILL BE USED
Info: RESTART FILENAME       mobley_3727287_equil.restart
Info: RESTART FREQUENCY      100000
Info: BINARY RESTART FILES WILL BE USED
Info: CUTOFF                 9
Info: PAIRLIST DISTANCE      11
Info: PAIRLIST SHRINK RATE   0.01
Info: PAIRLIST GROW RATE     0.01
Info: PAIRLIST TRIGGER       0.3
Info: PAIRLISTS PER CYCLE    2
Info: PAIRLISTS ENABLED
Info: MARGIN                 8
Info: HYDROGEN GROUP CUTOFF  2.5
Info: PATCH DIMENSION        21.5
Info: ENERGY OUTPUT STEPS    100000
Info: ENERGY EVALUATION STEPS    100000
Info: OUTPUT ENERGY PRECISION 4
Info: CROSSTERM ENERGY INCLUDED IN DIHEDRAL
Info: TIMING OUTPUT STEPS    1000000
Info: PRESSURE OUTPUT STEPS  100000
Info: LANGEVIN DYNAMICS ACTIVE
Info: LANGEVIN TEMPERATURE   30
Info: LANGEVIN USING BBK INTEGRATOR
Info: LANGEVIN DAMPING COEFFICIENT IS 1 INVERSE PS
Info: LANGEVIN DYNAMICS APPLIED TO HYDROGENS
Info: LANGEVIN PISTON PRESSURE CONTROL ACTIVE
Info:        TARGET PRESSURE IS 1.01325 BAR
Info:     OSCILLATION PERIOD IS 50 FS
Info:             DECAY TIME IS 25 FS
Info:     PISTON TEMPERATURE IS 300 K
Info:       PRESSURE CONTROL IS GROUP-BASED
Info:    INITIAL STRAIN RATE IS 0 0 0
Info:       CELL FLUCTUATION IS ISOTROPIC
Info: PARTICLE MESH EWALD (PME) ACTIVE
Info: PME TOLERANCE               1e-06
Info: PME EWALD COEFFICIENT       0.348832
Info: PME INTERPOLATION ORDER     4
Info: PME GRID DIMENSIONS         40 36 36
Info: PME MAXIMUM GRID SPACING    1
Info: FULL ELECTROSTATIC EVALUATION FREQUENCY      2
Info: USING VERLET I (r-RESPA) MTS SCHEME.
Info: C1 SPLITTING OF LONG RANGE ELECTROSTATICS
Info: PLACING ATOMS IN PATCHES BY HYDROGEN GROUPS
Info: RIGID BONDS TO HYDROGEN : ALL
Info:         ERROR TOLERANCE : 1e-08
Info:          MAX ITERATIONS : 100
Info: RIGID WATER USING SETTLE ALGORITHM
Info: RANDOM NUMBER SEED     1743162561
Info: USE HYDROGEN BONDS?    NO
Info: Using AMBER format force field!
Info: AMBER PARM FILE        mobley_3727287.prmtop
Info: COORDINATE PDB         mobley_3727287.pdb
Info: Exclusions will be read from PARM file!
Info: SCNB (VDW SCALING)     2
Info: USING ARITHMETIC MEAN TO COMBINE L-J SIGMA PARAMETERS
Info: BINARY COORDINATES     mobley_3727287_min.coor
Info: SUMMARY OF PARAMETERS:
Info: 8 BONDS
Info: 9 ANGLES
Info:   9 HARMONIC
Info:   0 COSINE-BASED
Info: 4 DIHEDRAL
Info: 0 IMPROPER
Info: 0 CROSSTERM
Info: 0 VDW
Info: 15 VDW_PAIRS
Info: 0 NBTHOLE_PAIRS
Info: STRUCTURE SUMMARY:
Info: 2949 ATOMS
Info: 2949 BONDS
Info: 18 ANGLES
Info: 30 DIHEDRALS
Info: 0 IMPROPERS
Info: 0 CROSSTERMS
Info: 2988 EXCLUSIONS
Info: 2941 RIGID BONDS
Info: 5906 DEGREES OF FREEDOM
Info: 987 HYDROGEN GROUPS
Info: 3 ATOMS IN LARGEST HYDROGEN GROUP
Info: 987 MIGRATION GROUPS
Info: 3 ATOMS IN LARGEST MIGRATION GROUP
Info: TOTAL MASS = 17745.8 amu
Info: TOTAL CHARGE = 0 e
Info: MASS DENSITY = 0.664409 g/cm^3
Info: ATOM DENSITY = 0.06649 atoms/A^3
Info: ADDED 0 IMPLICIT EXCLUSIONS
Info: NONBONDED TABLE R-SQUARED SPACING: 0.0625
Info: NONBONDED TABLE SIZE: 705 POINTS
Info: REMOVING COM VELOCITY -0.0675787 -0.00780113 0.039226
TCL: Running for 100000 steps
ETITLE: TS BOND ANGLE DIHED IMPRP ELECT VDW BOUNDARY MISC KINETIC TOTAL TEMP POTENTIAL TOTAL3 TEMPAVG PRESSURE GPRESSURE VOLUME PRESSAVG GPRESSAVG
ENERGY: 0 0.1193 0.5779 0.0392 0.0000 -13611.7801 2408.8722 0.0000 0.0000 1808.7087 -9393.4627 308.2234 -11202.1714 -9393.1255 308.2234 549.4839 578.5604 44352.5455 549.4839 578.5604
ENERGY: 100000 0.3859 0.5530 0.4457 0.0000 -14094.6883 2390.9012 0.0000 0.0000 173.4173 -11528.9851 29.5522 -11702.4024 -11528.5363 30.9104 -755.5526 -736.9628 29923.0289 4.2978 4.3551
TCL: Running 100000 steps at 60 kelvin.
TCL: Setting parameter langevinTemp to 60
TCL: Running for 100000 steps
ETITLE: TS BOND ANGLE DIHED IMPRP ELECT VDW BOUNDARY MISC KINETIC TOTAL TEMP POTENTIAL TOTAL3 TEMPAVG PRESSURE GPRESSURE VOLUME PRESSAVG GPRESSAVG
ENERGY: 100000 0.3859 0.5530 0.4457 0.0000 -14094.6883 2390.9012 0.0000 0.0000 173.3263 -11529.0761 29.5367 -11702.4024 -11528.7584 29.5367 -781.5823 -737.1968 29923.0289 -781.5823 -737.1968
ENERGY: 200000 1.2399 0.8221 0.1719 0.0000 -13967.8059 2313.3724 0.0000 0.0000 356.7103 -11295.4893 60.7873 -11652.1996 -11294.7068 59.9090 -1158.4690 -1090.4592 29457.6196 4.5876 4.6211
TCL: Running 100000 steps at 90 kelvin.
TCL: Setting parameter langevinTemp to 90
TCL: Running for 100000 steps
ETITLE: TS BOND ANGLE DIHED IMPRP ELECT VDW BOUNDARY MISC KINETIC TOTAL TEMP POTENTIAL TOTAL3 TEMPAVG PRESSURE GPRESSURE VOLUME PRESSAVG GPRESSAVG
ENERGY: 200000 1.2399 0.8221 0.1719 0.0000 -13967.8059 2313.3724 0.0000 0.0000 356.5354 -11295.6641 60.7575 -11652.1996 -11294.8138 60.7575 -1152.2929 -1090.3141 29457.6196 -1152.2929 -1090.3141
ENERGY: 300000 1.0219 0.8337 0.2819 0.0000 -14005.7972 2455.2624 0.0000 0.0000 527.6383 -11020.7590 89.9152 -11548.3973 -11020.0449 89.9953 656.1120 744.0036 28853.9587 4.2566 4.1508
TCL: Running 100000 steps at 120 kelvin.
TCL: Setting parameter langevinTemp to 120
TCL: Running for 100000 steps
ETITLE: TS BOND ANGLE DIHED IMPRP ELECT VDW BOUNDARY MISC KINETIC TOTAL TEMP POTENTIAL TOTAL3 TEMPAVG PRESSURE GPRESSURE VOLUME PRESSAVG GPRESSAVG
ENERGY: 300000 1.0219 0.8337 0.2819 0.0000 -14005.7972 2455.2624 0.0000 0.0000 527.3780 -11021.0193 89.8709 -11548.3973 -11020.0651 89.8709 678.4085 743.4949 28853.9587 678.4085 743.4949
ENERGY: 400000 1.4116 1.2708 0.4473 0.0000 -13713.1209 2265.4485 0.0000 0.0000 727.9755 -10716.5672 124.0548 -11444.5427 -10716.0025 120.1457 -766.8576 -709.9131 29358.5204 3.7644 3.7134
TCL: Running 100000 steps at 150 kelvin.
TCL: Setting parameter langevinTemp to 150
TCL: Running for 100000 steps
ETITLE: TS BOND ANGLE DIHED IMPRP ELECT VDW BOUNDARY MISC KINETIC TOTAL TEMP POTENTIAL TOTAL3 TEMPAVG PRESSURE GPRESSURE VOLUME PRESSAVG GPRESSAVG
ENERGY: 400000 1.4116 1.2708 0.4473 0.0000 -13713.1209 2265.4485 0.0000 0.0000 727.6244 -10716.9183 123.9950 -11444.5427 -10714.9778 123.9950 -758.9227 -711.3888 29358.5204 -758.9227 -711.3888
ENERGY: 500000 1.0140 0.8663 1.3421 0.0000 -13575.3513 2288.8264 0.0000 0.0000 906.2037 -10377.0990 154.4268 -11283.3026 -10374.7220 150.2749 -21.4697 35.9534 29455.6392 3.9470 3.8273
TCL: Running 100000 steps at 180 kelvin.
TCL: Setting parameter langevinTemp to 180
TCL: Running for 100000 steps
ETITLE: TS BOND ANGLE DIHED IMPRP ELECT VDW BOUNDARY MISC KINETIC TOTAL TEMP POTENTIAL TOTAL3 TEMPAVG PRESSURE GPRESSURE VOLUME PRESSAVG GPRESSAVG
ENERGY: 500000 1.0140 0.8663 1.3421 0.0000 -13575.3513 2288.8264 0.0000 0.0000 905.7740 -10377.5286 154.3536 -11283.3026 -10375.7286 154.3536 -20.4130 37.1558 29455.6392 -20.4130 37.1558
ENERGY: 600000 1.7597 1.8521 0.6885 0.0000 -13087.7036 2070.8928 0.0000 0.0000 1040.8514 -9971.6590 177.3722 -11012.5104 -9968.0215 179.6667 -558.8388 -488.2096 28846.5404 3.6881 3.5513
TCL: Running 100000 steps at 210 kelvin.
TCL: Setting parameter langevinTemp to 210
TCL: Running for 100000 steps
ETITLE: TS BOND ANGLE DIHED IMPRP ELECT VDW BOUNDARY MISC KINETIC TOTAL TEMP POTENTIAL TOTAL3 TEMPAVG PRESSURE GPRESSURE VOLUME PRESSAVG GPRESSAVG
ENERGY: 600000 1.7597 1.8521 0.6885 0.0000 -13087.7036 2070.8928 0.0000 0.0000 1040.3297 -9972.1807 177.2833 -11012.5104 -9970.0956 177.2833 -556.2093 -487.5616 28846.5404 -556.2093 -487.5616
ENERGY: 700000 2.1405 2.7870 2.1120 0.0000 -12402.9496 1888.8263 0.0000 0.0000 1226.9121 -9280.1717 209.0790 -10507.0837 -9276.3414 209.9985 -57.0610 35.4447 28702.0807 4.3231 4.3976
TCL: Running 100000 steps at 240 kelvin.
TCL: Setting parameter langevinTemp to 240
TCL: Running for 100000 steps
ETITLE: TS BOND ANGLE DIHED IMPRP ELECT VDW BOUNDARY MISC KINETIC TOTAL TEMP POTENTIAL TOTAL3 TEMPAVG PRESSURE GPRESSURE VOLUME PRESSAVG GPRESSAVG
ENERGY: 700000 2.1405 2.7870 2.1120 0.0000 -12402.9496 1888.8263 0.0000 0.0000 1226.2789 -9280.8049 208.9711 -10507.0837 -9278.9593 208.9711 -49.3788 36.8331 28702.0807 -49.3788 36.8331
ENERGY: 800000 1.4857 2.7110 1.8290 0.0000 -11727.3349 1692.8019 0.0000 0.0000 1394.4145 -8634.0928 237.6232 -10028.5073 -8629.2914 239.5985 61.4723 164.1930 29054.5985 4.6169 4.7216
TCL: Running 100000 steps at 270 kelvin.
TCL: Setting parameter langevinTemp to 270
TCL: Running for 100000 steps
ETITLE: TS BOND ANGLE DIHED IMPRP ELECT VDW BOUNDARY MISC KINETIC TOTAL TEMP POTENTIAL TOTAL3 TEMPAVG PRESSURE GPRESSURE VOLUME PRESSAVG GPRESSAVG
ENERGY: 800000 1.4857 2.7110 1.8290 0.0000 -11727.3349 1692.8019 0.0000 0.0000 1393.7027 -8634.8046 237.5019 -10028.5073 -8632.5732 237.5019 73.0813 165.2855 29054.5985 73.0813 165.2855
ENERGY: 900000 3.3808 6.9262 4.5200 0.0000 -11224.1452 1596.9711 0.0000 0.0000 1552.3910 -8059.9562 264.5441 -9612.3472 -8056.5514 270.1139 308.2543 406.3423 29528.9382 2.5047 2.3472
TCL: Running 1000000 steps at 300 kelvin.
TCL: Setting parameter langevinTemp to 300
TCL: Running for 1000000 steps
ETITLE: TS BOND ANGLE DIHED IMPRP ELECT VDW BOUNDARY MISC KINETIC TOTAL TEMP POTENTIAL TOTAL3 TEMPAVG PRESSURE GPRESSURE VOLUME PRESSAVG GPRESSAVG
ENERGY: 900000 3.3808 6.9262 4.5200 0.0000 -11224.1452 1596.9711 0.0000 0.0000 1551.5847 -8060.7624 264.4067 -9612.3472 -8058.6517 264.4067 314.8211 406.5261 29528.9382 314.8211 406.5261
ENERGY: 1100000 1.3263 3.9405 1.5836 0.0000 -10696.3408 1426.1713 0.0000 0.0000 1736.2728 -7527.0464 295.8795 -9263.3191 -7521.8281 300.2225 -197.2312 -114.9033 30510.8166 3.2868 3.3638
ENERGY: 1300000 2.7494 3.8331 5.9214 0.0000 -10725.3898 1495.0962 0.0000 0.0000 1748.9300 -7468.8597 298.0364 -9217.7897 -7465.9322 300.2687 415.1171 488.7315 30446.0977 3.7212 3.6871
ENERGY: 1500000 5.9595 4.1032 2.7937 0.0000 -10677.9782 1436.4875 0.0000 0.0000 1771.9786 -7456.6558 301.9642 -9228.6343 -7454.1553 300.4094 70.9294 92.7369 30168.1569 2.6693 2.7549
ENERGY: 1700000 1.8817 5.1497 1.4964 0.0000 -10660.2899 1406.3846 0.0000 0.0000 1746.5203 -7498.8572 297.6258 -9245.3775 -7495.5652 300.1417 -126.6586 -80.5386 30513.9771 3.9537 3.9003
ENERGY: 1900000 2.1189 1.7067 2.5405 0.0000 -10654.1451 1421.7286 0.0000 0.0000 1815.6468 -7410.4035 309.4057 -9226.0504 -7407.0078 300.5522 46.1355 88.8908 30188.4596 2.7358 2.6679
TCL: Exiting due to exit command.
