Info: SIMULATION PARAMETERS:
Info: TIMESTEP               2
Info: NUMBER OF STEPS        0
Info: STEPS PER CYCLE        10
Info: PERIODIC CELL BASIS 1  37.38 0 0
Info: PERIODIC CELL BASIS 2  0 34.26 0
Info: PERIODIC CELL BASIS 3  0 0 34.68
Info: PERIODIC CELL CENTER   0 0 0
Info: WRAPPING WATERS AROUND PERIODIC BOUNDARIES ON OUTPUT.
Info: WRAPPING ALL CLUSTERS AROUND PERIODIC BOUNDARIES ON OUTPUT.
Info: FIRST LDB TIMESTEP     50
Info: LAST LDB TIMESTEP     -1
Info: HOM BACKGROUND SCALING 1
Info: PME BACKGROUND SCALING 1
Info: MIN ATOMS PER PATCH    40
Info: EMPTY PATCH LOAD       40 ATOMS
Info: INITIAL TEMPERATURE    300
Info: CENTER OF MASS MOVING INITIALLY? NO
Info: DIELECTRIC             1
Info: EXCLUDE                SCALED ONE-FOUR
Info: 1-4 ELECTROSTATICS SCALED BY 0.833333
Info: MODIFIED 1-4 VDW PARAMETERS WILL BE USED
Info: DCD FILENAME           mobley_1944394_equil.dcd
Info: DCD FREQUENCY          100000
Info: DCD FIRST STEP         100000
Info: DCD FILE WILL CONTAIN UNIT CELL DATA
Info: XST FILENAME           mobley_1944394_equil.xst
Info: XST FREQUENCY          100000
Info: NO VELOCITY DCD OUTPUT
Info: NO FORCE DCD OUTPUT
Info: OUTPUT FILENAME        mobley_1944394_equil
Info: BINARY OUTPUT FILES WILL BE USED
Info: RESTART FILENAME       mobley_1944394_equil.restart
Info: RESTART FREQUENCY      100000
Info: BINARY RESTART FILES WILL BE USED
Info: CUTOFF                 9
Info: PAIRLIST DISTANCE      11
Info: PAIRLIST SHRINK RATE   0.01
Info: PAIRLIST GROW RATE     0.01
Info: PAIRLIST TRIGGER       0.3
Info: PAIRLISTS PER CYCLE    2
Info: PAIRLISTS ENABLED
Info: MARGIN                 8
Info: HYDROGEN GROUP CUTOFF  2.5
Info: PATCH DIMENSION        21.5
Info: ENERGY OUTPUT STEPS    100000
Info: ENERGY EVALUATION STEPS    100000
Info: OUTPUT ENERGY PRECISION 4
Info: CROSSTERM ENERGY INCLUDED IN DIHEDRAL
Info: TIMING OUTPUT STEPS    1000000
Info: PRESSURE OUTPUT STEPS  100000
Info: LANGEVIN DYNAMICS ACTIVE
Info: LANGEVIN TEMPERATURE   30
Info: LANGEVIN USING BBK INTEGRATOR
Info: LANGEVIN DAMPING COEFFICIENT IS 1 INVERSE PS
Info: LANGEVIN DYNAMICS APPLIED TO HYDROGENS
Info: LANGEVIN PISTON PRESSURE CONTROL ACTIVE
Info:        TARGET PRESSURE IS 1.01325 BAR
Info:     OSCILLATION PERIOD IS 50 FS
Info:             DECAY TIME IS 25 FS
Info:     PISTON TEMPERATURE IS 300 K
Info:       PRESSURE CONTROL IS GROUP-BASED
Info:    INITIAL STRAIN RATE IS 0 0 0
Info:       CELL FLUCTUATION IS ISOTROPIC
Info: PARTICLE MESH EWALD (PME) ACTIVE
Info: PME TOLERANCE               1e-06
Info: PME EWALD COEFFICIENT       0.348832
Info: PME INTERPOLATION ORDER     4
Info: PME GRID DIMENSIONS         40 36 36
Info: PME MAXIMUM GRID SPACING    1
Info: FULL ELECTROSTATIC EVALUATION FREQUENCY      2
Info: USING VERLET I (r-RESPA) MTS SCHEME.
Info: C1 SPLITTING OF LONG RANGE ELECTROSTATICS
Info: PLACING ATOMS IN PATCHES BY HYDROGEN GROUPS
Info: RIGID BONDS TO HYDROGEN : ALL
Info:         ERROR TOLERANCE : 1e-08
Info:          MAX ITERATIONS : 100
Info: RIGID WATER USING SETTLE ALGORITHM
Info: RANDOM NUMBER SEED     1743263531
Info: USE HYDROGEN BONDS?    NO
Info: Using AMBER format force field!
Info: AMBER PARM FILE        mobley_1944394.prmtop
Info: COORDINATE PDB         mobley_1944394.pdb
Info: Exclusions will be read from PARM file!
Info: SCNB (VDW SCALING)     2
Info: USING ARITHMETIC MEAN TO COMBINE L-J SIGMA PARAMETERS
Info: BINARY COORDINATES     mobley_1944394_min.coor
Info: SUMMARY OF PARAMETERS:
Info: 9 BONDS
Info: 14 ANGLES
Info:   14 HARMONIC
Info:   0 COSINE-BASED
Info: 11 DIHEDRAL
Info: 0 IMPROPER
Info: 0 CROSSTERM
Info: 0 VDW
Info: 36 VDW_PAIRS
Info: 0 NBTHOLE_PAIRS
Info: STRUCTURE SUMMARY:
Info: 2950 ATOMS
Info: 2951 BONDS
Info: 70 ANGLES
Info: 110 DIHEDRALS
Info: 0 IMPROPERS
Info: 0 CROSSTERMS
Info: 3108 EXCLUSIONS
Info: 2931 RIGID BONDS
Info: 5919 DEGREES OF FREEDOM
Info: 989 HYDROGEN GROUPS
Info: 4 ATOMS IN LARGEST HYDROGEN GROUP
Info: 989 MIGRATION GROUPS
Info: 4 ATOMS IN LARGEST MIGRATION GROUP
Info: TOTAL MASS = 17730.9 amu
Info: TOTAL CHARGE = 0.000400033 e
Info: MASS DENSITY = 0.662954 g/cm^3
Info: ATOM DENSITY = 0.0664227 atoms/A^3
Info: ADDED 0 IMPLICIT EXCLUSIONS
Info: NONBONDED TABLE R-SQUARED SPACING: 0.0625
Info: NONBONDED TABLE SIZE: 705 POINTS
Info: REMOVING COM VELOCITY 0.0587984 -0.0690212 -0.00742236
TCL: Running for 100000 steps
ETITLE: TS BOND ANGLE DIHED IMPRP ELECT VDW BOUNDARY MISC KINETIC TOTAL TEMP POTENTIAL TOTAL3 TEMPAVG PRESSURE GPRESSURE VOLUME PRESSAVG GPRESSAVG
ENERGY: 0 0.8622 0.8569 2.9445 0.0000 -13376.2270 2302.0638 0.0000 0.0000 1789.8270 -9279.6725 304.3358 -11069.4996 -9279.3210 304.3358 -31.2806 -3.7669 44412.5536 -31.2806 -3.7669
ENERGY: 100000 2.0729 1.9384 4.5020 0.0000 -13962.5390 2422.3396 0.0000 0.0000 175.0937 -11356.5924 29.7723 -11531.6861 -11356.1219 30.9261 -39.9211 15.3284 29666.3804 4.2314 4.2587
TCL: Running 100000 steps at 60 kelvin.
TCL: Setting parameter langevinTemp to 60
TCL: Running for 100000 steps
ETITLE: TS BOND ANGLE DIHED IMPRP ELECT VDW BOUNDARY MISC KINETIC TOTAL TEMP POTENTIAL TOTAL3 TEMPAVG PRESSURE GPRESSURE VOLUME PRESSAVG GPRESSAVG
ENERGY: 100000 2.0729 1.9384 4.5020 0.0000 -13962.5390 2422.3396 0.0000 0.0000 175.0087 -11356.6774 29.7579 -11531.6861 -11356.3153 29.7579 -43.3009 15.3157 29666.3804 -43.3009 15.3157
ENERGY: 200000 1.6903 4.2878 3.1107 0.0000 -13941.4026 2432.4130 0.0000 0.0000 342.9727 -11156.9281 58.3179 -11499.9008 -11155.9830 60.0990 287.6534 368.3908 29392.1260 4.3503 4.3162
TCL: Running 100000 steps at 90 kelvin.
TCL: Setting parameter langevinTemp to 90
TCL: Running for 100000 steps
ETITLE: TS BOND ANGLE DIHED IMPRP ELECT VDW BOUNDARY MISC KINETIC TOTAL TEMP POTENTIAL TOTAL3 TEMPAVG PRESSURE GPRESSURE VOLUME PRESSAVG GPRESSAVG
ENERGY: 200000 1.6903 4.2878 3.1107 0.0000 -13941.4026 2432.4130 0.0000 0.0000 342.8030 -11157.0978 58.2890 -11499.9008 -11156.4878 58.2890 314.2302 368.4825 29392.1260 314.2302 368.4825
ENERGY: 300000 2.3697 5.9500 2.8861 0.0000 -13916.0382 2530.2536 0.0000 0.0000 528.2464 -10846.3323 89.8211 -11374.5787 -10844.5867 90.0517 1670.0884 1715.2181 29161.0749 4.7533 4.6774
TCL: Running 100000 steps at 120 kelvin.
TCL: Setting parameter langevinTemp to 120
TCL: Running for 100000 steps
ETITLE: TS BOND ANGLE DIHED IMPRP ELECT VDW BOUNDARY MISC KINETIC TOTAL TEMP POTENTIAL TOTAL3 TEMPAVG PRESSURE GPRESSURE VOLUME PRESSAVG GPRESSAVG
ENERGY: 300000 2.3697 5.9500 2.8861 0.0000 -13916.0382 2530.2536 0.0000 0.0000 527.9840 -10846.5947 89.7765 -11374.5787 -10845.4916 89.7765 1665.3213 1715.8835 29161.0749 1665.3213 1715.8835
ENERGY: 400000 5.0153 7.3471 5.3176 0.0000 -13604.0955 2311.6198 0.0000 0.0000 700.5671 -10574.2285 119.1220 -11274.7957 -10572.3376 119.9842 -10.5567 6.4892 29244.3655 4.5067 4.6588
TCL: Running 100000 steps at 150 kelvin.
TCL: Setting parameter langevinTemp to 150
TCL: Running for 100000 steps
ETITLE: TS BOND ANGLE DIHED IMPRP ELECT VDW BOUNDARY MISC KINETIC TOTAL TEMP POTENTIAL TOTAL3 TEMPAVG PRESSURE GPRESSURE VOLUME PRESSAVG GPRESSAVG
ENERGY: 400000 5.0153 7.3471 5.3176 0.0000 -13604.0955 2311.6198 0.0000 0.0000 700.2190 -10574.5767 119.0628 -11274.7957 -10573.0759 119.0628 -37.5480 7.0418 29244.3655 -37.5480 7.0418
ENERGY: 500000 4.8022 7.7988 4.1866 0.0000 -13266.5350 2077.2028 0.0000 0.0000 892.8919 -10279.6528 151.8242 -11172.5447 -10278.0083 149.7266 -1693.2617 -1609.9570 29432.9121 3.5535 3.5252
TCL: Running 100000 steps at 180 kelvin.
TCL: Setting parameter langevinTemp to 180
TCL: Running for 100000 steps
ETITLE: TS BOND ANGLE DIHED IMPRP ELECT VDW BOUNDARY MISC KINETIC TOTAL TEMP POTENTIAL TOTAL3 TEMPAVG PRESSURE GPRESSURE VOLUME PRESSAVG GPRESSAVG
ENERGY: 500000 4.8022 7.7988 4.1866 0.0000 -13266.5350 2077.2028 0.0000 0.0000 892.4737 -10280.0710 151.7531 -11172.5447 -10277.7018 151.7531 -1655.0902 -1610.9345 29432.9121 -1655.0902 -1610.9345
ENERGY: 600000 3.9454 7.3806 6.4453 0.0000 -12858.5699 1981.9362 0.0000 0.0000 1060.7493 -9798.1131 180.3660 -10858.8624 -9796.9707 179.9718 -1071.8133 -1006.7418 29361.1221 2.3885 2.3942
TCL: Running 100000 steps at 210 kelvin.
TCL: Setting parameter langevinTemp to 210
TCL: Running for 100000 steps
ETITLE: TS BOND ANGLE DIHED IMPRP ELECT VDW BOUNDARY MISC KINETIC TOTAL TEMP POTENTIAL TOTAL3 TEMPAVG PRESSURE GPRESSURE VOLUME PRESSAVG GPRESSAVG
ENERGY: 600000 3.9454 7.3806 6.4453 0.0000 -12858.5699 1981.9362 0.0000 0.0000 1060.2318 -9798.6305 180.2781 -10858.8624 -9796.2631 180.2781 -1084.3309 -1009.0918 29361.1221 -1084.3309 -1009.0918
ENERGY: 700000 9.5581 12.2301 6.2611 0.0000 -12187.1872 1807.5750 0.0000 0.0000 1256.7573 -9094.8055 213.6946 -10351.5628 -9092.8817 210.3506 -944.5994 -845.3916 29212.9631 3.6614 3.6029
TCL: Running 100000 steps at 240 kelvin.
TCL: Setting parameter langevinTemp to 240
TCL: Running for 100000 steps
ETITLE: TS BOND ANGLE DIHED IMPRP ELECT VDW BOUNDARY MISC KINETIC TOTAL TEMP POTENTIAL TOTAL3 TEMPAVG PRESSURE GPRESSURE VOLUME PRESSAVG GPRESSAVG
ENERGY: 700000 9.5581 12.2301 6.2611 0.0000 -12187.1872 1807.5750 0.0000 0.0000 1256.1773 -9095.3855 213.5959 -10351.5628 -9093.3523 213.5959 -926.3608 -847.6171 29212.9631 -926.3608 -847.6171
ENERGY: 800000 5.5070 13.6719 7.6009 0.0000 -11620.1090 1676.7655 0.0000 0.0000 1418.5299 -8498.0337 241.2018 -9916.5636 -8494.9160 239.6582 83.1307 170.2363 29055.6276 3.6523 3.6310
TCL: Running 100000 steps at 270 kelvin.
TCL: Setting parameter langevinTemp to 270
TCL: Running for 100000 steps
ETITLE: TS BOND ANGLE DIHED IMPRP ELECT VDW BOUNDARY MISC KINETIC TOTAL TEMP POTENTIAL TOTAL3 TEMPAVG PRESSURE GPRESSURE VOLUME PRESSAVG GPRESSAVG
ENERGY: 800000 5.5070 13.6719 7.6009 0.0000 -11620.1090 1676.7655 0.0000 0.0000 1417.8146 -8498.7491 241.0802 -9916.5636 -8496.1954 241.0802 62.5197 171.2713 29055.6276 62.5197 171.2713
ENERGY: 900000 7.5126 13.5577 5.5519 0.0000 -11142.4684 1548.6579 0.0000 0.0000 1588.8570 -7978.3313 270.1636 -9567.1884 -7972.7754 270.8144 12.2027 69.2946 29308.0487 3.8568 4.0681
TCL: Running 1000000 steps at 300 kelvin.
TCL: Setting parameter langevinTemp to 300
TCL: Running for 1000000 steps
ETITLE: TS BOND ANGLE DIHED IMPRP ELECT VDW BOUNDARY MISC KINETIC TOTAL TEMP POTENTIAL TOTAL3 TEMPAVG PRESSURE GPRESSURE VOLUME PRESSAVG GPRESSAVG
ENERGY: 900000 7.5126 13.5577 5.5519 0.0000 -11142.4684 1548.6579 0.0000 0.0000 1588.0490 -7979.1394 270.0262 -9567.1884 -7975.9448 270.0262 -4.9442 71.8036 29308.0487 -4.9442 71.8036
ENERGY: 1100000 9.6236 13.2890 8.6646 0.0000 -10466.7750 1373.2256 0.0000 0.0000 1755.4965 -7306.4756 298.4984 -9061.9721 -7301.4991 300.7366 -220.3396 -206.8647 30525.6540 2.8615 2.9223
ENERGY: 1300000 6.4217 15.0889 9.0430 0.0000 -10685.0688 1490.6095 0.0000 0.0000 1734.8465 -7429.0591 294.9872 -9163.9057 -7426.4421 299.9768 428.9182 486.5658 30107.2682 3.2823 3.2509
ENERGY: 1500000 4.4124 10.6494 8.1620 0.0000 -10500.6787 1369.8046 0.0000 0.0000 1730.9116 -7376.7386 294.3181 -9107.6503 -7374.6198 300.1013 -198.5107 -153.0274 30274.5286 2.6362 2.4717
ENERGY: 1700000 6.2633 13.6368 6.0029 0.0000 -10483.6267 1394.4909 0.0000 0.0000 1759.5812 -7303.6515 299.1929 -9063.2327 -7297.1005 299.6690 -101.3404 -46.0539 30374.3811 4.3680 4.4012
ENERGY: 1900000 11.1125 17.5505 8.4286 0.0000 -10526.0009 1339.9911 0.0000 0.0000 1818.2656 -7330.6525 309.1714 -9148.9181 -7326.5455 300.2745 -1169.7606 -1052.3802 30681.5755 3.8026 3.6943
TCL: Exiting due to exit command.
