Info: SIMULATION PARAMETERS:
Info: TIMESTEP               2
Info: NUMBER OF STEPS        0
Info: STEPS PER CYCLE        10
Info: PERIODIC CELL BASIS 1  34.207 0 0
Info: PERIODIC CELL BASIS 2  0 35.411 0
Info: PERIODIC CELL BASIS 3  0 0 35.723
Info: PERIODIC CELL CENTER   0 0 0
Info: WRAPPING WATERS AROUND PERIODIC BOUNDARIES ON OUTPUT.
Info: WRAPPING ALL CLUSTERS AROUND PERIODIC BOUNDARIES ON OUTPUT.
Info: FIRST LDB TIMESTEP     50
Info: LAST LDB TIMESTEP     -1
Info: HOM BACKGROUND SCALING 1
Info: PME BACKGROUND SCALING 1
Info: MIN ATOMS PER PATCH    40
Info: EMPTY PATCH LOAD       40 ATOMS
Info: INITIAL TEMPERATURE    300
Info: CENTER OF MASS MOVING INITIALLY? NO
Info: DIELECTRIC             1
Info: EXCLUDE                SCALED ONE-FOUR
Info: 1-4 ELECTROSTATICS SCALED BY 0.833333
Info: MODIFIED 1-4 VDW PARAMETERS WILL BE USED
Info: DCD FILENAME           mobley_646007_equil.dcd
Info: DCD FREQUENCY          100000
Info: DCD FIRST STEP         100000
Info: DCD FILE WILL CONTAIN UNIT CELL DATA
Info: XST FILENAME           mobley_646007_equil.xst
Info: XST FREQUENCY          100000
Info: NO VELOCITY DCD OUTPUT
Info: NO FORCE DCD OUTPUT
Info: OUTPUT FILENAME        mobley_646007_equil
Info: BINARY OUTPUT FILES WILL BE USED
Info: RESTART FILENAME       mobley_646007_equil.restart
Info: RESTART FREQUENCY      100000
Info: BINARY RESTART FILES WILL BE USED
Info: CUTOFF                 9
Info: PAIRLIST DISTANCE      11
Info: PAIRLIST SHRINK RATE   0.01
Info: PAIRLIST GROW RATE     0.01
Info: PAIRLIST TRIGGER       0.3
Info: PAIRLISTS PER CYCLE    2
Info: PAIRLISTS ENABLED
Info: MARGIN                 8
Info: HYDROGEN GROUP CUTOFF  2.5
Info: PATCH DIMENSION        21.5
Info: ENERGY OUTPUT STEPS    100000
Info: ENERGY EVALUATION STEPS    100000
Info: OUTPUT ENERGY PRECISION 4
Info: CROSSTERM ENERGY INCLUDED IN DIHEDRAL
Info: TIMING OUTPUT STEPS    1000000
Info: PRESSURE OUTPUT STEPS  100000
Info: LANGEVIN DYNAMICS ACTIVE
Info: LANGEVIN TEMPERATURE   30
Info: LANGEVIN USING BBK INTEGRATOR
Info: LANGEVIN DAMPING COEFFICIENT IS 1 INVERSE PS
Info: LANGEVIN DYNAMICS APPLIED TO HYDROGENS
Info: LANGEVIN PISTON PRESSURE CONTROL ACTIVE
Info:        TARGET PRESSURE IS 1.01325 BAR
Info:     OSCILLATION PERIOD IS 50 FS
Info:             DECAY TIME IS 25 FS
Info:     PISTON TEMPERATURE IS 300 K
Info:       PRESSURE CONTROL IS GROUP-BASED
Info:    INITIAL STRAIN RATE IS 0 0 0
Info:       CELL FLUCTUATION IS ISOTROPIC
Info: PARTICLE MESH EWALD (PME) ACTIVE
Info: PME TOLERANCE               1e-06
Info: PME EWALD COEFFICIENT       0.348832
Info: PME INTERPOLATION ORDER     4
Info: PME GRID DIMENSIONS         36 36 36
Info: PME MAXIMUM GRID SPACING    1
Info: FULL ELECTROSTATIC EVALUATION FREQUENCY      2
Info: USING VERLET I (r-RESPA) MTS SCHEME.
Info: C1 SPLITTING OF LONG RANGE ELECTROSTATICS
Info: PLACING ATOMS IN PATCHES BY HYDROGEN GROUPS
Info: RIGID BONDS TO HYDROGEN : ALL
Info:         ERROR TOLERANCE : 1e-08
Info:          MAX ITERATIONS : 100
Info: RIGID WATER USING SETTLE ALGORITHM
Info: RANDOM NUMBER SEED     1743210865
Info: USE HYDROGEN BONDS?    NO
Info: Using AMBER format force field!
Info: AMBER PARM FILE        mobley_646007.prmtop
Info: COORDINATE PDB         mobley_646007.pdb
Info: Exclusions will be read from PARM file!
Info: SCNB (VDW SCALING)     2
Info: USING ARITHMETIC MEAN TO COMBINE L-J SIGMA PARAMETERS
Info: BINARY COORDINATES     mobley_646007_min.coor
Info: SUMMARY OF PARAMETERS:
Info: 7 BONDS
Info: 9 ANGLES
Info: 8 DIHEDRAL
Info: 0 IMPROPER
Info: 0 CROSSTERM
Info: 0 VDW
Info: 28 VDW_PAIRS
Info: 0 NBTHOLE_PAIRS
Info: STRUCTURE SUMMARY:
Info: 2921 ATOMS
Info: 2921 BONDS
Info: 27 ANGLES
Info: 43 DIHEDRALS
Info: 0 IMPROPERS
Info: 0 CROSSTERMS
Info: 2982 EXCLUSIONS
Info: 2916 RIGID BONDS
Info: 5847 DEGREES OF FREEDOM
Info: 974 HYDROGEN GROUPS
Info: 3 ATOMS IN LARGEST HYDROGEN GROUP
Info: 974 MIGRATION GROUPS
Info: 3 ATOMS IN LARGEST MIGRATION GROUP
Info: TOTAL MASS = 17528.6 amu
Info: TOTAL CHARGE = -2.98023e-08 e
Info: MASS DENSITY = 0.672676 g/cm^3
Info: ATOM DENSITY = 0.0675041 atoms/A^3
Info: ADDED 0 IMPLICIT EXCLUSIONS
Info: NONBONDED TABLE R-SQUARED SPACING: 0.0625
Info: NONBONDED TABLE SIZE: 705 POINTS
Info: REMOVING COM VELOCITY -0.0643734 0.0907381 0.000450068
TCL: Running for 100000 steps
ETITLE: TS BOND ANGLE DIHED IMPRP ELECT VDW BOUNDARY MISC KINETIC TOTAL TEMP POTENTIAL TOTAL3 TEMPAVG PRESSURE GPRESSURE VOLUME PRESSAVG GPRESSAVG
ENERGY: 0 0.0453 4.7637 9.1245 0.0000 -13536.9636 2357.2909 0.0000 0.0000 1649.5102 -9516.2290 283.9307 -11165.7392 -9515.9437 283.9307 294.4309 338.0828 43271.4155 294.4309 338.0828
ENERGY: 100000 0.0719 5.2328 9.3565 0.0000 -14156.4651 2510.9097 0.0000 0.0000 177.5874 -11453.3068 30.5682 -11630.8942 -11452.9076 30.8337 676.8954 729.5611 28129.1030 5.2554 5.2871
TCL: Running 100000 steps at 60 kelvin.
TCL: Setting parameter langevinTemp to 60
TCL: Running for 100000 steps
ETITLE: TS BOND ANGLE DIHED IMPRP ELECT VDW BOUNDARY MISC KINETIC TOTAL TEMP POTENTIAL TOTAL3 TEMPAVG PRESSURE GPRESSURE VOLUME PRESSAVG GPRESSAVG
ENERGY: 100000 0.0719 5.2328 9.3565 0.0000 -14156.4651 2510.9097 0.0000 0.0000 177.5017 -11453.3924 30.5534 -11630.8942 -11453.1151 30.5534 666.2906 729.4938 28129.1030 666.2906 729.4938
ENERGY: 200000 0.2537 5.3383 9.3194 0.0000 -14173.4114 2603.6932 0.0000 0.0000 354.2780 -11200.5287 60.9820 -11554.8067 -11200.0549 60.0701 1860.0116 1907.6808 27859.2472 3.7996 3.7480
TCL: Running 100000 steps at 90 kelvin.
TCL: Setting parameter langevinTemp to 90
TCL: Running for 100000 steps
ETITLE: TS BOND ANGLE DIHED IMPRP ELECT VDW BOUNDARY MISC KINETIC TOTAL TEMP POTENTIAL TOTAL3 TEMPAVG PRESSURE GPRESSURE VOLUME PRESSAVG GPRESSAVG
ENERGY: 200000 0.2537 5.3383 9.3194 0.0000 -14173.4114 2603.6932 0.0000 0.0000 354.1094 -11200.6973 60.9530 -11554.8067 -11200.0716 60.9530 1869.3874 1907.7309 27859.2472 1869.3874 1907.7309
ENERGY: 300000 0.1030 3.9373 11.4920 0.0000 -13822.8630 2354.2072 0.0000 0.0000 518.4900 -10934.6334 89.2478 -11453.1234 -10933.8112 89.9475 70.9695 124.1598 28207.1699 5.0762 4.8906
TCL: Running 100000 steps at 120 kelvin.
TCL: Setting parameter langevinTemp to 120
TCL: Running for 100000 steps
ETITLE: TS BOND ANGLE DIHED IMPRP ELECT VDW BOUNDARY MISC KINETIC TOTAL TEMP POTENTIAL TOTAL3 TEMPAVG PRESSURE GPRESSURE VOLUME PRESSAVG GPRESSAVG
ENERGY: 300000 0.1030 3.9373 11.4920 0.0000 -13822.8630 2354.2072 0.0000 0.0000 518.2450 -10934.8784 89.2057 -11453.1234 -10933.8146 89.2057 68.8971 123.7947 28207.1699 68.8971 123.7947
ENERGY: 400000 1.3290 6.3675 10.2443 0.0000 -13619.0217 2287.4539 0.0000 0.0000 684.4069 -10629.2201 117.8072 -11313.6269 -10628.6859 119.8411 20.6467 50.2233 28273.6506 5.2302 5.0443
TCL: Running 100000 steps at 150 kelvin.
TCL: Setting parameter langevinTemp to 150
TCL: Running for 100000 steps
ETITLE: TS BOND ANGLE DIHED IMPRP ELECT VDW BOUNDARY MISC KINETIC TOTAL TEMP POTENTIAL TOTAL3 TEMPAVG PRESSURE GPRESSURE VOLUME PRESSAVG GPRESSAVG
ENERGY: 400000 1.3290 6.3675 10.2443 0.0000 -13619.0217 2287.4539 0.0000 0.0000 684.0648 -10629.5621 117.7483 -11313.6269 -10628.4576 117.7483 -19.7450 49.3072 28273.6506 -19.7450 49.3072
ENERGY: 500000 0.5826 8.8406 8.9806 0.0000 -13410.0032 2250.3603 0.0000 0.0000 917.5998 -10223.6393 157.9467 -11141.2391 -10221.6307 150.2153 55.4694 153.9415 28643.5288 4.7260 4.8934
TCL: Running 100000 steps at 180 kelvin.
TCL: Setting parameter langevinTemp to 180
TCL: Running for 100000 steps
ETITLE: TS BOND ANGLE DIHED IMPRP ELECT VDW BOUNDARY MISC KINETIC TOTAL TEMP POTENTIAL TOTAL3 TEMPAVG PRESSURE GPRESSURE VOLUME PRESSAVG GPRESSAVG
ENERGY: 500000 0.5826 8.8406 8.9806 0.0000 -13410.0032 2250.3603 0.0000 0.0000 917.1645 -10224.0746 157.8718 -11141.2391 -10222.1753 157.8718 110.1384 153.6196 28643.5288 110.1384 153.6196
ENERGY: 600000 1.6886 7.6213 11.8986 0.0000 -13004.5881 2137.0733 0.0000 0.0000 1027.3731 -9818.9332 176.8420 -10846.3063 -9816.1021 179.6779 728.3084 762.1848 28004.7024 4.9086 4.8720
TCL: Running 100000 steps at 210 kelvin.
TCL: Setting parameter langevinTemp to 210
TCL: Running for 100000 steps
ETITLE: TS BOND ANGLE DIHED IMPRP ELECT VDW BOUNDARY MISC KINETIC TOTAL TEMP POTENTIAL TOTAL3 TEMPAVG PRESSURE GPRESSURE VOLUME PRESSAVG GPRESSAVG
ENERGY: 600000 1.6886 7.6213 11.8986 0.0000 -13004.5881 2137.0733 0.0000 0.0000 1026.8191 -9819.4872 176.7467 -10846.3063 -9817.3775 176.7467 701.7762 761.9848 28004.7024 701.7762 761.9848
ENERGY: 700000 2.0700 7.9236 9.0724 0.0000 -12184.1893 1789.2108 0.0000 0.0000 1220.7202 -9155.1923 210.1229 -10375.9125 -9153.4372 210.3171 -665.6192 -597.7743 28429.5933 3.3228 3.4198
TCL: Running 100000 steps at 240 kelvin.
TCL: Setting parameter langevinTemp to 240
TCL: Running for 100000 steps
ETITLE: TS BOND ANGLE DIHED IMPRP ELECT VDW BOUNDARY MISC KINETIC TOTAL TEMP POTENTIAL TOTAL3 TEMPAVG PRESSURE GPRESSURE VOLUME PRESSAVG GPRESSAVG
ENERGY: 700000 2.0700 7.9236 9.0724 0.0000 -12184.1893 1789.2108 0.0000 0.0000 1220.1165 -9155.7960 210.0190 -10375.9125 -9153.4059 210.0190 -681.0580 -600.2097 28429.5933 -681.0580 -600.2097
ENERGY: 800000 2.3794 9.5546 8.5827 0.0000 -11662.6348 1633.8978 0.0000 0.0000 1364.7073 -8643.5128 234.9075 -10008.2202 -8639.7450 239.5433 -811.6913 -672.3834 28613.1907 3.9281 3.9854
TCL: Running 100000 steps at 270 kelvin.
TCL: Setting parameter langevinTemp to 270
TCL: Running for 100000 steps
ETITLE: TS BOND ANGLE DIHED IMPRP ELECT VDW BOUNDARY MISC KINETIC TOTAL TEMP POTENTIAL TOTAL3 TEMPAVG PRESSURE GPRESSURE VOLUME PRESSAVG GPRESSAVG
ENERGY: 800000 2.3794 9.5546 8.5827 0.0000 -11662.6348 1633.8978 0.0000 0.0000 1364.0194 -8644.2008 234.7891 -10008.2202 -8641.4857 234.7891 -758.8284 -671.9760 28613.1907 -758.8284 -671.9760
ENERGY: 900000 1.6975 9.8917 8.8649 0.0000 -11124.3741 1555.6165 0.0000 0.0000 1554.4445 -7993.8589 267.5670 -9548.3034 -7989.6926 270.1432 41.8571 95.3222 29207.5032 3.6286 3.6389
TCL: Running 1000000 steps at 300 kelvin.
TCL: Setting parameter langevinTemp to 300
TCL: Running for 1000000 steps
ETITLE: TS BOND ANGLE DIHED IMPRP ELECT VDW BOUNDARY MISC KINETIC TOTAL TEMP POTENTIAL TOTAL3 TEMPAVG PRESSURE GPRESSURE VOLUME PRESSAVG GPRESSAVG
ENERGY: 900000 1.6975 9.8917 8.8649 0.0000 -11124.3741 1555.6165 0.0000 0.0000 1553.6878 -7994.6157 267.4367 -9548.3034 -7992.5269 267.4367 19.4345 95.4798 29207.5032 19.4345 95.4798
ENERGY: 1100000 1.5746 9.7971 9.1805 0.0000 -10675.5815 1472.2042 0.0000 0.0000 1777.9414 -7404.8838 306.0376 -9182.8252 -7402.6416 300.2714 444.7942 494.6408 29605.8831 3.8913 4.1308
ENERGY: 1300000 2.5987 14.7960 8.9509 0.0000 -10701.2842 1454.6922 0.0000 0.0000 1694.2971 -7525.9493 291.6399 -9220.2464 -7522.5428 300.1588 309.7182 364.7516 29575.8075 2.3385 2.3426
ENERGY: 1500000 0.7122 12.3056 10.5914 0.0000 -10471.3474 1346.5094 0.0000 0.0000 1769.2392 -7331.9895 304.5396 -9101.2287 -7329.1479 300.6624 -549.9899 -538.9581 30446.5073 2.4106 2.3655
ENERGY: 1700000 3.5699 12.4093 10.3442 0.0000 -10763.0830 1490.3813 0.0000 0.0000 1734.4325 -7511.9459 298.5484 -9246.3784 -7510.3810 300.2147 380.2438 510.5627 29664.4941 2.7919 2.9242
ENERGY: 1900000 1.1100 10.9241 8.8616 0.0000 -10616.4420 1412.4733 0.0000 0.0000 1708.6182 -7474.4547 294.1049 -9183.0730 -7469.4499 300.3650 -387.3675 -285.9230 30209.2365 2.9930 2.9982
TCL: Exiting due to exit command.
