Info: SIMULATION PARAMETERS:
Info: TIMESTEP               2
Info: NUMBER OF STEPS        0
Info: STEPS PER CYCLE        10
Info: PERIODIC CELL BASIS 1  31.4969 0 0
Info: PERIODIC CELL BASIS 2  0 31.9893 0
Info: PERIODIC CELL BASIS 3  0 0 30.0393
Info: PERIODIC CELL CENTER   0 0 0
Info: WRAPPING WATERS AROUND PERIODIC BOUNDARIES ON OUTPUT.
Info: WRAPPING ALL CLUSTERS AROUND PERIODIC BOUNDARIES ON OUTPUT.
Info: FIRST LDB TIMESTEP     50
Info: LAST LDB TIMESTEP     -1
Info: HOM BACKGROUND SCALING 1
Info: PME BACKGROUND SCALING 1
Info: MIN ATOMS PER PATCH    40
Info: EMPTY PATCH LOAD       40 ATOMS
Info: VELOCITY FILE          mobley_6474572_equil.vel
Info: CENTER OF MASS MOVING INITIALLY? NO
Info: DIELECTRIC             1
Info: EXCLUDE                SCALED ONE-FOUR
Info: 1-4 ELECTROSTATICS SCALED BY 0.833333
Info: MODIFIED 1-4 VDW PARAMETERS WILL BE USED
Info: DCD FILENAME           mobley_6474572_prod.dcd
Info: DCD FREQUENCY          100000
Info: DCD FIRST STEP         100000
Info: DCD FILE WILL CONTAIN UNIT CELL DATA
Info: XST FILENAME           mobley_6474572_prod.xst
Info: XST FREQUENCY          100000
Info: NO VELOCITY DCD OUTPUT
Info: NO FORCE DCD OUTPUT
Info: OUTPUT FILENAME        mobley_6474572_prod
Info: BINARY OUTPUT FILES WILL BE USED
Info: RESTART FILENAME       mobley_6474572_prod.restart
Info: RESTART FREQUENCY      100000
Info: BINARY RESTART FILES WILL BE USED
Info: CUTOFF                 9
Info: PAIRLIST DISTANCE      11
Info: PAIRLIST SHRINK RATE   0.01
Info: PAIRLIST GROW RATE     0.01
Info: PAIRLIST TRIGGER       0.3
Info: PAIRLISTS PER CYCLE    2
Info: PAIRLISTS ENABLED
Info: MARGIN                 2
Info: HYDROGEN GROUP CUTOFF  2.5
Info: PATCH DIMENSION        15.5
Info: ENERGY OUTPUT STEPS    100000
Info: ENERGY EVALUATION STEPS    100000
Info: OUTPUT ENERGY PRECISION 4
Info: CROSSTERM ENERGY INCLUDED IN DIHEDRAL
Info: TIMING OUTPUT STEPS    1000000
Info: PRESSURE OUTPUT STEPS  100000
Info: ALCHEMICAL FEP ON
Info: FEP CURRENT LAMBDA VALUE     0
Info: FEP COMPARISON LAMBDA VALUE  0.05
Info: FEP INTRA-ALCHEMICAL NON-BONDED INTERACTIONS WILL BE RETAINED
Info: FEP INTRA-ALCHEMICAL BONDED INTERACTIONS WILL BE RETAINED
Info: FEP VDW SHIFTING COEFFICIENT 5
Info: FEP ELEC. ACTIVE FOR ANNIHILATED PARTICLES BETWEEN LAMBDA = 0 AND LAMBDA = 0.5
Info: FEP ELEC. ACTIVE FOR EXNIHILATED PARTICLES BETWEEN LAMBDA = 0.5 AND LAMBDA = 1
Info: FEP VDW ACTIVE FOR ANNIHILATED PARTICLES BETWEEN LAMBDA = 0 AND LAMBDA = 1
Info: FEP VDW ACTIVE FOR EXNIHILATED PARTICLES BETWEEN LAMBDA = 0 AND LAMBDA = 1
Info: FEP BOND ACTIVE FOR ANNIHILATED PARTICLES BETWEEN LAMBDA = 1 AND LAMBDA = 1
Info: FEP BOND ACTIVE FOR EXNIHILATED PARTICLES BETWEEN LAMBDA = 0 AND LAMBDA = 0
Info: LANGEVIN DYNAMICS ACTIVE
Info: LANGEVIN TEMPERATURE   300
Info: LANGEVIN USING BBK INTEGRATOR
Info: LANGEVIN DAMPING COEFFICIENT IS 1 INVERSE PS
Info: LANGEVIN DYNAMICS APPLIED TO HYDROGENS
Info: LANGEVIN PISTON PRESSURE CONTROL ACTIVE
Info:        TARGET PRESSURE IS 1.01325 BAR
Info:     OSCILLATION PERIOD IS 50 FS
Info:             DECAY TIME IS 25 FS
Info:     PISTON TEMPERATURE IS 300 K
Info:       PRESSURE CONTROL IS GROUP-BASED
Info:    INITIAL STRAIN RATE IS 0.000186804 0.000186804 0.000186804
Info:       CELL FLUCTUATION IS ISOTROPIC
Info: PARTICLE MESH EWALD (PME) ACTIVE
Info: PME TOLERANCE               1e-06
Info: PME EWALD COEFFICIENT       0.348832
Info: PME INTERPOLATION ORDER     4
Info: PME GRID DIMENSIONS         32 32 32
Info: PME MAXIMUM GRID SPACING    1
Info: PME CALCULATION WILL BE PERFORMED ON GPU
Info: FULL ELECTROSTATIC EVALUATION FREQUENCY      2
Info: USING VERLET I (r-RESPA) MTS SCHEME.
Info: C1 SPLITTING OF LONG RANGE ELECTROSTATICS
Info: PLACING ATOMS IN PATCHES BY HYDROGEN GROUPS
Info: RIGID BONDS TO HYDROGEN : ALL
Info:         ERROR TOLERANCE : 1e-08
Info:          MAX ITERATIONS : 100
Info: RIGID WATER USING SETTLE ALGORITHM
Info: RANDOM NUMBER SEED     1743471128
Info: USE HYDROGEN BONDS?    NO
Info: Using AMBER format force field!
Info: AMBER PARM FILE        mobley_6474572.prmtop
Info: COORDINATE PDB         mobley_6474572.pdb
Info: Exclusions will be read from PARM file!
Info: SCNB (VDW SCALING)     2
Info: USING ARITHMETIC MEAN TO COMBINE L-J SIGMA PARAMETERS
Info: BINARY COORDINATES     mobley_6474572_equil.coor
Info: SUMMARY OF PARAMETERS:
Info: 6 BONDS
Info: 5 ANGLES
Info:   5 HARMONIC
Info:   0 COSINE-BASED
Info: 2 DIHEDRAL
Info: 0 IMPROPER
Info: 0 CROSSTERM
Info: 0 VDW
Info: 21 VDW_PAIRS
Info: 0 NBTHOLE_PAIRS
Info: To read alchdata from file: mobley_6474572.pdb
Info: To read alchflag data from column: 5
Info: STRUCTURE SUMMARY:
Info: 2919 ATOMS
Info: 2918 BONDS
Info: 6 ANGLES
Info: 6 DIHEDRALS
Info: 0 IMPROPERS
Info: 0 CROSSTERMS
Info: 2928 EXCLUSIONS
Info: 2916 RIGID BONDS
Info: ALCH: 0 ATOMS TO DISAPPEAR IN FINAL STATE
Info: ALCH: 6 ATOMS TO APPEAR IN FINAL STATE
Info: 5841 DEGREES OF FREEDOM
Info: 974 HYDROGEN GROUPS
Info: 3 ATOMS IN LARGEST HYDROGEN GROUP
Info: 974 MIGRATION GROUPS
Info: 3 ATOMS IN LARGEST MIGRATION GROUP
Info: TOTAL MASS = 17556 amu
Info: TOTAL CHARGE = 1.49012e-08 e
Info: MASS DENSITY = 0.963216 g/cm^3
Info: ATOM DENSITY = 0.0964433 atoms/A^3
Info: ADDED 0 IMPLICIT EXCLUSIONS
Info: NONBONDED TABLE R-SQUARED SPACING: 0.0625
Info: NONBONDED TABLE SIZE: 705 POINTS
Info: REDUCING NUMBER OF PATCHES TO IMPROVE LOAD BALANCE
Info: REMOVING COM VELOCITY 0.06952 -0.184072 -0.114382
Info: Use 3D box decompostion in PME FFT.
Info: Updated CUDA force table with 4096 elements.
Info: Updated CUDA LJ table with 6 x 6 elements.
Info: Found 9 unique exclusion lists needing 12 bytes
TCL: Running for 1500000 steps
ETITLE: TS BOND ANGLE DIHED IMPRP ELECT VDW BOUNDARY MISC KINETIC TOTAL TEMP POTENTIAL TOTALAVG TEMPAVG PRESSURE GPRESSURE VOLUME PRESSAVG GPRESSAVG
ENERGY: 0 1.7667 0.3493 0.6343 0.0000 -10627.9646 1505.8182 0.0000 0.0000 1825.6906 -7293.7055 314.5795 -9119.3961 -7293.7055 314.5795 618.1133 704.6646 30266.4837 618.1133 704.6646
ENERGY: 300000 0.1394 3.8904 0.2351 0.0000 -10533.4754 1404.5351 0.0000 0.0000 1773.4282 -7351.2472 305.5743 -9124.6754 -7344.2608 305.8102 52.7644 68.9796 30000.2041 -98.1636 -37.7627
ENERGY: 600000 0.3426 0.8759 0.7953 0.0000 -10618.9617 1417.2800 0.0000 0.0000 1755.9908 -7443.6772 302.5697 -9199.6679 -7387.3533 302.7968 -408.9923 -307.7346 30444.5163 -261.8375 -194.8884
ENERGY: 900000 0.0274 2.2630 1.2415 0.0000 -10548.8106 1404.7054 0.0000 0.0000 1742.7691 -7397.8043 300.2915 -9140.5733 -7386.1643 303.4717 -51.0356 57.9502 30016.4343 -70.3286 -1.2856
ENERGY: 1200000 0.0993 3.0329 0.5557 0.0000 -10684.2477 1451.2242 0.0000 0.0000 1794.8397 -7434.4960 309.2636 -9229.3357 -7386.4448 303.5117 -91.0477 11.9080 30081.5127 7.6166 78.9309
ENERGY: 1500000 0.1094 1.0287 1.2357 0.0000 -10637.9994 1450.3479 0.0000 0.0000 1775.9517 -7409.3261 306.0091 -9185.2778 -7391.7806 303.3428 518.3137 570.6245 29383.3406 45.4181 115.6964
TCL: Running FEP window   2: Lambda1 0.05   Lambda2 0.1    [dLambda 0.05  ]
TCL: Setting parameter firsttimestep to 0
TCL: Setting parameter alchLambda to 0.05
Info: NONBONDED TABLE R-SQUARED SPACING: 0.0625
Info: NONBONDED TABLE SIZE: 705 POINTS
TCL: Setting parameter alchLambda2 to 0.1
Info: NONBONDED TABLE R-SQUARED SPACING: 0.0625
Info: NONBONDED TABLE SIZE: 705 POINTS
TCL: Running for 1500000 steps
ETITLE: TS BOND ANGLE DIHED IMPRP ELECT VDW BOUNDARY MISC KINETIC TOTAL TEMP POTENTIAL TOTALAVG TEMPAVG PRESSURE GPRESSURE VOLUME PRESSAVG GPRESSAVG
ENERGY: 0 0.1094 1.0287 1.2357 0.0000 -10638.0001 1450.9337 0.0000 0.0000 1775.0617 -7409.6310 305.8557 -9184.6927 -7409.6310 305.8557 496.5102 574.6913 29383.3406 496.5102 574.6913
ENERGY: 300000 0.1259 1.1926 0.1964 0.0000 -10670.3765 1494.1016 0.0000 0.0000 1713.5069 -7461.2531 295.2494 -9174.7600 -7397.3434 302.6252 469.3440 503.0571 30144.0901 248.8429 291.0439
ENERGY: 600000 0.1521 1.3068 0.6951 0.0000 -10556.3513 1427.6208 0.0000 0.0000 1764.4547 -7362.1218 304.0281 -9126.5765 -7396.9043 303.2474 111.5598 193.5142 29934.7013 252.7395 308.2719
ENERGY: 900000 0.2455 0.7720 0.5365 0.0000 -10512.7403 1357.8275 0.0000 0.0000 1760.3802 -7392.9785 303.3260 -9153.3587 -7402.0407 302.3404 -556.3273 -548.4536 30063.8777 153.8265 213.1154
ENERGY: 1200000 0.1601 0.5872 1.9304 0.0000 -10544.6408 1325.3743 0.0000 0.0000 1720.1612 -7496.4274 296.3960 -9216.5887 -7416.0693 301.2881 -667.9483 -691.3852 29727.7995 -94.9983 -41.6952
ENERGY: 1500000 0.2865 1.0380 1.0856 0.0000 -10534.0881 1383.9922 0.0000 0.0000 1782.1168 -7365.5689 307.0714 -9147.6857 -7410.1271 301.9404 -113.4506 -74.9379 29896.4976 -154.4279 -99.7465
TCL: Running FEP window   3: Lambda1 0.1    Lambda2 0.15000000000000002 [dLambda 0.05000000000000002]
TCL: Setting parameter firsttimestep to 0
TCL: Setting parameter alchLambda to 0.1
Info: NONBONDED TABLE R-SQUARED SPACING: 0.0625
Info: NONBONDED TABLE SIZE: 705 POINTS
TCL: Setting parameter alchLambda2 to 0.15000000000000002
Info: NONBONDED TABLE R-SQUARED SPACING: 0.0625
Info: NONBONDED TABLE SIZE: 705 POINTS
TCL: Running for 1500000 steps
ETITLE: TS BOND ANGLE DIHED IMPRP ELECT VDW BOUNDARY MISC KINETIC TOTAL TEMP POTENTIAL TOTALAVG TEMPAVG PRESSURE GPRESSURE VOLUME PRESSAVG GPRESSAVG
ENERGY: 0 0.2865 1.0380 1.0856 0.0000 -10534.0881 1384.3582 0.0000 0.0000 1781.2535 -7366.0662 306.9226 -9147.3197 -7366.0662 306.9226 -146.6199 -73.6464 29896.4976 -146.6199 -73.6464
ENERGY: 300000 0.8762 0.3600 0.6085 0.0000 -10645.3747 1367.7221 0.0000 0.0000 1738.9317 -7536.8762 299.6303 -9275.8079 -7443.5239 301.2396 -811.2105 -700.5701 29718.9664 -376.4790 -282.2724
ENERGY: 600000 0.2859 0.9589 1.7618 0.0000 -10503.7727 1424.3562 0.0000 0.0000 1682.2980 -7394.1119 289.8719 -9076.4099 -7421.3346 298.7157 -127.7464 -121.5910 30555.0881 -286.0406 -212.5532
ENERGY: 900000 0.4736 1.6307 0.6161 0.0000 -10673.9702 1442.0117 0.0000 0.0000 1771.0864 -7458.1517 305.1708 -9229.2381 -7412.2359 300.8843 125.2756 172.4458 29725.9243 -206.3085 -133.6754
ENERGY: 1200000 1.1203 0.0438 0.2230 0.0000 -10509.4692 1345.9147 0.0000 0.0000 1730.4456 -7431.7218 298.1681 -9162.1674 -7407.5389 301.3717 -580.8502 -564.9686 30234.4286 -263.8396 -195.7731
ENERGY: 1500000 1.3347 2.2531 1.4796 0.0000 -10677.6401 1418.9779 0.0000 0.0000 1715.8870 -7537.7078 295.6595 -9253.5948 -7420.9617 300.9027 -472.3176 -413.8004 30394.3616 -183.1141 -122.4805
TCL: Running FEP window   4: Lambda1 0.15000000000000002 Lambda2 0.2    [dLambda 0.04999999999999999]
TCL: Setting parameter firsttimestep to 0
TCL: Setting parameter alchLambda to 0.15000000000000002
Info: NONBONDED TABLE R-SQUARED SPACING: 0.0625
Info: NONBONDED TABLE SIZE: 705 POINTS
TCL: Setting parameter alchLambda2 to 0.2
Info: NONBONDED TABLE R-SQUARED SPACING: 0.0625
Info: NONBONDED TABLE SIZE: 705 POINTS
TCL: Running for 1500000 steps
ETITLE: TS BOND ANGLE DIHED IMPRP ELECT VDW BOUNDARY MISC KINETIC TOTAL TEMP POTENTIAL TOTALAVG TEMPAVG PRESSURE GPRESSURE VOLUME PRESSAVG GPRESSAVG
ENERGY: 0 1.3347 2.2531 1.4796 0.0000 -10677.6385 1420.1604 0.0000 0.0000 1715.0593 -7537.3513 295.5169 -9252.4106 -7537.3513 295.5169 -492.2398 -408.9282 30394.3616 -492.2398 -408.9282
ENERGY: 300000 0.6507 1.0936 0.6775 0.0000 -10655.5886 1418.5408 0.0000 0.0000 1761.4176 -7473.2084 303.5048 -9234.6260 -7483.6327 298.3753 -528.6498 -432.9366 30506.9159 -383.8336 -301.9050
ENERGY: 600000 0.4083 0.8567 0.1896 0.0000 -10653.1739 1452.8934 0.0000 0.0000 1705.0239 -7493.8020 293.7877 -9198.8259 -7457.4603 298.3377 164.6530 153.3018 30080.1732 -171.0000 -102.3110
ENERGY: 900000 0.0450 0.4976 0.1053 0.0000 -10575.7184 1426.6624 0.0000 0.0000 1729.1297 -7419.2784 297.9413 -9148.4081 -7446.0044 297.6148 -231.8296 -146.4498 30505.3016 -215.0420 -147.9592
ENERGY: 1200000 2.5047 2.5760 1.2667 0.0000 -10621.7767 1430.0913 0.0000 0.0000 1759.0779 -7426.2601 303.1016 -9185.3380 -7436.2616 298.2378 -161.6982 -95.2096 30244.5280 -194.6166 -125.9039
ENERGY: 1500000 0.0812 1.3210 1.0767 0.0000 -10763.4303 1567.3741 0.0000 0.0000 1744.6538 -7448.9236 300.6162 -9193.5774 -7430.6985 299.1251 1102.9564 1122.0345 29849.2634 -120.2578 -51.3511
TCL: Running FEP window   5: Lambda1 0.2    Lambda2 0.25   [dLambda 0.04999999999999999]
TCL: Setting parameter firsttimestep to 0
TCL: Setting parameter alchLambda to 0.2
Info: NONBONDED TABLE R-SQUARED SPACING: 0.0625
Info: NONBONDED TABLE SIZE: 705 POINTS
TCL: Setting parameter alchLambda2 to 0.25
Info: NONBONDED TABLE R-SQUARED SPACING: 0.0625
Info: NONBONDED TABLE SIZE: 705 POINTS
TCL: Running for 1500000 steps
ETITLE: TS BOND ANGLE DIHED IMPRP ELECT VDW BOUNDARY MISC KINETIC TOTAL TEMP POTENTIAL TOTALAVG TEMPAVG PRESSURE GPRESSURE VOLUME PRESSAVG GPRESSAVG
ENERGY: 0 0.0812 1.3210 1.0767 0.0000 -10763.4312 1567.2871 0.0000 0.0000 1743.7484 -7449.9169 300.4602 -9193.6653 -7449.9169 300.4602 1057.4934 1122.1189 29849.2634 1057.4934 1122.1189
ENERGY: 300000 0.0494 0.7555 1.8521 0.0000 -10695.1180 1469.6793 0.0000 0.0000 1739.7349 -7483.0469 299.7687 -9222.7818 -7476.8926 302.1821 346.6958 373.8169 29723.3604 577.2848 637.0859
ENERGY: 600000 0.0664 2.1296 1.0440 0.0000 -10542.1529 1381.3192 0.0000 0.0000 1772.2760 -7385.3177 305.3757 -9157.5937 -7453.3599 301.1036 -339.7426 -288.6715 30056.5808 378.9358 437.3282
ENERGY: 900000 0.6205 2.8921 0.6932 0.0000 -10587.0023 1454.7389 0.0000 0.0000 1773.6450 -7354.4124 305.6116 -9128.0575 -7441.3968 301.0855 434.0197 520.1863 29804.9861 166.2127 228.1734
ENERGY: 1200000 0.7863 2.0275 0.8642 0.0000 -10647.1143 1479.7288 0.0000 0.0000 1747.1591 -7416.5483 301.0479 -9163.7074 -7438.9640 300.2648 293.2159 405.6374 30167.8993 155.8074 224.2557
ENERGY: 1500000 1.7998 1.4998 0.5593 0.0000 -10756.7640 1487.4747 0.0000 0.0000 1740.3891 -7525.0412 299.8814 -9265.4303 -7451.2197 300.4428 426.8244 469.5758 29504.0069 173.4731 235.7161
TCL: Running FEP window   6: Lambda1 0.25   Lambda2 0.3    [dLambda 0.04999999999999999]
TCL: Setting parameter firsttimestep to 0
TCL: Setting parameter alchLambda to 0.25
Info: NONBONDED TABLE R-SQUARED SPACING: 0.0625
Info: NONBONDED TABLE SIZE: 705 POINTS
TCL: Setting parameter alchLambda2 to 0.3
Info: NONBONDED TABLE R-SQUARED SPACING: 0.0625
Info: NONBONDED TABLE SIZE: 705 POINTS
TCL: Running for 1500000 steps
ETITLE: TS BOND ANGLE DIHED IMPRP ELECT VDW BOUNDARY MISC KINETIC TOTAL TEMP POTENTIAL TOTALAVG TEMPAVG PRESSURE GPRESSURE VOLUME PRESSAVG GPRESSAVG
ENERGY: 0 1.7998 1.4998 0.5593 0.0000 -10756.7639 1488.1735 0.0000 0.0000 1739.4895 -7525.2419 299.7264 -9264.7314 -7525.2419 299.7264 396.5031 477.1957 29504.0069 396.5031 477.1957
ENERGY: 300000 0.1642 0.9534 1.0681 0.0000 -10597.9380 1431.6255 0.0000 0.0000 1776.6675 -7387.4593 306.1324 -9164.1268 -7460.9153 300.2735 -225.2380 -197.3494 30648.8255 -216.1902 -121.9128
ENERGY: 600000 0.6600 0.5634 1.6744 0.0000 -10609.8680 1420.4837 0.0000 0.0000 1790.6071 -7395.8794 308.5343 -9186.4865 -7425.6458 303.4311 -27.8785 6.1452 29687.2169 -45.2248 26.3531
ENERGY: 900000 0.6027 1.3341 0.2877 0.0000 -10645.9837 1438.1968 0.0000 0.0000 1782.4863 -7423.0760 307.1350 -9205.5623 -7433.3452 303.1378 243.2621 243.1700 29729.9248 39.6843 112.5790
ENERGY: 1200000 0.1666 1.8223 0.5215 0.0000 -10762.8720 1517.0628 0.0000 0.0000 1803.4814 -7439.8175 310.7527 -9243.2989 -7436.7796 303.1767 539.6573 652.1858 29760.2676 66.1045 128.7521
ENERGY: 1500000 0.0261 0.4410 3.1290 0.0000 -10531.8906 1311.6985 0.0000 0.0000 1727.8901 -7488.7059 297.7277 -9216.5960 -7440.6093 302.0055 -990.3132 -999.8782 30154.4819 -29.5578 32.3644
TCL: Running FEP window   7: Lambda1 0.3    Lambda2 0.35   [dLambda 0.04999999999999999]
TCL: Setting parameter firsttimestep to 0
TCL: Setting parameter alchLambda to 0.3
Info: NONBONDED TABLE R-SQUARED SPACING: 0.0625
Info: NONBONDED TABLE SIZE: 705 POINTS
TCL: Setting parameter alchLambda2 to 0.35
Info: NONBONDED TABLE R-SQUARED SPACING: 0.0625
Info: NONBONDED TABLE SIZE: 705 POINTS
TCL: Running for 1500000 steps
ETITLE: TS BOND ANGLE DIHED IMPRP ELECT VDW BOUNDARY MISC KINETIC TOTAL TEMP POTENTIAL TOTALAVG TEMPAVG PRESSURE GPRESSURE VOLUME PRESSAVG GPRESSAVG
ENERGY: 0 0.0261 0.4410 3.1290 0.0000 -10531.8904 1311.4970 0.0000 0.0000 1726.9953 -7489.8019 297.5736 -9216.7972 -7489.8019 297.5736 -1074.3515 -997.2475 30154.4819 -1074.3515 -997.2475
ENERGY: 300000 0.2113 0.1817 3.4140 0.0000 -10813.3337 1532.8520 0.0000 0.0000 1732.8907 -7543.7841 298.5894 -9276.6748 -7445.1732 299.4672 596.4956 625.2218 29800.3497 -276.2257 -219.0709
ENERGY: 600000 0.3639 1.0950 1.9206 0.0000 -10493.8739 1396.5119 0.0000 0.0000 1696.3767 -7397.6059 292.2978 -9093.9826 -7437.7850 297.6208 -125.4603 -137.0461 30255.8398 -174.0346 -135.9171
ENERGY: 900000 0.1124 1.1239 0.5173 0.0000 -10649.6097 1444.9337 0.0000 0.0000 1778.5409 -7424.3815 306.4552 -9202.9224 -7448.5339 298.5376 302.0363 310.2191 29622.0150 -66.0333 -29.9975
ENERGY: 1200000 2.0250 1.2417 0.0894 0.0000 -10618.5501 1448.4209 0.0000 0.0000 1673.7689 -7493.0043 288.4023 -9166.7732 -7460.2671 297.4344 144.3276 170.7139 29905.6149 -33.8638 5.6698
ENERGY: 1500000 1.3401 1.5142 1.6031 0.0000 -10737.9191 1451.2291 0.0000 0.0000 1763.4243 -7518.8084 303.8505 -9282.2326 -7452.7508 298.5958 -76.6716 -96.5658 30070.7702 -37.9197 -4.7699
TCL: Running FEP window   8: Lambda1 0.35   Lambda2 0.39999999999999997 [dLambda 0.04999999999999999]
TCL: Setting parameter firsttimestep to 0
TCL: Setting parameter alchLambda to 0.35
Info: NONBONDED TABLE R-SQUARED SPACING: 0.0625
Info: NONBONDED TABLE SIZE: 705 POINTS
TCL: Setting parameter alchLambda2 to 0.39999999999999997
Info: NONBONDED TABLE R-SQUARED SPACING: 0.0625
Info: NONBONDED TABLE SIZE: 705 POINTS
TCL: Running for 1500000 steps
ETITLE: TS BOND ANGLE DIHED IMPRP ELECT VDW BOUNDARY MISC KINETIC TOTAL TEMP POTENTIAL TOTALAVG TEMPAVG PRESSURE GPRESSURE VOLUME PRESSAVG GPRESSAVG
ENERGY: 0 1.3401 1.5142 1.6031 0.0000 -10737.9180 1450.9584 0.0000 0.0000 1762.5578 -7519.9444 303.7012 -9282.5022 -7519.9444 303.7012 -166.4063 -96.0316 30070.7702 -166.4063 -96.0316
ENERGY: 300000 0.0126 0.6960 1.9161 0.0000 -10467.4846 1345.8520 0.0000 0.0000 1701.2966 -7417.7113 293.1455 -9119.0080 -7466.7631 299.4688 -574.8513 -544.2518 30240.4664 -27.4064 23.4563
ENERGY: 600000 0.2805 4.9358 1.9735 0.0000 -10580.8026 1415.4910 0.0000 0.0000 1746.7188 -7411.4031 300.9721 -9158.1218 -7455.9082 300.1973 -183.0344 -87.4926 29975.7990 -39.5872 29.7140
ENERGY: 900000 0.2431 2.4009 0.9388 0.0000 -10541.0512 1357.7215 0.0000 0.0000 1728.6932 -7451.0539 297.8661 -9179.7470 -7455.1869 299.1032 -860.4243 -717.7497 30480.5427 -81.2965 -2.7180
ENERGY: 1200000 1.5190 0.8688 0.8376 0.0000 -10679.6195 1483.7284 0.0000 0.0000 1717.0538 -7475.6119 295.8606 -9192.6657 -7460.0830 298.8774 576.9202 608.1215 29805.8234 48.6242 128.4940
ENERGY: 1500000 0.4652 2.0108 0.4151 0.0000 -10696.9338 1430.4637 0.0000 0.0000 1711.7356 -7551.8434 294.9442 -9263.5790 -7461.8341 298.2485 -233.4749 -151.4596 29832.2306 4.6857 86.0565
TCL: Running FEP window   9: Lambda1 0.39999999999999997 Lambda2 0.44999999999999996 [dLambda 0.04999999999999999]
TCL: Setting parameter firsttimestep to 0
TCL: Setting parameter alchLambda to 0.39999999999999997
Info: NONBONDED TABLE R-SQUARED SPACING: 0.0625
Info: NONBONDED TABLE SIZE: 705 POINTS
TCL: Setting parameter alchLambda2 to 0.44999999999999996
Info: NONBONDED TABLE R-SQUARED SPACING: 0.0625
Info: NONBONDED TABLE SIZE: 705 POINTS
TCL: Running for 1500000 steps
ETITLE: TS BOND ANGLE DIHED IMPRP ELECT VDW BOUNDARY MISC KINETIC TOTAL TEMP POTENTIAL TOTALAVG TEMPAVG PRESSURE GPRESSURE VOLUME PRESSAVG GPRESSAVG
ENERGY: 0 0.4652 2.0108 0.4151 0.0000 -10696.9340 1430.3133 0.0000 0.0000 1710.8399 -7552.8896 294.7899 -9263.7295 -7552.8896 294.7899 -241.8714 -147.5153 29832.2306 -241.8714 -147.5153
ENERGY: 300000 0.4174 1.9011 0.4885 0.0000 -10665.8423 1453.4567 0.0000 0.0000 1723.0233 -7486.5553 296.8892 -9209.5786 -7442.2617 300.2698 -40.5481 -52.7845 30291.6361 -83.0466 -44.8629
ENERGY: 600000 0.0803 0.9214 0.3822 0.0000 -10741.0835 1534.1045 0.0000 0.0000 1715.7864 -7489.8088 295.6422 -9205.5952 -7480.5669 298.4974 744.8679 769.5844 29948.6434 -30.2220 39.9082
ENERGY: 900000 0.7200 1.5337 1.1945 0.0000 -10640.4714 1426.5657 0.0000 0.0000 1739.6074 -7470.8500 299.7467 -9210.4575 -7462.8608 299.5894 -245.3305 -209.5879 30410.9921 -10.1395 55.2323
ENERGY: 1200000 1.1117 1.8763 1.5422 0.0000 -10544.1084 1414.0672 0.0000 0.0000 1736.6691 -7388.8419 299.2404 -9125.5110 -7455.5431 299.0634 -54.8137 -62.2521 30521.1826 -78.5514 -16.8137
ENERGY: 1500000 0.8802 1.1964 0.7128 0.0000 -10693.2788 1448.9308 0.0000 0.0000 1729.6170 -7511.9415 298.0253 -9241.5585 -7452.9296 299.3684 177.4503 257.3328 29692.0801 -62.4100 1.7956
TCL: Running FEP window  10: Lambda1 0.44999999999999996 Lambda2 0.49999999999999994 [dLambda 0.04999999999999999]
TCL: Setting parameter firsttimestep to 0
TCL: Setting parameter alchLambda to 0.44999999999999996
Info: NONBONDED TABLE R-SQUARED SPACING: 0.0625
Info: NONBONDED TABLE SIZE: 705 POINTS
TCL: Setting parameter alchLambda2 to 0.49999999999999994
Info: NONBONDED TABLE R-SQUARED SPACING: 0.0625
Info: NONBONDED TABLE SIZE: 705 POINTS
TCL: Running for 1500000 steps
ETITLE: TS BOND ANGLE DIHED IMPRP ELECT VDW BOUNDARY MISC KINETIC TOTAL TEMP POTENTIAL TOTALAVG TEMPAVG PRESSURE GPRESSURE VOLUME PRESSAVG GPRESSAVG
ENERGY: 0 0.8802 1.1964 0.7128 0.0000 -10693.2774 1448.8108 0.0000 0.0000 1728.7786 -7512.8986 297.8808 -9241.6772 -7512.8986 297.8808 175.4975 258.3197 29692.0801 175.4975 258.3197
ENERGY: 300000 0.5423 1.4049 0.8011 0.0000 -10614.5261 1442.3130 0.0000 0.0000 1782.6627 -7386.8020 307.1655 -9169.4648 -7469.6213 300.3125 229.5290 310.7553 29909.0782 -160.2704 -91.2106
ENERGY: 600000 0.9477 1.5537 0.2712 0.0000 -10588.8718 1405.5328 0.0000 0.0000 1752.4139 -7428.1526 301.9534 -9180.5665 -7445.3638 301.2708 -182.8919 -80.8567 29787.9944 -55.3059 19.0426
ENERGY: 900000 0.0837 1.6965 0.6163 0.0000 -10700.4713 1447.4762 0.0000 0.0000 1773.8876 -7476.7109 305.6534 -9250.5985 -7461.0892 302.1531 106.3721 139.1519 29887.4962 43.6773 107.4190
ENERGY: 1200000 0.0026 1.5422 0.6151 0.0000 -10664.6248 1412.9503 0.0000 0.0000 1799.5858 -7449.9287 310.0814 -9249.5145 -7449.2493 302.7166 -374.8347 -296.0310 30097.5156 68.2422 122.0775
ENERGY: 1500000 1.0571 2.5621 0.5262 0.0000 -10556.9739 1450.8870 0.0000 0.0000 1802.4672 -7299.4743 310.5779 -9101.9415 -7444.2287 302.2891 349.9095 455.1839 30047.8114 105.4655 164.9048
TCL: Running FEP window  11: Lambda1 0.49999999999999994 Lambda2 0.5499999999999999 [dLambda 0.04999999999999999]
TCL: Setting parameter firsttimestep to 0
TCL: Setting parameter alchLambda to 0.49999999999999994
Info: NONBONDED TABLE R-SQUARED SPACING: 0.0625
Info: NONBONDED TABLE SIZE: 705 POINTS
TCL: Setting parameter alchLambda2 to 0.5499999999999999
Info: NONBONDED TABLE R-SQUARED SPACING: 0.0625
Info: NONBONDED TABLE SIZE: 705 POINTS
TCL: Running for 1500000 steps
ETITLE: TS BOND ANGLE DIHED IMPRP ELECT VDW BOUNDARY MISC KINETIC TOTAL TEMP POTENTIAL TOTALAVG TEMPAVG PRESSURE GPRESSURE VOLUME PRESSAVG GPRESSAVG
ENERGY: 0 1.0571 2.5621 0.5262 0.0000 -10556.9740 1450.9211 0.0000 0.0000 1801.6066 -7300.3008 310.4296 -9101.9074 -7300.3008 310.4296 389.4894 459.2933 30047.8114 389.4894 459.2933
ENERGY: 300000 0.3860 1.5306 0.5384 0.0000 -10659.4744 1470.2437 0.0000 0.0000 1719.0043 -7467.7713 296.1966 -9186.7756 -7430.1666 301.5790 7.5217 83.7910 30498.7135 -50.9545 20.7894
ENERGY: 600000 0.4966 0.4072 1.6833 0.0000 -10573.7981 1363.7782 0.0000 0.0000 1755.4001 -7452.0328 302.4679 -9207.4329 -7437.8516 301.1543 -512.9720 -463.2560 30017.1873 -0.1890 62.6048
ENERGY: 900000 0.4640 2.1603 2.6588 0.0000 -10540.4143 1404.9629 0.0000 0.0000 1774.3040 -7355.8644 305.7252 -9130.1683 -7425.2673 300.5747 78.3804 144.0138 30034.5091 -14.2482 49.6012
ENERGY: 1200000 0.4240 0.8303 0.6675 0.0000 -10556.5120 1431.8354 0.0000 0.0000 1701.6156 -7421.1393 293.2005 -9122.7548 -7427.4513 300.8077 158.8704 234.7644 30101.6448 100.7300 170.1332
ENERGY: 1500000 1.7147 1.0597 0.6238 0.0000 -10762.4563 1527.5206 0.0000 0.0000 1757.2884 -7474.2491 302.7933 -9231.5375 -7428.5370 301.1788 928.8419 982.9593 29455.7601 202.7400 267.3566
TCL: Running FEP window  12: Lambda1 0.5499999999999999 Lambda2 0.6    [dLambda 0.050000000000000044]
TCL: Setting parameter firsttimestep to 0
TCL: Setting parameter alchLambda to 0.5499999999999999
Info: NONBONDED TABLE R-SQUARED SPACING: 0.0625
Info: NONBONDED TABLE SIZE: 705 POINTS
TCL: Setting parameter alchLambda2 to 0.6
Info: NONBONDED TABLE R-SQUARED SPACING: 0.0625
Info: NONBONDED TABLE SIZE: 705 POINTS
TCL: Running for 1500000 steps
ETITLE: TS BOND ANGLE DIHED IMPRP ELECT VDW BOUNDARY MISC KINETIC TOTAL TEMP POTENTIAL TOTALAVG TEMPAVG PRESSURE GPRESSURE VOLUME PRESSAVG GPRESSAVG
ENERGY: 0 1.7147 1.0597 0.6238 0.0000 -10762.7404 1528.0740 0.0000 0.0000 1756.3970 -7474.8712 302.6397 -9231.2682 -7474.8712 302.6397 906.1313 991.7429 29455.7601 906.1313 991.7429
ENERGY: 300000 0.9132 0.9756 0.8041 0.0000 -10593.1989 1434.1784 0.0000 0.0000 1747.2837 -7409.0439 301.0694 -9156.3276 -7425.6373 303.2290 180.8057 253.7101 29981.7000 116.7281 198.8672
ENERGY: 600000 0.2447 1.4962 0.2325 0.0000 -10607.1438 1404.9818 0.0000 0.0000 1776.0052 -7424.1833 306.0183 -9200.1885 -7434.8421 301.2840 -268.5976 -249.3112 30267.1647 -247.3850 -190.0685
ENERGY: 900000 0.0927 1.0891 0.9966 0.0000 -10516.7958 1340.5680 0.0000 0.0000 1759.3453 -7414.7041 303.1477 -9174.0494 -7428.6560 301.9551 -411.3418 -356.4297 29610.9550 -189.2816 -117.8261
ENERGY: 1200000 0.7560 0.9940 0.9522 0.0000 -10582.1853 1416.5017 0.0000 0.0000 1775.2510 -7387.7304 305.8883 -9162.9814 -7411.8461 302.8739 -237.3541 -180.9922 30417.0231 -145.4987 -71.0560
ENERGY: 1500000 0.6707 1.8068 1.2134 0.0000 -10454.1555 1350.0260 0.0000 0.0000 1737.7334 -7362.7051 299.4238 -9100.4386 -7412.6807 302.1699 -537.3236 -395.3431 30179.1380 -185.8699 -112.4479
TCL: Running FEP window  13: Lambda1 0.6    Lambda2 0.65   [dLambda 0.050000000000000044]
TCL: Setting parameter firsttimestep to 0
TCL: Setting parameter alchLambda to 0.6
Info: NONBONDED TABLE R-SQUARED SPACING: 0.0625
Info: NONBONDED TABLE SIZE: 705 POINTS
TCL: Setting parameter alchLambda2 to 0.65
Info: NONBONDED TABLE R-SQUARED SPACING: 0.0625
Info: NONBONDED TABLE SIZE: 705 POINTS
TCL: Running for 1500000 steps
ETITLE: TS BOND ANGLE DIHED IMPRP ELECT VDW BOUNDARY MISC KINETIC TOTAL TEMP POTENTIAL TOTALAVG TEMPAVG PRESSURE GPRESSURE VOLUME PRESSAVG GPRESSAVG
ENERGY: 0 0.6707 1.8068 1.2134 0.0000 -10454.1787 1349.9940 0.0000 0.0000 1736.8742 -7363.6196 299.2758 -9100.4938 -7363.6196 299.2758 -483.7747 -389.7535 30179.1380 -483.7747 -389.7535
ENERGY: 300000 0.8215 1.2311 3.7367 0.0000 -10671.7542 1435.7845 0.0000 0.0000 1740.6215 -7489.5588 299.9215 -9230.1804 -7444.7013 299.1688 -222.3919 -65.6184 29979.0093 -423.1744 -329.5748
ENERGY: 600000 0.7935 1.1198 0.3577 0.0000 -10701.2767 1479.2540 0.0000 0.0000 1726.9208 -7492.8311 297.5607 -9219.7518 -7471.7611 298.3624 419.7816 481.3512 30083.4252 -172.2713 -100.4964
ENERGY: 900000 2.3062 1.2529 0.1116 0.0000 -10674.1396 1514.9947 0.0000 0.0000 1730.0607 -7425.4135 298.1017 -9155.4742 -7458.8584 299.2726 647.3768 732.4928 30270.1389 -218.0034 -163.2889
ENERGY: 1200000 0.2867 1.4717 1.9636 0.0000 -10598.8496 1447.7287 0.0000 0.0000 1719.9257 -7427.4732 296.3554 -9147.3989 -7450.7159 299.2892 146.6040 167.2151 30402.8056 -115.1027 -68.9644
ENERGY: 1500000 0.7450 4.4720 0.8754 0.0000 -10506.7318 1338.8229 0.0000 0.0000 1788.2995 -7373.5170 308.1367 -9161.8165 -7432.4438 299.8953 -499.1789 -443.6755 29914.7989 -161.7105 -113.1936
TCL: Running FEP window  14: Lambda1 0.65   Lambda2 0.7000000000000001 [dLambda 0.050000000000000044]
TCL: Setting parameter firsttimestep to 0
TCL: Setting parameter alchLambda to 0.65
Info: NONBONDED TABLE R-SQUARED SPACING: 0.0625
Info: NONBONDED TABLE SIZE: 705 POINTS
TCL: Setting parameter alchLambda2 to 0.7000000000000001
Info: NONBONDED TABLE R-SQUARED SPACING: 0.0625
Info: NONBONDED TABLE SIZE: 705 POINTS
TCL: Running for 1500000 steps
ETITLE: TS BOND ANGLE DIHED IMPRP ELECT VDW BOUNDARY MISC KINETIC TOTAL TEMP POTENTIAL TOTALAVG TEMPAVG PRESSURE GPRESSURE VOLUME PRESSAVG GPRESSAVG
ENERGY: 0 0.7450 4.4720 0.8754 0.0000 -10506.6190 1339.2403 0.0000 0.0000 1787.4532 -7373.8330 307.9909 -9161.2863 -7373.8330 307.9909 -533.4275 -434.8963 29914.7989 -533.4275 -434.8963
ENERGY: 300000 0.7722 1.9137 0.5547 0.0000 -10725.0024 1550.6341 0.0000 0.0000 1695.8595 -7475.2683 292.2086 -9171.1278 -7422.8072 301.8240 1128.2154 1222.6194 29661.3303 178.4032 257.7334
ENERGY: 600000 1.4669 0.8759 1.5287 0.0000 -10565.2462 1424.4613 0.0000 0.0000 1792.9146 -7343.9988 308.9319 -9136.9134 -7425.4386 301.2209 105.1548 174.0415 29986.2272 177.6799 261.9378
ENERGY: 900000 0.1596 0.3662 0.4752 0.0000 -10547.9345 1428.9441 0.0000 0.0000 1744.4428 -7373.5465 300.5799 -9117.9893 -7430.6310 299.8051 124.4905 218.9132 30179.5957 243.1548 332.4605
ENERGY: 1200000 0.3636 1.9985 2.5206 0.0000 -10545.0019 1394.3542 0.0000 0.0000 1684.7463 -7461.0188 290.2938 -9145.7651 -7427.9077 299.1717 -179.6155 -123.7700 30103.9315 154.6020 231.1853
ENERGY: 1500000 0.9517 1.3043 0.1853 0.0000 -10524.0612 1365.7974 0.0000 0.0000 1724.8580 -7430.9645 297.2053 -9155.8225 -7432.1604 298.9102 -305.7129 -237.6458 29878.0658 102.6580 177.4220
TCL: Running FEP window  15: Lambda1 0.7000000000000001 Lambda2 0.7500000000000001 [dLambda 0.050000000000000044]
TCL: Setting parameter firsttimestep to 0
TCL: Setting parameter alchLambda to 0.7000000000000001
Info: NONBONDED TABLE R-SQUARED SPACING: 0.0625
Info: NONBONDED TABLE SIZE: 705 POINTS
TCL: Setting parameter alchLambda2 to 0.7500000000000001
Info: NONBONDED TABLE R-SQUARED SPACING: 0.0625
Info: NONBONDED TABLE SIZE: 705 POINTS
TCL: Running for 1500000 steps
ETITLE: TS BOND ANGLE DIHED IMPRP ELECT VDW BOUNDARY MISC KINETIC TOTAL TEMP POTENTIAL TOTALAVG TEMPAVG PRESSURE GPRESSURE VOLUME PRESSAVG GPRESSAVG
ENERGY: 0 0.9517 1.3043 0.1853 0.0000 -10524.0528 1365.5400 0.0000 0.0000 1723.9834 -7432.0881 297.0546 -9156.0715 -7432.0881 297.0546 -327.5893 -239.3536 29878.0658 -327.5893 -239.3536
ENERGY: 300000 0.4784 1.4898 1.2041 0.0000 -10525.8432 1425.4421 0.0000 0.0000 1765.3067 -7331.9222 304.1749 -9097.2289 -7400.1905 299.6955 67.2961 65.2198 30631.2762 68.1104 117.6671
ENERGY: 600000 1.1202 0.7933 1.7454 0.0000 -10614.2601 1451.7827 0.0000 0.0000 1754.2076 -7404.6110 302.2624 -9158.8186 -7412.9627 301.4287 74.8503 117.9939 30510.2500 -83.7889 -30.4486
ENERGY: 900000 0.0854 3.8701 1.5896 0.0000 -10693.6314 1512.9159 0.0000 0.0000 1731.9651 -7443.2052 298.4299 -9175.1703 -7410.5446 301.9614 847.9124 903.6497 29426.3941 73.8032 133.1048
ENERGY: 1200000 1.8226 1.3804 0.8918 0.0000 -10550.9584 1364.2387 0.0000 0.0000 1743.7600 -7438.8649 300.4622 -9182.6249 -7412.9644 301.9768 -776.3643 -665.2476 30518.8673 -4.1822 56.9287
ENERGY: 1500000 0.0621 0.6286 0.0776 0.0000 -10463.9313 1328.3613 0.0000 0.0000 1724.0817 -7410.7202 297.0715 -9134.8019 -7401.2081 303.0151 -807.2620 -738.3205 30337.4737 -69.8685 -5.7822
TCL: Running FEP window  16: Lambda1 0.7500000000000001 Lambda2 0.8000000000000002 [dLambda 0.050000000000000044]
TCL: Setting parameter firsttimestep to 0
TCL: Setting parameter alchLambda to 0.7500000000000001
Info: NONBONDED TABLE R-SQUARED SPACING: 0.0625
Info: NONBONDED TABLE SIZE: 705 POINTS
TCL: Setting parameter alchLambda2 to 0.8000000000000002
Info: NONBONDED TABLE R-SQUARED SPACING: 0.0625
Info: NONBONDED TABLE SIZE: 705 POINTS
TCL: Running for 1500000 steps
ETITLE: TS BOND ANGLE DIHED IMPRP ELECT VDW BOUNDARY MISC KINETIC TOTAL TEMP POTENTIAL TOTALAVG TEMPAVG PRESSURE GPRESSURE VOLUME PRESSAVG GPRESSAVG
ENERGY: 0 0.0621 0.6286 0.0776 0.0000 -10464.0636 1328.1772 0.0000 0.0000 1723.1662 -7411.9519 296.9138 -9135.1181 -7411.9519 296.9138 -816.9098 -736.0598 30337.4737 -816.9098 -736.0598
ENERGY: 300000 0.2327 2.4883 0.8898 0.0000 -10630.9204 1449.8172 0.0000 0.0000 1732.3637 -7445.1287 298.4986 -9177.4924 -7416.2393 300.5402 373.7264 458.2732 29614.2207 -401.2214 -292.9479
ENERGY: 600000 0.1235 0.8273 0.2765 0.0000 -10558.5514 1423.8675 0.0000 0.0000 1751.0715 -7382.3851 301.7221 -9133.4567 -7420.7188 300.2958 -39.6690 -47.1227 30746.8911 -186.5349 -115.3492
ENERGY: 900000 0.3292 0.2821 2.2163 0.0000 -10485.5721 1353.8955 0.0000 0.0000 1747.6030 -7381.2459 301.1244 -9128.8489 -7417.5291 301.3219 -604.2669 -565.3457 30509.1108 -262.3059 -190.6349
ENERGY: 1200000 2.4179 0.8991 1.5259 0.0000 -10679.4820 1495.6019 0.0000 0.0000 1834.6300 -7344.4072 316.1198 -9179.0372 -7411.7205 302.1730 683.4456 823.4305 29658.4452 -127.5028 -51.3453
ENERGY: 1500000 0.3548 1.4561 1.1102 0.0000 -10520.3948 1411.1521 0.0000 0.0000 1794.2726 -7312.0491 309.1659 -9106.3217 -7402.7717 303.0272 -6.8755 83.0060 30228.9777 -51.9453 26.7742
TCL: Running FEP window  17: Lambda1 0.8000000000000002 Lambda2 0.8500000000000002 [dLambda 0.050000000000000044]
TCL: Setting parameter firsttimestep to 0
TCL: Setting parameter alchLambda to 0.8000000000000002
Info: NONBONDED TABLE R-SQUARED SPACING: 0.0625
Info: NONBONDED TABLE SIZE: 705 POINTS
TCL: Setting parameter alchLambda2 to 0.8500000000000002
Info: NONBONDED TABLE R-SQUARED SPACING: 0.0625
Info: NONBONDED TABLE SIZE: 705 POINTS
TCL: Running for 1500000 steps
ETITLE: TS BOND ANGLE DIHED IMPRP ELECT VDW BOUNDARY MISC KINETIC TOTAL TEMP POTENTIAL TOTALAVG TEMPAVG PRESSURE GPRESSURE VOLUME PRESSAVG GPRESSAVG
ENERGY: 0 0.3548 1.4561 1.1102 0.0000 -10520.5413 1410.8923 0.0000 0.0000 1793.4050 -7313.3230 309.0164 -9106.7279 -7313.3230 309.0164 4.5333 83.5106 30228.9777 4.5333 83.5106
ENERGY: 300000 0.1419 0.6350 0.9686 0.0000 -10561.2788 1453.1996 0.0000 0.0000 1710.7722 -7395.5615 294.7782 -9106.3337 -7388.8605 299.8474 477.3591 511.4323 29821.2257 287.9499 334.6944
ENERGY: 600000 0.2977 1.6623 1.6927 0.0000 -10693.3564 1462.1911 0.0000 0.0000 1753.3754 -7474.1371 302.1190 -9227.5125 -7404.8593 300.7643 322.3096 482.7757 29559.7283 259.9489 324.9688
ENERGY: 900000 0.0134 1.6029 1.7552 0.0000 -10529.5864 1428.3967 0.0000 0.0000 1720.6529 -7377.1653 296.4807 -9097.8182 -7414.0272 299.1432 228.2022 242.1909 30287.4233 213.3734 272.4059
ENERGY: 1200000 0.0969 1.2506 0.2473 0.0000 -10591.6050 1404.0939 0.0000 0.0000 1672.4728 -7513.4435 288.1789 -9185.9163 -7439.1287 298.6313 -326.8587 -246.9183 30020.5165 108.3741 177.5027
ENERGY: 1500000 0.3095 1.4795 1.0413 0.0000 -10534.4432 1359.3049 0.0000 0.0000 1787.5265 -7384.7815 308.0035 -9172.3080 -7433.3432 299.1999 -847.4195 -754.6153 30444.7099 -73.2483 -8.1609
TCL: Running FEP window  18: Lambda1 0.8500000000000002 Lambda2 0.9000000000000002 [dLambda 0.050000000000000044]
TCL: Setting parameter firsttimestep to 0
TCL: Setting parameter alchLambda to 0.8500000000000002
Info: NONBONDED TABLE R-SQUARED SPACING: 0.0625
Info: NONBONDED TABLE SIZE: 705 POINTS
TCL: Setting parameter alchLambda2 to 0.9000000000000002
Info: NONBONDED TABLE R-SQUARED SPACING: 0.0625
Info: NONBONDED TABLE SIZE: 705 POINTS
TCL: Running for 1500000 steps
ETITLE: TS BOND ANGLE DIHED IMPRP ELECT VDW BOUNDARY MISC KINETIC TOTAL TEMP POTENTIAL TOTALAVG TEMPAVG PRESSURE GPRESSURE VOLUME PRESSAVG GPRESSAVG
ENERGY: 0 0.3095 1.4795 1.0413 0.0000 -10534.4831 1360.0853 0.0000 0.0000 1786.6881 -7384.8794 307.8591 -9171.5675 -7384.8794 307.8591 -820.4376 -737.7667 30444.7099 -820.4376 -737.7667
ENERGY: 300000 0.4006 3.5765 0.4422 0.0000 -10642.7468 1418.3338 0.0000 0.0000 1696.4751 -7523.5186 292.3147 -9219.9937 -7434.9212 297.5764 -92.9705 5.7312 29722.3680 -328.0074 -269.8568
ENERGY: 600000 0.3292 1.9840 0.9762 0.0000 -10625.2648 1402.9835 0.0000 0.0000 1710.7979 -7508.1941 294.7826 -9218.9920 -7458.5406 299.2683 -286.3013 -213.2680 29831.0256 -211.3652 -140.3858
ENERGY: 900000 1.3596 1.2610 0.8963 0.0000 -10604.8773 1369.2292 0.0000 0.0000 1710.3560 -7521.7752 294.7065 -9232.1312 -7466.0881 298.4137 -646.8560 -591.7157 29897.9481 -176.9059 -107.2830
ENERGY: 1200000 0.2787 0.3995 1.3941 0.0000 -10617.4421 1414.1042 0.0000 0.0000 1725.6233 -7475.6423 297.3371 -9201.2656 -7461.6520 298.8051 -200.6570 -208.6109 30292.2419 -198.2682 -137.9314
ENERGY: 1500000 0.4100 0.6958 1.7940 0.0000 -10589.7185 1431.9675 0.0000 0.0000 1714.9207 -7439.9305 295.4930 -9154.8512 -7462.7733 297.6246 95.7804 166.4820 29903.4939 -100.8019 -44.3035
TCL: Running FEP window  19: Lambda1 0.9000000000000002 Lambda2 0.9500000000000003 [dLambda 0.050000000000000044]
TCL: Setting parameter firsttimestep to 0
TCL: Setting parameter alchLambda to 0.9000000000000002
Info: NONBONDED TABLE R-SQUARED SPACING: 0.0625
Info: NONBONDED TABLE SIZE: 705 POINTS
TCL: Setting parameter alchLambda2 to 0.9500000000000003
Info: NONBONDED TABLE R-SQUARED SPACING: 0.0625
Info: NONBONDED TABLE SIZE: 705 POINTS
TCL: Running for 1500000 steps
ETITLE: TS BOND ANGLE DIHED IMPRP ELECT VDW BOUNDARY MISC KINETIC TOTAL TEMP POTENTIAL TOTALAVG TEMPAVG PRESSURE GPRESSURE VOLUME PRESSAVG GPRESSAVG
ENERGY: 0 0.4100 0.6958 1.7940 0.0000 -10589.9066 1431.7250 0.0000 0.0000 1714.1174 -7441.1643 295.3546 -9155.2817 -7441.1643 295.3546 91.2481 169.6996 29903.4939 91.2481 169.6996
ENERGY: 300000 0.0101 1.6743 1.1720 0.0000 -10653.3891 1452.9308 0.0000 0.0000 1764.6414 -7432.9605 304.0602 -9197.6018 -7392.7352 302.1814 27.4314 67.0551 30290.8779 74.5683 129.8788
ENERGY: 600000 1.6140 1.3906 1.5742 0.0000 -10545.5522 1414.2486 0.0000 0.0000 1703.0744 -7423.6504 293.4518 -9126.7247 -7413.2184 298.4262 121.4823 191.0316 30150.9227 87.7921 168.2446
ENERGY: 900000 1.7894 0.7139 1.6256 0.0000 -10526.0825 1371.6985 0.0000 0.0000 1731.1080 -7419.1471 298.2822 -9150.2551 -7422.3307 298.7712 -292.7060 -297.2036 30087.4633 87.0437 155.3544
ENERGY: 1200000 0.4319 0.9639 0.6688 0.0000 -10480.3027 1345.3523 0.0000 0.0000 1697.0258 -7435.8600 292.4096 -9132.8858 -7418.6036 298.4230 -647.6416 -576.9297 30128.5530 -8.4102 59.8886
ENERGY: 1500000 0.1877 0.9582 0.8084 0.0000 -10637.4885 1441.1274 0.0000 0.0000 1760.1142 -7434.2926 303.2802 -9194.4068 -7422.4762 299.1964 -28.4735 -25.9020 30220.4578 -5.6843 56.3199
TCL: Running FEP window  20: Lambda1 0.9500000000000003 Lambda2 1.0    [dLambda 0.04999999999999971]
TCL: Setting parameter firsttimestep to 0
TCL: Setting parameter alchLambda to 0.9500000000000003
Info: NONBONDED TABLE R-SQUARED SPACING: 0.0625
Info: NONBONDED TABLE SIZE: 705 POINTS
TCL: Setting parameter alchLambda2 to 1.0
Info: NONBONDED TABLE R-SQUARED SPACING: 0.0625
Info: NONBONDED TABLE SIZE: 705 POINTS
TCL: Running for 1500000 steps
ETITLE: TS BOND ANGLE DIHED IMPRP ELECT VDW BOUNDARY MISC KINETIC TOTAL TEMP POTENTIAL TOTALAVG TEMPAVG PRESSURE GPRESSURE VOLUME PRESSAVG GPRESSAVG
ENERGY: 0 0.1877 0.9582 0.8084 0.0000 -10637.5442 1442.0701 0.0000 0.0000 1759.2268 -7434.2930 303.1273 -9193.5198 -7434.2930 303.1273 -82.9514 -8.1195 30220.4578 -82.9514 -8.1195
ENERGY: 300000 1.3799 0.8836 0.1220 0.0000 -10685.5721 1467.0656 0.0000 0.0000 1728.5944 -7487.5267 297.8491 -9216.1210 -7480.3683 297.5546 445.1595 495.9088 29669.5769 180.8769 233.9414
ENERGY: 600000 1.8838 0.8659 0.0593 0.0000 -10549.0826 1408.6037 0.0000 0.0000 1720.2297 -7417.4403 296.4078 -9137.6699 -7443.9281 299.1089 222.1862 253.3140 29650.7233 51.2928 109.4735
ENERGY: 900000 0.0707 2.0657 2.4394 0.0000 -10657.3093 1366.1512 0.0000 0.0000 1768.5014 -7518.0809 304.7253 -9286.5822 -7441.0850 300.3828 -488.7307 -375.1350 29285.0785 -65.2051 2.2366
ENERGY: 1200000 0.3622 0.2595 0.4446 0.0000 -10625.8083 1398.9114 0.0000 0.0000 1752.6670 -7473.1637 301.9970 -9225.8307 -7433.6019 300.7409 -138.9095 -21.9086 29667.2621 -92.3859 -21.4016
ENERGY: 1500000 0.2201 1.2237 0.9996 0.0000 -10512.1865 1382.2433 0.0000 0.0000 1706.2372 -7421.2627 293.9968 -9127.4998 -7435.2836 299.9254 -122.6492 -49.4126 29884.0852 -86.1098 -13.5827
TCL: Exiting due to exit command.
