Info: SIMULATION PARAMETERS:
Info: TIMESTEP               2
Info: NUMBER OF STEPS        0
Info: STEPS PER CYCLE        10
Info: PERIODIC CELL BASIS 1  35.01 0 0
Info: PERIODIC CELL BASIS 2  0 35.267 0
Info: PERIODIC CELL BASIS 3  0 0 35.723
Info: PERIODIC CELL CENTER   0 0 0
Info: WRAPPING WATERS AROUND PERIODIC BOUNDARIES ON OUTPUT.
Info: WRAPPING ALL CLUSTERS AROUND PERIODIC BOUNDARIES ON OUTPUT.
Info: FIRST LDB TIMESTEP     50
Info: LAST LDB TIMESTEP     -1
Info: HOM BACKGROUND SCALING 1
Info: PME BACKGROUND SCALING 1
Info: MIN ATOMS PER PATCH    40
Info: EMPTY PATCH LOAD       40 ATOMS
Info: INITIAL TEMPERATURE    300
Info: CENTER OF MASS MOVING INITIALLY? NO
Info: DIELECTRIC             1
Info: EXCLUDE                SCALED ONE-FOUR
Info: 1-4 ELECTROSTATICS SCALED BY 0.833333
Info: MODIFIED 1-4 VDW PARAMETERS WILL BE USED
Info: DCD FILENAME           mobley_2068538_equil.dcd
Info: DCD FREQUENCY          100000
Info: DCD FIRST STEP         100000
Info: DCD FILE WILL CONTAIN UNIT CELL DATA
Info: XST FILENAME           mobley_2068538_equil.xst
Info: XST FREQUENCY          100000
Info: NO VELOCITY DCD OUTPUT
Info: NO FORCE DCD OUTPUT
Info: OUTPUT FILENAME        mobley_2068538_equil
Info: BINARY OUTPUT FILES WILL BE USED
Info: RESTART FILENAME       mobley_2068538_equil.restart
Info: RESTART FREQUENCY      100000
Info: BINARY RESTART FILES WILL BE USED
Info: CUTOFF                 9
Info: PAIRLIST DISTANCE      11
Info: PAIRLIST SHRINK RATE   0.01
Info: PAIRLIST GROW RATE     0.01
Info: PAIRLIST TRIGGER       0.3
Info: PAIRLISTS PER CYCLE    2
Info: PAIRLISTS ENABLED
Info: MARGIN                 8
Info: HYDROGEN GROUP CUTOFF  2.5
Info: PATCH DIMENSION        21.5
Info: ENERGY OUTPUT STEPS    100000
Info: ENERGY EVALUATION STEPS    100000
Info: OUTPUT ENERGY PRECISION 4
Info: CROSSTERM ENERGY INCLUDED IN DIHEDRAL
Info: TIMING OUTPUT STEPS    1000000
Info: PRESSURE OUTPUT STEPS  100000
Info: LANGEVIN DYNAMICS ACTIVE
Info: LANGEVIN TEMPERATURE   30
Info: LANGEVIN USING BBK INTEGRATOR
Info: LANGEVIN DAMPING COEFFICIENT IS 1 INVERSE PS
Info: LANGEVIN DYNAMICS APPLIED TO HYDROGENS
Info: LANGEVIN PISTON PRESSURE CONTROL ACTIVE
Info:        TARGET PRESSURE IS 1.01325 BAR
Info:     OSCILLATION PERIOD IS 50 FS
Info:             DECAY TIME IS 25 FS
Info:     PISTON TEMPERATURE IS 300 K
Info:       PRESSURE CONTROL IS GROUP-BASED
Info:    INITIAL STRAIN RATE IS 0 0 0
Info:       CELL FLUCTUATION IS ISOTROPIC
Info: PARTICLE MESH EWALD (PME) ACTIVE
Info: PME TOLERANCE               1e-06
Info: PME EWALD COEFFICIENT       0.348832
Info: PME INTERPOLATION ORDER     4
Info: PME GRID DIMENSIONS         36 36 36
Info: PME MAXIMUM GRID SPACING    1
Info: FULL ELECTROSTATIC EVALUATION FREQUENCY      2
Info: USING VERLET I (r-RESPA) MTS SCHEME.
Info: C1 SPLITTING OF LONG RANGE ELECTROSTATICS
Info: PLACING ATOMS IN PATCHES BY HYDROGEN GROUPS
Info: RIGID BONDS TO HYDROGEN : ALL
Info:         ERROR TOLERANCE : 1e-08
Info:          MAX ITERATIONS : 100
Info: RIGID WATER USING SETTLE ALGORITHM
Info: RANDOM NUMBER SEED     1743161046
Info: USE HYDROGEN BONDS?    NO
Info: Using AMBER format force field!
Info: AMBER PARM FILE        mobley_2068538.prmtop
Info: COORDINATE PDB         mobley_2068538.pdb
Info: Exclusions will be read from PARM file!
Info: SCNB (VDW SCALING)     2
Info: USING ARITHMETIC MEAN TO COMBINE L-J SIGMA PARAMETERS
Info: BINARY COORDINATES     mobley_2068538_min.coor
Info: SUMMARY OF PARAMETERS:
Info: 4 BONDS
Info: 3 ANGLES
Info: 2 DIHEDRAL
Info: 0 IMPROPER
Info: 0 CROSSTERM
Info: 0 VDW
Info: 10 VDW_PAIRS
Info: 0 NBTHOLE_PAIRS
Info: STRUCTURE SUMMARY:
Info: 2981 ATOMS
Info: 2980 BONDS
Info: 18 ANGLES
Info: 18 DIHEDRALS
Info: 0 IMPROPERS
Info: 0 CROSSTERMS
Info: 3016 EXCLUSIONS
Info: 2978 RIGID BONDS
Info: 5965 DEGREES OF FREEDOM
Info: 993 HYDROGEN GROUPS
Info: 4 ATOMS IN LARGEST HYDROGEN GROUP
Info: 993 MIGRATION GROUPS
Info: 4 ATOMS IN LARGEST MIGRATION GROUP
Info: TOTAL MASS = 17879.9 amu
Info: TOTAL CHARGE = 0.000200011 e
Info: MASS DENSITY = 0.673157 g/cm^3
Info: ATOM DENSITY = 0.0675855 atoms/A^3
Info: ADDED 0 IMPLICIT EXCLUSIONS
Info: NONBONDED TABLE R-SQUARED SPACING: 0.0625
Info: NONBONDED TABLE SIZE: 705 POINTS
Info: REMOVING COM VELOCITY -0.205796 0.010021 -0.0779778
TCL: Running for 100000 steps
ETITLE: TS BOND ANGLE DIHED IMPRP ELECT VDW BOUNDARY MISC KINETIC TOTAL TEMP POTENTIAL TOTAL3 TEMPAVG PRESSURE GPRESSURE VOLUME PRESSAVG GPRESSAVG
ENERGY: 0 0.0144 0.1269 0.0080 0.0000 -13794.1215 2441.1544 0.0000 0.0000 1804.4148 -9548.4028 304.4502 -11352.8177 -9548.0608 304.4502 505.8085 539.8868 44107.1049 505.8085 539.8868
ENERGY: 100000 0.3062 0.4064 0.0622 0.0000 -14365.1003 2459.4474 0.0000 0.0000 176.4982 -11728.3800 29.7797 -11904.8782 -11727.8511 30.9458 -811.8400 -765.0228 29400.8595 5.4552 5.4610
TCL: Running 100000 steps at 60 kelvin.
TCL: Setting parameter langevinTemp to 60
TCL: Running for 100000 steps
ETITLE: TS BOND ANGLE DIHED IMPRP ELECT VDW BOUNDARY MISC KINETIC TOTAL TEMP POTENTIAL TOTAL3 TEMPAVG PRESSURE GPRESSURE VOLUME PRESSAVG GPRESSAVG
ENERGY: 100000 0.3062 0.4064 0.0622 0.0000 -14365.1003 2459.4474 0.0000 0.0000 176.4097 -11728.4685 29.7648 -11904.8782 -11727.9794 29.7648 -812.9756 -765.0844 29400.8595 -812.9756 -765.0844
ENERGY: 200000 0.0098 0.8117 0.0461 0.0000 -14197.7328 2360.1735 0.0000 0.0000 353.8751 -11482.8166 59.7077 -11836.6917 -11481.8363 60.0076 -1047.0356 -1019.1666 29029.2602 4.6110 4.5309
TCL: Running 100000 steps at 90 kelvin.
TCL: Setting parameter langevinTemp to 90
TCL: Running for 100000 steps
ETITLE: TS BOND ANGLE DIHED IMPRP ELECT VDW BOUNDARY MISC KINETIC TOTAL TEMP POTENTIAL TOTAL3 TEMPAVG PRESSURE GPRESSURE VOLUME PRESSAVG GPRESSAVG
ENERGY: 200000 0.0098 0.8117 0.0461 0.0000 -14197.7328 2360.1735 0.0000 0.0000 353.7011 -11482.9906 59.6783 -11836.6917 -11482.0653 59.6783 -1079.9201 -1019.5252 29029.2602 -1079.9201 -1019.5252
ENERGY: 300000 0.2538 2.4945 0.1457 0.0000 -14212.3528 2484.5275 0.0000 0.0000 533.7459 -11191.1854 90.0564 -11724.9313 -11189.0245 89.8757 392.9750 385.6452 28971.1314 2.8847 2.8960
TCL: Running 100000 steps at 120 kelvin.
TCL: Setting parameter langevinTemp to 120
TCL: Running for 100000 steps
ETITLE: TS BOND ANGLE DIHED IMPRP ELECT VDW BOUNDARY MISC KINETIC TOTAL TEMP POTENTIAL TOTAL3 TEMPAVG PRESSURE GPRESSURE VOLUME PRESSAVG GPRESSAVG
ENERGY: 300000 0.2538 2.4945 0.1457 0.0000 -14212.3528 2484.5275 0.0000 0.0000 533.4755 -11191.4558 90.0108 -11724.9313 -11190.6658 90.0108 336.2820 386.6862 28971.1314 336.2820 386.6862
ENERGY: 400000 0.2421 1.4305 0.0433 0.0000 -14043.5065 2452.1688 0.0000 0.0000 697.7123 -10891.9094 117.7216 -11589.6217 -10889.8996 119.6963 661.9560 706.5878 28878.1626 2.9381 2.9942
TCL: Running 100000 steps at 150 kelvin.
TCL: Setting parameter langevinTemp to 150
TCL: Running for 100000 steps
ETITLE: TS BOND ANGLE DIHED IMPRP ELECT VDW BOUNDARY MISC KINETIC TOTAL TEMP POTENTIAL TOTAL3 TEMPAVG PRESSURE GPRESSURE VOLUME PRESSAVG GPRESSAVG
ENERGY: 400000 0.2421 1.4305 0.0433 0.0000 -14043.5065 2452.1688 0.0000 0.0000 697.3646 -10892.2571 117.6630 -11589.6217 -10890.8461 117.6630 655.0979 706.4826 28878.1626 655.0979 706.4826
ENERGY: 500000 0.0894 4.7347 0.1440 0.0000 -13734.8269 2341.7235 0.0000 0.0000 878.0283 -10510.1071 148.1455 -11388.1354 -10507.7817 150.3085 602.1383 613.0484 28855.8326 3.9798 3.9834
TCL: Running 100000 steps at 180 kelvin.
TCL: Setting parameter langevinTemp to 180
TCL: Running for 100000 steps
ETITLE: TS BOND ANGLE DIHED IMPRP ELECT VDW BOUNDARY MISC KINETIC TOTAL TEMP POTENTIAL TOTAL3 TEMPAVG PRESSURE GPRESSURE VOLUME PRESSAVG GPRESSAVG
ENERGY: 500000 0.0894 4.7347 0.1440 0.0000 -13734.8269 2341.7235 0.0000 0.0000 877.5757 -10510.5598 148.0691 -11388.1354 -10508.8460 148.0691 546.7578 612.5313 28855.8326 546.7578 612.5313
ENERGY: 600000 0.4076 2.0262 0.7409 0.0000 -13262.8782 2113.4103 0.0000 0.0000 1055.8252 -10090.4680 178.1443 -11146.2932 -10088.8750 179.9206 -515.0160 -418.4196 29261.9287 4.2134 4.0618
TCL: Running 100000 steps at 210 kelvin.
TCL: Setting parameter langevinTemp to 210
TCL: Running for 100000 steps
ETITLE: TS BOND ANGLE DIHED IMPRP ELECT VDW BOUNDARY MISC KINETIC TOTAL TEMP POTENTIAL TOTAL3 TEMPAVG PRESSURE GPRESSURE VOLUME PRESSAVG GPRESSAVG
ENERGY: 600000 0.4076 2.0262 0.7409 0.0000 -13262.8782 2113.4103 0.0000 0.0000 1055.2968 -10090.9965 178.0551 -11146.2932 -10089.2151 178.0551 -495.0848 -420.3422 29261.9287 -495.0848 -420.3422
ENERGY: 700000 0.3789 3.5528 1.0262 0.0000 -12505.2277 1852.4147 0.0000 0.0000 1262.1266 -9385.7285 212.9526 -10647.8551 -9383.3814 209.9860 -572.7846 -503.9779 29068.2015 3.8664 3.9669
TCL: Running 100000 steps at 240 kelvin.
TCL: Setting parameter langevinTemp to 240
TCL: Running for 100000 steps
ETITLE: TS BOND ANGLE DIHED IMPRP ELECT VDW BOUNDARY MISC KINETIC TOTAL TEMP POTENTIAL TOTAL3 TEMPAVG PRESSURE GPRESSURE VOLUME PRESSAVG GPRESSAVG
ENERGY: 700000 0.3789 3.5528 1.0262 0.0000 -12505.2277 1852.4147 0.0000 0.0000 1261.4999 -9386.3552 212.8468 -10647.8551 -9383.8928 212.8468 -585.3395 -504.3914 29068.2015 -585.3395 -504.3914
ENERGY: 800000 2.2989 2.3454 0.4891 0.0000 -12014.1773 1861.8724 0.0000 0.0000 1427.1259 -8720.0456 240.7921 -10147.1715 -8716.1965 239.3577 744.8574 799.6514 29548.2848 2.7177 2.5950
TCL: Running 100000 steps at 270 kelvin.
TCL: Setting parameter langevinTemp to 270
TCL: Running for 100000 steps
ETITLE: TS BOND ANGLE DIHED IMPRP ELECT VDW BOUNDARY MISC KINETIC TOTAL TEMP POTENTIAL TOTAL3 TEMPAVG PRESSURE GPRESSURE VOLUME PRESSAVG GPRESSAVG
ENERGY: 800000 2.2989 2.3454 0.4891 0.0000 -12014.1773 1861.8724 0.0000 0.0000 1426.3983 -8720.7732 240.6693 -10147.1715 -8719.3065 240.6693 714.8948 800.2122 29548.2848 714.8948 800.2122
ENERGY: 900000 1.1405 3.2366 0.1401 0.0000 -11413.5621 1617.1779 0.0000 0.0000 1659.1510 -8132.7160 279.9406 -9791.8670 -8128.6350 269.5689 122.6317 203.5589 29961.5013 3.5645 3.5370
TCL: Running 1000000 steps at 300 kelvin.
TCL: Setting parameter langevinTemp to 300
TCL: Running for 1000000 steps
ETITLE: TS BOND ANGLE DIHED IMPRP ELECT VDW BOUNDARY MISC KINETIC TOTAL TEMP POTENTIAL TOTAL3 TEMPAVG PRESSURE GPRESSURE VOLUME PRESSAVG GPRESSAVG
ENERGY: 900000 1.1405 3.2366 0.1401 0.0000 -11413.5621 1617.1779 0.0000 0.0000 1658.3598 -8133.5072 279.8071 -9791.8670 -8130.8886 279.8071 105.8887 203.6743 29961.5013 105.8887 203.6743
ENERGY: 1100000 1.8171 10.6158 0.2790 0.0000 -10747.1677 1432.4515 0.0000 0.0000 1794.5723 -7507.4321 302.7896 -9302.0043 -7501.9575 300.4045 -121.5401 -12.3376 30995.7860 3.1872 3.0321
ENERGY: 1300000 0.2296 3.0516 2.2727 0.0000 -10708.4262 1342.4820 0.0000 0.0000 1789.1368 -7571.2535 301.8725 -9360.3903 -7565.8815 300.4625 -1062.0498 -1014.6727 31211.5570 2.1484 2.1421
ENERGY: 1500000 0.0411 5.7512 0.1248 0.0000 -10793.3175 1491.3421 0.0000 0.0000 1777.5737 -7518.4845 299.9215 -9296.0582 -7515.8325 300.3340 472.7160 540.5420 30548.3761 3.2986 3.5623
ENERGY: 1700000 0.0742 1.8568 1.0749 0.0000 -10725.8305 1393.6728 0.0000 0.0000 1795.6836 -7533.4682 302.9771 -9329.1518 -7531.7136 299.7361 -303.4984 -242.0276 30764.8219 2.9320 2.8589
ENERGY: 1900000 0.4052 4.6421 0.6008 0.0000 -10757.4781 1445.1215 0.0000 0.0000 1765.2814 -7541.4271 297.8474 -9306.7085 -7536.6223 300.7322 -151.9117 -62.2031 30991.5096 3.8757 3.8177
TCL: Exiting due to exit command.
