Info: SIMULATION PARAMETERS:
Info: TIMESTEP               2
Info: NUMBER OF STEPS        0
Info: STEPS PER CYCLE        10
Info: PERIODIC CELL BASIS 1  34.207 0 0
Info: PERIODIC CELL BASIS 2  0 36.451 0
Info: PERIODIC CELL BASIS 3  0 0 35.723
Info: PERIODIC CELL CENTER   0 0 0
Info: WRAPPING WATERS AROUND PERIODIC BOUNDARIES ON OUTPUT.
Info: WRAPPING ALL CLUSTERS AROUND PERIODIC BOUNDARIES ON OUTPUT.
Info: FIRST LDB TIMESTEP     50
Info: LAST LDB TIMESTEP     -1
Info: HOM BACKGROUND SCALING 1
Info: PME BACKGROUND SCALING 1
Info: MIN ATOMS PER PATCH    40
Info: EMPTY PATCH LOAD       40 ATOMS
Info: INITIAL TEMPERATURE    300
Info: CENTER OF MASS MOVING INITIALLY? NO
Info: DIELECTRIC             1
Info: EXCLUDE                SCALED ONE-FOUR
Info: 1-4 ELECTROSTATICS SCALED BY 0.833333
Info: MODIFIED 1-4 VDW PARAMETERS WILL BE USED
Info: DCD FILENAME           mobley_4338603_equil.dcd
Info: DCD FREQUENCY          100000
Info: DCD FIRST STEP         100000
Info: DCD FILE WILL CONTAIN UNIT CELL DATA
Info: XST FILENAME           mobley_4338603_equil.xst
Info: XST FREQUENCY          100000
Info: NO VELOCITY DCD OUTPUT
Info: NO FORCE DCD OUTPUT
Info: OUTPUT FILENAME        mobley_4338603_equil
Info: BINARY OUTPUT FILES WILL BE USED
Info: RESTART FILENAME       mobley_4338603_equil.restart
Info: RESTART FREQUENCY      100000
Info: BINARY RESTART FILES WILL BE USED
Info: CUTOFF                 9
Info: PAIRLIST DISTANCE      11
Info: PAIRLIST SHRINK RATE   0.01
Info: PAIRLIST GROW RATE     0.01
Info: PAIRLIST TRIGGER       0.3
Info: PAIRLISTS PER CYCLE    2
Info: PAIRLISTS ENABLED
Info: MARGIN                 8
Info: HYDROGEN GROUP CUTOFF  2.5
Info: PATCH DIMENSION        21.5
Info: ENERGY OUTPUT STEPS    100000
Info: ENERGY EVALUATION STEPS    100000
Info: OUTPUT ENERGY PRECISION 4
Info: CROSSTERM ENERGY INCLUDED IN DIHEDRAL
Info: TIMING OUTPUT STEPS    1000000
Info: PRESSURE OUTPUT STEPS  100000
Info: LANGEVIN DYNAMICS ACTIVE
Info: LANGEVIN TEMPERATURE   30
Info: LANGEVIN USING BBK INTEGRATOR
Info: LANGEVIN DAMPING COEFFICIENT IS 1 INVERSE PS
Info: LANGEVIN DYNAMICS APPLIED TO HYDROGENS
Info: LANGEVIN PISTON PRESSURE CONTROL ACTIVE
Info:        TARGET PRESSURE IS 1.01325 BAR
Info:     OSCILLATION PERIOD IS 50 FS
Info:             DECAY TIME IS 25 FS
Info:     PISTON TEMPERATURE IS 300 K
Info:       PRESSURE CONTROL IS GROUP-BASED
Info:    INITIAL STRAIN RATE IS 0 0 0
Info:       CELL FLUCTUATION IS ISOTROPIC
Info: PARTICLE MESH EWALD (PME) ACTIVE
Info: PME TOLERANCE               1e-06
Info: PME EWALD COEFFICIENT       0.348832
Info: PME INTERPOLATION ORDER     4
Info: PME GRID DIMENSIONS         36 40 36
Info: PME MAXIMUM GRID SPACING    1
Info: FULL ELECTROSTATIC EVALUATION FREQUENCY      2
Info: USING VERLET I (r-RESPA) MTS SCHEME.
Info: C1 SPLITTING OF LONG RANGE ELECTROSTATICS
Info: PLACING ATOMS IN PATCHES BY HYDROGEN GROUPS
Info: RIGID BONDS TO HYDROGEN : ALL
Info:         ERROR TOLERANCE : 1e-08
Info:          MAX ITERATIONS : 100
Info: RIGID WATER USING SETTLE ALGORITHM
Info: RANDOM NUMBER SEED     1743162931
Info: USE HYDROGEN BONDS?    NO
Info: Using AMBER format force field!
Info: AMBER PARM FILE        mobley_4338603.prmtop
Info: COORDINATE PDB         mobley_4338603.pdb
Info: Exclusions will be read from PARM file!
Info: SCNB (VDW SCALING)     2
Info: USING ARITHMETIC MEAN TO COMBINE L-J SIGMA PARAMETERS
Info: BINARY COORDINATES     mobley_4338603_min.coor
Info: SUMMARY OF PARAMETERS:
Info: 10 BONDS
Info: 14 ANGLES
Info:   14 HARMONIC
Info:   0 COSINE-BASED
Info: 7 DIHEDRAL
Info: 0 IMPROPER
Info: 0 CROSSTERM
Info: 0 VDW
Info: 36 VDW_PAIRS
Info: 0 NBTHOLE_PAIRS
Info: STRUCTURE SUMMARY:
Info: 2943 ATOMS
Info: 2943 BONDS
Info: 18 ANGLES
Info: 33 DIHEDRALS
Info: 0 IMPROPERS
Info: 0 CROSSTERMS
Info: 2982 EXCLUSIONS
Info: 2934 RIGID BONDS
Info: 5895 DEGREES OF FREEDOM
Info: 986 HYDROGEN GROUPS
Info: 3 ATOMS IN LARGEST HYDROGEN GROUP
Info: 986 MIGRATION GROUPS
Info: 3 ATOMS IN LARGEST MIGRATION GROUP
Info: TOTAL MASS = 17748.2 amu
Info: TOTAL CHARGE = -8.9407e-08 e
Info: MASS DENSITY = 0.661668 g/cm^3
Info: ATOM DENSITY = 0.0660721 atoms/A^3
Info: ADDED 0 IMPLICIT EXCLUSIONS
Info: NONBONDED TABLE R-SQUARED SPACING: 0.0625
Info: NONBONDED TABLE SIZE: 705 POINTS
Info: REMOVING COM VELOCITY -0.0616926 0.106426 -0.186324
TCL: Running for 100000 steps
ETITLE: TS BOND ANGLE DIHED IMPRP ELECT VDW BOUNDARY MISC KINETIC TOTAL TEMP POTENTIAL TOTAL3 TEMPAVG PRESSURE GPRESSURE VOLUME PRESSAVG GPRESSAVG
ENERGY: 0 0.6373 0.7822 12.0918 0.0000 -13852.4435 2414.9216 0.0000 0.0000 1710.1617 -9713.8488 291.9737 -11424.0105 -9713.5255 291.9737 524.7568 565.7182 44542.2713 524.7568 565.7182
ENERGY: 100000 0.7482 0.8631 12.3326 0.0000 -14380.6745 2460.7694 0.0000 0.0000 178.5110 -11727.4503 30.4770 -11905.9613 -11727.0133 30.9270 -186.7983 -146.7509 29187.9411 3.5033 3.4822
TCL: Running 100000 steps at 60 kelvin.
TCL: Setting parameter langevinTemp to 60
TCL: Running for 100000 steps
ETITLE: TS BOND ANGLE DIHED IMPRP ELECT VDW BOUNDARY MISC KINETIC TOTAL TEMP POTENTIAL TOTAL3 TEMPAVG PRESSURE GPRESSURE VOLUME PRESSAVG GPRESSAVG
ENERGY: 100000 0.7482 0.8631 12.3326 0.0000 -14380.6745 2460.7694 0.0000 0.0000 178.4232 -11727.5381 30.4620 -11905.9613 -11727.2090 30.4620 -202.1513 -146.7722 29187.9411 -202.1513 -146.7722
ENERGY: 200000 1.6562 1.5250 12.8370 0.0000 -14266.8796 2388.3456 0.0000 0.0000 349.5970 -11512.9188 59.6863 -11862.5158 -11512.2975 59.9156 -425.4520 -377.1709 28876.6457 4.2370 4.2487
TCL: Running 100000 steps at 90 kelvin.
TCL: Setting parameter langevinTemp to 90
TCL: Running for 100000 steps
ETITLE: TS BOND ANGLE DIHED IMPRP ELECT VDW BOUNDARY MISC KINETIC TOTAL TEMP POTENTIAL TOTAL3 TEMPAVG PRESSURE GPRESSURE VOLUME PRESSAVG GPRESSAVG
ENERGY: 200000 1.6562 1.5250 12.8370 0.0000 -14266.8796 2388.3456 0.0000 0.0000 349.4303 -11513.0856 59.6578 -11862.5158 -11512.2011 59.6578 -428.7710 -377.3226 28876.6457 -428.7710 -377.3226
ENERGY: 300000 2.9274 2.2534 12.6701 0.0000 -14239.5026 2461.5589 0.0000 0.0000 529.0013 -11231.0915 90.3157 -11760.0928 -11229.6967 89.9985 793.8818 870.0585 28603.4201 3.7459 3.6556
TCL: Running 100000 steps at 120 kelvin.
TCL: Setting parameter langevinTemp to 120
TCL: Running for 100000 steps
ETITLE: TS BOND ANGLE DIHED IMPRP ELECT VDW BOUNDARY MISC KINETIC TOTAL TEMP POTENTIAL TOTAL3 TEMPAVG PRESSURE GPRESSURE VOLUME PRESSAVG GPRESSAVG
ENERGY: 300000 2.9274 2.2534 12.6701 0.0000 -14239.5026 2461.5589 0.0000 0.0000 528.7419 -11231.3509 90.2714 -11760.0928 -11230.2411 90.2714 818.7156 870.2738 28603.4201 818.7156 870.2738
ENERGY: 400000 1.4878 1.3605 13.4119 0.0000 -14016.6950 2357.0159 0.0000 0.0000 704.5222 -10938.8966 120.2822 -11643.4188 -10936.3162 119.8272 71.5692 71.8118 28719.5934 4.4670 4.5867
TCL: Running 100000 steps at 150 kelvin.
TCL: Setting parameter langevinTemp to 150
TCL: Running for 100000 steps
ETITLE: TS BOND ANGLE DIHED IMPRP ELECT VDW BOUNDARY MISC KINETIC TOTAL TEMP POTENTIAL TOTAL3 TEMPAVG PRESSURE GPRESSURE VOLUME PRESSAVG GPRESSAVG
ENERGY: 400000 1.4878 1.3605 13.4119 0.0000 -14016.6950 2357.0159 0.0000 0.0000 704.1763 -10939.2425 120.2231 -11643.4188 -10937.6069 120.2231 19.9055 72.3036 28719.5934 19.9055 72.3036
ENERGY: 500000 2.1844 3.1022 12.3906 0.0000 -13748.0716 2260.3011 0.0000 0.0000 863.6067 -10606.4867 147.4425 -11470.0933 -10605.7031 149.8879 -60.7772 -6.6722 28920.9906 3.2447 3.2618
TCL: Running 100000 steps at 180 kelvin.
TCL: Setting parameter langevinTemp to 180
TCL: Running for 100000 steps
ETITLE: TS BOND ANGLE DIHED IMPRP ELECT VDW BOUNDARY MISC KINETIC TOTAL TEMP POTENTIAL TOTAL3 TEMPAVG PRESSURE GPRESSURE VOLUME PRESSAVG GPRESSAVG
ENERGY: 500000 2.1844 3.1022 12.3906 0.0000 -13748.0716 2260.3011 0.0000 0.0000 863.1638 -10606.9295 147.3668 -11470.0933 -10605.3655 147.3668 -50.2152 -6.8903 28920.9906 -50.2152 -6.8903
ENERGY: 600000 1.8596 2.3768 13.4656 0.0000 -13250.0621 2056.7303 0.0000 0.0000 1044.0755 -10131.5543 178.2537 -11175.6299 -10128.8374 179.9805 -420.0304 -353.4563 28691.3997 3.7381 3.8918
TCL: Running 100000 steps at 210 kelvin.
TCL: Setting parameter langevinTemp to 210
TCL: Running for 100000 steps
ETITLE: TS BOND ANGLE DIHED IMPRP ELECT VDW BOUNDARY MISC KINETIC TOTAL TEMP POTENTIAL TOTAL3 TEMPAVG PRESSURE GPRESSURE VOLUME PRESSAVG GPRESSAVG
ENERGY: 600000 1.8596 2.3768 13.4656 0.0000 -13250.0621 2056.7303 0.0000 0.0000 1043.5237 -10132.1062 178.1595 -11175.6299 -10129.6504 178.1595 -411.5314 -352.6522 28691.3997 -411.5314 -352.6522
ENERGY: 700000 1.8534 2.8233 14.5957 0.0000 -12617.4003 1872.5804 0.0000 0.0000 1204.7308 -9520.8167 205.6821 -10725.5475 -9517.1353 209.5144 -516.4938 -403.5788 28880.0878 2.3552 2.4172
TCL: Running 100000 steps at 240 kelvin.
TCL: Setting parameter langevinTemp to 240
TCL: Running for 100000 steps
ETITLE: TS BOND ANGLE DIHED IMPRP ELECT VDW BOUNDARY MISC KINETIC TOTAL TEMP POTENTIAL TOTAL3 TEMPAVG PRESSURE GPRESSURE VOLUME PRESSAVG GPRESSAVG
ENERGY: 700000 1.8534 2.8233 14.5957 0.0000 -12617.4003 1872.5804 0.0000 0.0000 1204.1262 -9521.4212 205.5789 -10725.5475 -9519.7740 205.5789 -482.0300 -403.4989 28880.0878 -482.0300 -403.4989
ENERGY: 800000 2.9572 4.2513 17.4891 0.0000 -11956.9939 1706.0743 0.0000 0.0000 1403.9991 -8822.2229 239.7030 -10226.2220 -8820.5296 239.7193 210.0120 270.9033 28829.8233 2.9300 2.9003
TCL: Running 100000 steps at 270 kelvin.
TCL: Setting parameter langevinTemp to 270
TCL: Running for 100000 steps
ETITLE: TS BOND ANGLE DIHED IMPRP ELECT VDW BOUNDARY MISC KINETIC TOTAL TEMP POTENTIAL TOTAL3 TEMPAVG PRESSURE GPRESSURE VOLUME PRESSAVG GPRESSAVG
ENERGY: 800000 2.9572 4.2513 17.4891 0.0000 -11956.9939 1706.0743 0.0000 0.0000 1403.2711 -8822.9508 239.5787 -10226.2220 -8821.0634 239.5787 191.3195 270.8791 28829.8233 191.3195 270.8791
ENERGY: 900000 3.8272 3.9580 14.4989 0.0000 -11369.3515 1534.9732 0.0000 0.0000 1584.1081 -8227.9861 270.4527 -9812.0941 -8224.5003 270.0185 -623.3876 -527.1567 30010.4170 1.8136 1.7796
TCL: Running 1000000 steps at 300 kelvin.
TCL: Setting parameter langevinTemp to 300
TCL: Running for 1000000 steps
ETITLE: TS BOND ANGLE DIHED IMPRP ELECT VDW BOUNDARY MISC KINETIC TOTAL TEMP POTENTIAL TOTAL3 TEMPAVG PRESSURE GPRESSURE VOLUME PRESSAVG GPRESSAVG
ENERGY: 900000 3.8272 3.9580 14.4989 0.0000 -11369.3515 1534.9732 0.0000 0.0000 1583.3382 -8228.7560 270.3213 -9812.0941 -8226.2568 270.3213 -612.8849 -525.9338 30010.4170 -612.8849 -525.9338
ENERGY: 1100000 3.6606 7.6703 14.2428 0.0000 -10952.7400 1477.9995 0.0000 0.0000 1751.6566 -7697.5102 299.0581 -9449.1668 -7693.4401 300.4783 37.0982 161.1635 30593.0146 4.6201 4.6669
ENERGY: 1300000 3.7656 2.7991 13.0623 0.0000 -10872.4244 1403.5299 0.0000 0.0000 1770.1098 -7679.1578 302.2086 -9449.2676 -7676.8497 300.0512 232.8936 352.2791 29919.4908 2.6345 2.7620
ENERGY: 1500000 4.2097 3.9031 15.3865 0.0000 -10944.2390 1405.2967 0.0000 0.0000 1797.7064 -7717.7365 306.9201 -9515.4429 -7714.5456 300.3964 -371.3246 -311.9447 29916.4928 4.2358 4.1747
ENERGY: 1700000 2.8441 4.4389 14.0555 0.0000 -10745.2797 1361.9208 0.0000 0.0000 1736.3109 -7625.7095 296.4381 -9362.0204 -7620.1155 300.6757 -791.4942 -667.6491 31138.1119 3.4019 3.3185
ENERGY: 1900000 4.5129 4.1903 13.2194 0.0000 -10995.5255 1489.4685 0.0000 0.0000 1783.8250 -7700.3095 304.5501 -9484.1345 -7697.3944 300.7299 423.7313 512.0178 30036.7945 3.1237 2.9968
TCL: Exiting due to exit command.
