Info: SIMULATION PARAMETERS:
Info: TIMESTEP               2
Info: NUMBER OF STEPS        0
Info: STEPS PER CYCLE        10
Info: PERIODIC CELL BASIS 1  34.207 0 0
Info: PERIODIC CELL BASIS 2  0 36.762 0
Info: PERIODIC CELL BASIS 3  0 0 34.954
Info: PERIODIC CELL CENTER   0 0 0
Info: WRAPPING WATERS AROUND PERIODIC BOUNDARIES ON OUTPUT.
Info: WRAPPING ALL CLUSTERS AROUND PERIODIC BOUNDARIES ON OUTPUT.
Info: FIRST LDB TIMESTEP     50
Info: LAST LDB TIMESTEP     -1
Info: HOM BACKGROUND SCALING 1
Info: PME BACKGROUND SCALING 1
Info: MIN ATOMS PER PATCH    40
Info: EMPTY PATCH LOAD       40 ATOMS
Info: INITIAL TEMPERATURE    300
Info: CENTER OF MASS MOVING INITIALLY? NO
Info: DIELECTRIC             1
Info: EXCLUDE                SCALED ONE-FOUR
Info: 1-4 ELECTROSTATICS SCALED BY 0.833333
Info: MODIFIED 1-4 VDW PARAMETERS WILL BE USED
Info: DCD FILENAME           mobley_9974966_equil.dcd
Info: DCD FREQUENCY          100000
Info: DCD FIRST STEP         100000
Info: DCD FILE WILL CONTAIN UNIT CELL DATA
Info: XST FILENAME           mobley_9974966_equil.xst
Info: XST FREQUENCY          100000
Info: NO VELOCITY DCD OUTPUT
Info: NO FORCE DCD OUTPUT
Info: OUTPUT FILENAME        mobley_9974966_equil
Info: BINARY OUTPUT FILES WILL BE USED
Info: RESTART FILENAME       mobley_9974966_equil.restart
Info: RESTART FREQUENCY      100000
Info: BINARY RESTART FILES WILL BE USED
Info: CUTOFF                 9
Info: PAIRLIST DISTANCE      11
Info: PAIRLIST SHRINK RATE   0.01
Info: PAIRLIST GROW RATE     0.01
Info: PAIRLIST TRIGGER       0.3
Info: PAIRLISTS PER CYCLE    2
Info: PAIRLISTS ENABLED
Info: MARGIN                 8
Info: HYDROGEN GROUP CUTOFF  2.5
Info: PATCH DIMENSION        21.5
Info: ENERGY OUTPUT STEPS    100000
Info: ENERGY EVALUATION STEPS    100000
Info: OUTPUT ENERGY PRECISION 4
Info: CROSSTERM ENERGY INCLUDED IN DIHEDRAL
Info: TIMING OUTPUT STEPS    1000000
Info: PRESSURE OUTPUT STEPS  100000
Info: LANGEVIN DYNAMICS ACTIVE
Info: LANGEVIN TEMPERATURE   30
Info: LANGEVIN USING BBK INTEGRATOR
Info: LANGEVIN DAMPING COEFFICIENT IS 1 INVERSE PS
Info: LANGEVIN DYNAMICS APPLIED TO HYDROGENS
Info: LANGEVIN PISTON PRESSURE CONTROL ACTIVE
Info:        TARGET PRESSURE IS 1.01325 BAR
Info:     OSCILLATION PERIOD IS 50 FS
Info:             DECAY TIME IS 25 FS
Info:     PISTON TEMPERATURE IS 300 K
Info:       PRESSURE CONTROL IS GROUP-BASED
Info:    INITIAL STRAIN RATE IS 0 0 0
Info:       CELL FLUCTUATION IS ISOTROPIC
Info: PARTICLE MESH EWALD (PME) ACTIVE
Info: PME TOLERANCE               1e-06
Info: PME EWALD COEFFICIENT       0.348832
Info: PME INTERPOLATION ORDER     4
Info: PME GRID DIMENSIONS         36 40 36
Info: PME MAXIMUM GRID SPACING    1
Info: FULL ELECTROSTATIC EVALUATION FREQUENCY      2
Info: USING VERLET I (r-RESPA) MTS SCHEME.
Info: C1 SPLITTING OF LONG RANGE ELECTROSTATICS
Info: PLACING ATOMS IN PATCHES BY HYDROGEN GROUPS
Info: RIGID BONDS TO HYDROGEN : ALL
Info:         ERROR TOLERANCE : 1e-08
Info:          MAX ITERATIONS : 100
Info: RIGID WATER USING SETTLE ALGORITHM
Info: RANDOM NUMBER SEED     1743244424
Info: USE HYDROGEN BONDS?    NO
Info: Using AMBER format force field!
Info: AMBER PARM FILE        mobley_9974966.prmtop
Info: COORDINATE PDB         mobley_9974966.pdb
Info: Exclusions will be read from PARM file!
Info: SCNB (VDW SCALING)     2
Info: USING ARITHMETIC MEAN TO COMBINE L-J SIGMA PARAMETERS
Info: BINARY COORDINATES     mobley_9974966_min.coor
Info: SUMMARY OF PARAMETERS:
Info: 6 BONDS
Info: 7 ANGLES
Info:   7 HARMONIC
Info:   0 COSINE-BASED
Info: 3 DIHEDRAL
Info: 0 IMPROPER
Info: 0 CROSSTERM
Info: 0 VDW
Info: 21 VDW_PAIRS
Info: 0 NBTHOLE_PAIRS
Info: STRUCTURE SUMMARY:
Info: 2901 ATOMS
Info: 2900 BONDS
Info: 37 ANGLES
Info: 42 DIHEDRALS
Info: 0 IMPROPERS
Info: 0 CROSSTERMS
Info: 2979 EXCLUSIONS
Info: 2894 RIGID BONDS
Info: 5809 DEGREES OF FREEDOM
Info: 967 HYDROGEN GROUPS
Info: 4 ATOMS IN LARGEST HYDROGEN GROUP
Info: 967 MIGRATION GROUPS
Info: 4 ATOMS IN LARGEST MIGRATION GROUP
Info: TOTAL MASS = 17413.6 amu
Info: TOTAL CHARGE = 0.000399999 e
Info: MASS DENSITY = 0.657865 g/cm^3
Info: ATOM DENSITY = 0.0659989 atoms/A^3
Info: ADDED 0 IMPLICIT EXCLUSIONS
Info: NONBONDED TABLE R-SQUARED SPACING: 0.0625
Info: NONBONDED TABLE SIZE: 705 POINTS
Info: REMOVING COM VELOCITY -0.0855042 0.074169 -0.0477315
TCL: Running for 100000 steps
ETITLE: TS BOND ANGLE DIHED IMPRP ELECT VDW BOUNDARY MISC KINETIC TOTAL TEMP POTENTIAL TOTAL3 TEMPAVG PRESSURE GPRESSURE VOLUME PRESSAVG GPRESSAVG
ENERGY: 0 0.0645 0.4540 0.9849 0.0000 -13412.7986 2375.5739 0.0000 0.0000 1779.4844 -9256.2369 308.3069 -11035.7213 -9255.8760 308.3069 646.0224 681.3656 43955.2749 646.0224 681.3656
ENERGY: 100000 0.2822 1.1864 0.5623 0.0000 -13802.0663 2264.5542 0.0000 0.0000 175.1616 -11360.3197 30.3478 -11535.4813 -11359.8189 30.9927 -1295.5192 -1223.3063 28138.7221 4.2436 4.3386
TCL: Running 100000 steps at 60 kelvin.
TCL: Setting parameter langevinTemp to 60
TCL: Running for 100000 steps
ETITLE: TS BOND ANGLE DIHED IMPRP ELECT VDW BOUNDARY MISC KINETIC TOTAL TEMP POTENTIAL TOTAL3 TEMPAVG PRESSURE GPRESSURE VOLUME PRESSAVG GPRESSAVG
ENERGY: 100000 0.2822 1.1864 0.5623 0.0000 -13802.0663 2264.5542 0.0000 0.0000 175.0741 -11360.4072 30.3327 -11535.4813 -11359.8949 30.3327 -1288.9200 -1223.4463 28138.7221 -1288.9200 -1223.4463
ENERGY: 200000 0.2787 2.4383 0.3503 0.0000 -13912.9722 2488.4517 0.0000 0.0000 340.8054 -11080.6478 59.0467 -11421.4532 -11079.4973 59.9223 1127.1006 1199.0218 28040.2633 3.9703 3.8873
TCL: Running 100000 steps at 90 kelvin.
TCL: Setting parameter langevinTemp to 90
TCL: Running for 100000 steps
ETITLE: TS BOND ANGLE DIHED IMPRP ELECT VDW BOUNDARY MISC KINETIC TOTAL TEMP POTENTIAL TOTAL3 TEMPAVG PRESSURE GPRESSURE VOLUME PRESSAVG GPRESSAVG
ENERGY: 200000 0.2787 2.4383 0.3503 0.0000 -13912.9722 2488.4517 0.0000 0.0000 340.6280 -11080.8252 59.0159 -11421.4532 -11080.1519 59.0159 1123.7666 1199.2551 28040.2633 1123.7666 1199.2551
ENERGY: 300000 0.9224 2.7936 1.2329 0.0000 -13800.0786 2416.7437 0.0000 0.0000 515.7126 -10862.6735 89.3504 -11378.3861 -10860.9155 89.9054 676.3588 743.9065 28063.6391 4.9878 4.9176
TCL: Running 100000 steps at 120 kelvin.
TCL: Setting parameter langevinTemp to 120
TCL: Running for 100000 steps
ETITLE: TS BOND ANGLE DIHED IMPRP ELECT VDW BOUNDARY MISC KINETIC TOTAL TEMP POTENTIAL TOTAL3 TEMPAVG PRESSURE GPRESSURE VOLUME PRESSAVG GPRESSAVG
ENERGY: 300000 0.9224 2.7936 1.2329 0.0000 -13800.0786 2416.7437 0.0000 0.0000 515.4671 -10862.9190 89.3079 -11378.3861 -10861.6905 89.3079 683.8436 744.7688 28063.6391 683.8436 744.7688
ENERGY: 400000 0.2797 4.6043 2.7569 0.0000 -13504.7979 2262.3851 0.0000 0.0000 698.0607 -10536.7111 120.9434 -11234.7719 -10535.2306 120.0123 -22.8501 25.0058 28181.2121 4.5082 4.4560
TCL: Running 100000 steps at 150 kelvin.
TCL: Setting parameter langevinTemp to 150
TCL: Running for 100000 steps
ETITLE: TS BOND ANGLE DIHED IMPRP ELECT VDW BOUNDARY MISC KINETIC TOTAL TEMP POTENTIAL TOTAL3 TEMPAVG PRESSURE GPRESSURE VOLUME PRESSAVG GPRESSAVG
ENERGY: 400000 0.2797 4.6043 2.7569 0.0000 -13504.7979 2262.3851 0.0000 0.0000 697.7019 -10537.0700 120.8812 -11234.7719 -10535.6549 120.8812 -41.3662 24.7163 28181.2121 -41.3662 24.7163
ENERGY: 500000 0.4133 5.4064 1.4828 0.0000 -13289.2243 2194.3193 0.0000 0.0000 858.5122 -10229.0904 148.7426 -11087.6026 -10228.7188 149.6942 -127.4744 -126.2431 28217.4758 4.3156 4.2304
TCL: Running 100000 steps at 180 kelvin.
TCL: Setting parameter langevinTemp to 180
TCL: Running for 100000 steps
ETITLE: TS BOND ANGLE DIHED IMPRP ELECT VDW BOUNDARY MISC KINETIC TOTAL TEMP POTENTIAL TOTAL3 TEMPAVG PRESSURE GPRESSURE VOLUME PRESSAVG GPRESSAVG
ENERGY: 500000 0.4133 5.4064 1.4828 0.0000 -13289.2243 2194.3193 0.0000 0.0000 858.0943 -10229.5083 148.6702 -11087.6026 -10227.4401 148.6702 -178.3257 -128.3905 28217.4758 -178.3257 -128.3905
ENERGY: 600000 2.2968 6.1771 2.3427 0.0000 -12818.1309 2054.6212 0.0000 0.0000 1064.7571 -9687.9359 184.4759 -10752.6930 -9685.9314 180.3012 -182.9638 -80.6476 28391.0578 3.8671 4.0444
TCL: Running 100000 steps at 210 kelvin.
TCL: Setting parameter langevinTemp to 210
TCL: Running for 100000 steps
ETITLE: TS BOND ANGLE DIHED IMPRP ELECT VDW BOUNDARY MISC KINETIC TOTAL TEMP POTENTIAL TOTAL3 TEMPAVG PRESSURE GPRESSURE VOLUME PRESSAVG GPRESSAVG
ENERGY: 600000 2.2968 6.1771 2.3427 0.0000 -12818.1309 2054.6212 0.0000 0.0000 1064.2528 -9688.4402 184.3885 -10752.6930 -9686.2633 184.3885 -140.9160 -82.1671 28391.0578 -140.9160 -82.1671
ENERGY: 700000 1.8841 5.5467 0.7525 0.0000 -12196.4135 1879.5375 0.0000 0.0000 1201.3480 -9107.3446 208.1411 -10308.6927 -9102.4255 210.0401 4.2403 104.2265 28480.5094 4.3261 4.4804
TCL: Running 100000 steps at 240 kelvin.
TCL: Setting parameter langevinTemp to 240
TCL: Running for 100000 steps
ETITLE: TS BOND ANGLE DIHED IMPRP ELECT VDW BOUNDARY MISC KINETIC TOTAL TEMP POTENTIAL TOTAL3 TEMPAVG PRESSURE GPRESSURE VOLUME PRESSAVG GPRESSAVG
ENERGY: 700000 1.8841 5.5467 0.7525 0.0000 -12196.4135 1879.5375 0.0000 0.0000 1200.7298 -9107.9628 208.0340 -10308.6927 -9106.1306 208.0340 24.8282 106.5807 28480.5094 24.8282 106.5807
ENERGY: 800000 1.3143 9.2961 1.8541 0.0000 -11447.3085 1595.0990 0.0000 0.0000 1418.9140 -8420.8309 245.8358 -9839.7450 -8417.5243 239.8144 -493.2304 -431.8493 28413.3660 4.2932 4.0698
TCL: Running 100000 steps at 270 kelvin.
TCL: Setting parameter langevinTemp to 270
TCL: Running for 100000 steps
ETITLE: TS BOND ANGLE DIHED IMPRP ELECT VDW BOUNDARY MISC KINETIC TOTAL TEMP POTENTIAL TOTAL3 TEMPAVG PRESSURE GPRESSURE VOLUME PRESSAVG GPRESSAVG
ENERGY: 800000 1.3143 9.2961 1.8541 0.0000 -11447.3085 1595.0990 0.0000 0.0000 1418.2565 -8421.4885 245.7219 -9839.7450 -8419.3201 245.7219 -508.0985 -431.2612 28413.3660 -508.0985 -431.2612
ENERGY: 900000 1.0105 8.8505 2.3416 0.0000 -11163.8874 1607.5104 0.0000 0.0000 1595.5643 -7948.6102 276.4415 -9544.1745 -7944.7923 270.1673 594.6612 647.9942 28769.1622 3.6757 3.7811
TCL: Running 1000000 steps at 300 kelvin.
TCL: Setting parameter langevinTemp to 300
TCL: Running for 1000000 steps
ETITLE: TS BOND ANGLE DIHED IMPRP ELECT VDW BOUNDARY MISC KINETIC TOTAL TEMP POTENTIAL TOTAL3 TEMPAVG PRESSURE GPRESSURE VOLUME PRESSAVG GPRESSAVG
ENERGY: 900000 1.0105 8.8505 2.3416 0.0000 -11163.8874 1607.5104 0.0000 0.0000 1594.7968 -7949.3777 276.3086 -9544.1745 -7946.6243 276.3086 568.2557 647.4636 28769.1622 568.2557 647.4636
ENERGY: 1100000 2.0166 13.1473 1.9602 0.0000 -10506.1016 1368.5103 0.0000 0.0000 1653.8372 -7466.6299 286.5377 -9120.4671 -7459.6813 300.5125 -579.9946 -474.9110 29794.7687 2.7708 2.7240
ENERGY: 1300000 2.4013 8.8844 2.4349 0.0000 -10626.5446 1491.4568 0.0000 0.0000 1716.2071 -7405.1599 297.3437 -9121.3671 -7401.5255 300.0505 640.2126 714.5101 29759.6966 4.6535 4.5879
ENERGY: 1500000 2.4836 9.2772 1.9539 0.0000 -10442.6285 1381.4589 0.0000 0.0000 1771.3560 -7276.0990 306.8986 -9047.4550 -7273.0235 300.1579 63.2084 169.7722 29664.2585 3.6289 3.5357
ENERGY: 1700000 2.3537 7.5944 2.2528 0.0000 -10551.3806 1467.8444 0.0000 0.0000 1691.0301 -7380.3051 292.9816 -9071.3352 -7377.2336 300.5240 335.1311 442.8782 29750.2812 3.9639 3.8619
ENERGY: 1900000 0.5132 12.0986 1.8711 0.0000 -10601.5145 1465.6954 0.0000 0.0000 1745.9990 -7375.3372 302.5053 -9121.3362 -7372.6093 300.4228 350.9783 486.1310 29627.0503 1.3759 1.4073
TCL: Exiting due to exit command.
