Info: SIMULATION PARAMETERS:
Info: TIMESTEP               2
Info: NUMBER OF STEPS        0
Info: STEPS PER CYCLE        10
Info: PERIODIC CELL BASIS 1  30.8463 0 0
Info: PERIODIC CELL BASIS 2  0 31.0941 0
Info: PERIODIC CELL BASIS 3  0 0 31.3136
Info: PERIODIC CELL CENTER   0 0 0
Info: WRAPPING WATERS AROUND PERIODIC BOUNDARIES ON OUTPUT.
Info: WRAPPING ALL CLUSTERS AROUND PERIODIC BOUNDARIES ON OUTPUT.
Info: FIRST LDB TIMESTEP     50
Info: LAST LDB TIMESTEP     -1
Info: HOM BACKGROUND SCALING 1
Info: PME BACKGROUND SCALING 1
Info: MIN ATOMS PER PATCH    40
Info: EMPTY PATCH LOAD       40 ATOMS
Info: VELOCITY FILE          mobley_5631798_equil.vel
Info: CENTER OF MASS MOVING INITIALLY? NO
Info: DIELECTRIC             1
Info: EXCLUDE                SCALED ONE-FOUR
Info: 1-4 ELECTROSTATICS SCALED BY 0.833333
Info: MODIFIED 1-4 VDW PARAMETERS WILL BE USED
Info: DCD FILENAME           mobley_5631798_prod.dcd
Info: DCD FREQUENCY          100000
Info: DCD FIRST STEP         100000
Info: DCD FILE WILL CONTAIN UNIT CELL DATA
Info: XST FILENAME           mobley_5631798_prod.xst
Info: XST FREQUENCY          100000
Info: NO VELOCITY DCD OUTPUT
Info: NO FORCE DCD OUTPUT
Info: OUTPUT FILENAME        mobley_5631798_prod
Info: BINARY OUTPUT FILES WILL BE USED
Info: RESTART FILENAME       mobley_5631798_prod.restart
Info: RESTART FREQUENCY      100000
Info: BINARY RESTART FILES WILL BE USED
Info: CUTOFF                 9
Info: PAIRLIST DISTANCE      11
Info: PAIRLIST SHRINK RATE   0.01
Info: PAIRLIST GROW RATE     0.01
Info: PAIRLIST TRIGGER       0.3
Info: PAIRLISTS PER CYCLE    2
Info: PAIRLISTS ENABLED
Info: MARGIN                 2
Info: HYDROGEN GROUP CUTOFF  2.5
Info: PATCH DIMENSION        15.5
Info: ENERGY OUTPUT STEPS    100000
Info: ENERGY EVALUATION STEPS    100000
Info: OUTPUT ENERGY PRECISION 4
Info: CROSSTERM ENERGY INCLUDED IN DIHEDRAL
Info: TIMING OUTPUT STEPS    1000000
Info: PRESSURE OUTPUT STEPS  100000
Info: ALCHEMICAL FEP ON
Info: FEP CURRENT LAMBDA VALUE     0
Info: FEP COMPARISON LAMBDA VALUE  0.05
Info: FEP INTRA-ALCHEMICAL NON-BONDED INTERACTIONS WILL BE RETAINED
Info: FEP INTRA-ALCHEMICAL BONDED INTERACTIONS WILL BE RETAINED
Info: FEP VDW SHIFTING COEFFICIENT 5
Info: FEP ELEC. ACTIVE FOR ANNIHILATED PARTICLES BETWEEN LAMBDA = 0 AND LAMBDA = 0.5
Info: FEP ELEC. ACTIVE FOR EXNIHILATED PARTICLES BETWEEN LAMBDA = 0.5 AND LAMBDA = 1
Info: FEP VDW ACTIVE FOR ANNIHILATED PARTICLES BETWEEN LAMBDA = 0 AND LAMBDA = 1
Info: FEP VDW ACTIVE FOR EXNIHILATED PARTICLES BETWEEN LAMBDA = 0 AND LAMBDA = 1
Info: FEP BOND ACTIVE FOR ANNIHILATED PARTICLES BETWEEN LAMBDA = 1 AND LAMBDA = 1
Info: FEP BOND ACTIVE FOR EXNIHILATED PARTICLES BETWEEN LAMBDA = 0 AND LAMBDA = 0
Info: LANGEVIN DYNAMICS ACTIVE
Info: LANGEVIN TEMPERATURE   300
Info: LANGEVIN USING BBK INTEGRATOR
Info: LANGEVIN DAMPING COEFFICIENT IS 1 INVERSE PS
Info: LANGEVIN DYNAMICS APPLIED TO HYDROGENS
Info: LANGEVIN PISTON PRESSURE CONTROL ACTIVE
Info:        TARGET PRESSURE IS 1.01325 BAR
Info:     OSCILLATION PERIOD IS 50 FS
Info:             DECAY TIME IS 25 FS
Info:     PISTON TEMPERATURE IS 300 K
Info:       PRESSURE CONTROL IS GROUP-BASED
Info:    INITIAL STRAIN RATE IS 0.000505809 0.000505809 0.000505809
Info:       CELL FLUCTUATION IS ISOTROPIC
Info: PARTICLE MESH EWALD (PME) ACTIVE
Info: PME TOLERANCE               1e-06
Info: PME EWALD COEFFICIENT       0.348832
Info: PME INTERPOLATION ORDER     4
Info: PME GRID DIMENSIONS         32 32 32
Info: PME MAXIMUM GRID SPACING    1
Info: PME CALCULATION WILL BE PERFORMED ON GPU
Info: FULL ELECTROSTATIC EVALUATION FREQUENCY      2
Info: USING VERLET I (r-RESPA) MTS SCHEME.
Info: C1 SPLITTING OF LONG RANGE ELECTROSTATICS
Info: PLACING ATOMS IN PATCHES BY HYDROGEN GROUPS
Info: RIGID BONDS TO HYDROGEN : ALL
Info:         ERROR TOLERANCE : 1e-08
Info:          MAX ITERATIONS : 100
Info: RIGID WATER USING SETTLE ALGORITHM
Info: RANDOM NUMBER SEED     1743390125
Info: USE HYDROGEN BONDS?    NO
Info: Using AMBER format force field!
Info: AMBER PARM FILE        mobley_5631798.prmtop
Info: COORDINATE PDB         mobley_5631798.pdb
Info: Exclusions will be read from PARM file!
Info: SCNB (VDW SCALING)     2
Info: USING ARITHMETIC MEAN TO COMBINE L-J SIGMA PARAMETERS
Info: BINARY COORDINATES     mobley_5631798_equil.coor
Info: SUMMARY OF PARAMETERS:
Info: 3 BONDS
Info: 1 ANGLES
Info:   1 HARMONIC
Info:   0 COSINE-BASED
Info: 0 DIHEDRAL
Info: 0 IMPROPER
Info: 0 CROSSTERM
Info: 0 VDW
Info: 10 VDW_PAIRS
Info: 0 NBTHOLE_PAIRS
Info: To read alchdata from file: mobley_5631798.pdb
Info: To read alchflag data from column: 5
Info: STRUCTURE SUMMARY:
Info: 2932 ATOMS
Info: 2931 BONDS
Info: 3 ANGLES
Info: 0 DIHEDRALS
Info: 0 IMPROPERS
Info: 0 CROSSTERMS
Info: 2934 EXCLUSIONS
Info: 2931 RIGID BONDS
Info: ALCH: 0 ATOMS TO DISAPPEAR IN FINAL STATE
Info: ALCH: 4 ATOMS TO APPEAR IN FINAL STATE
Info: 5865 DEGREES OF FREEDOM
Info: 977 HYDROGEN GROUPS
Info: 4 ATOMS IN LARGEST HYDROGEN GROUP
Info: 977 MIGRATION GROUPS
Info: 4 ATOMS IN LARGEST MIGRATION GROUP
Info: TOTAL MASS = 17600.7 amu
Info: TOTAL CHARGE = 9.99868e-05 e
Info: MASS DENSITY = 0.973135 g/cm^3
Info: ATOM DENSITY = 0.0976223 atoms/A^3
Info: ADDED 0 IMPLICIT EXCLUSIONS
Info: NONBONDED TABLE R-SQUARED SPACING: 0.0625
Info: NONBONDED TABLE SIZE: 705 POINTS
Info: REMOVING COM VELOCITY -0.088458 0.229982 0.22525
Info: Use 3D box decompostion in PME FFT.
Info: Updated CUDA force table with 4096 elements.
Info: Updated CUDA LJ table with 4 x 4 elements.
Info: Found 7 unique exclusion lists needing 8 bytes
TCL: Running for 1500000 steps
ETITLE: TS BOND ANGLE DIHED IMPRP ELECT VDW BOUNDARY MISC KINETIC TOTAL TEMP POTENTIAL TOTALAVG TEMPAVG PRESSURE GPRESSURE VOLUME PRESSAVG GPRESSAVG
ENERGY: 0 0.0000 0.6816 0.0000 0.0000 -10692.6436 1488.1641 0.0000 0.0000 1799.8549 -7403.9430 308.8587 -9203.7979 -7403.9430 308.8587 509.4283 587.6550 30034.1188 509.4283 587.6550
ENERGY: 300000 0.0000 0.4823 0.0000 0.0000 -10765.3991 1501.7618 0.0000 0.0000 1751.8386 -7511.3164 300.6190 -9263.1549 -7446.4679 305.1378 443.0309 492.2165 30081.3970 284.6029 328.4749
ENERGY: 600000 0.0000 0.5888 0.0000 0.0000 -10889.5560 1581.8882 0.0000 0.0000 1753.2261 -7553.8529 300.8571 -9307.0790 -7448.9517 304.9724 916.0129 1035.6093 29946.0422 401.4361 461.1385
ENERGY: 900000 0.0000 0.6304 0.0000 0.0000 -10575.2282 1386.9782 0.0000 0.0000 1783.9394 -7403.6802 306.1276 -9187.6196 -7438.4889 304.8582 -125.8323 -111.4026 30028.9213 307.9448 360.7787
ENERGY: 1200000 0.0000 1.7383 0.0000 0.0000 -10482.1128 1359.1703 0.0000 0.0000 1742.4309 -7378.7734 299.0046 -9121.2042 -7443.3330 302.9671 -400.3091 -380.3911 30643.6480 228.2739 281.4342
ENERGY: 1500000 0.0000 0.3259 0.0000 0.0000 -10715.9904 1444.0364 0.0000 0.0000 1758.7995 -7512.8286 301.8135 -9271.6281 -7448.6286 302.3635 1.9159 91.9505 29998.0231 205.2241 261.5687
TCL: Running FEP window   2: Lambda1 0.05   Lambda2 0.1    [dLambda 0.05  ]
TCL: Setting parameter firsttimestep to 0
TCL: Setting parameter alchLambda to 0.05
Info: NONBONDED TABLE R-SQUARED SPACING: 0.0625
Info: NONBONDED TABLE SIZE: 705 POINTS
TCL: Setting parameter alchLambda2 to 0.1
Info: NONBONDED TABLE R-SQUARED SPACING: 0.0625
Info: NONBONDED TABLE SIZE: 705 POINTS
TCL: Running for 1500000 steps
ETITLE: TS BOND ANGLE DIHED IMPRP ELECT VDW BOUNDARY MISC KINETIC TOTAL TEMP POTENTIAL TOTALAVG TEMPAVG PRESSURE GPRESSURE VOLUME PRESSAVG GPRESSAVG
ENERGY: 0 0.0000 0.3259 0.0000 0.0000 -10715.9914 1445.2242 0.0000 0.0000 1757.9644 -7512.4769 301.6702 -9270.4413 -7512.4769 301.6702 21.7198 93.8240 29998.0231 21.7198 93.8240
ENERGY: 300000 0.0000 0.2449 0.0000 0.0000 -10784.5190 1510.6367 0.0000 0.0000 1728.8783 -7544.7591 296.6790 -9273.6374 -7487.7573 298.6476 591.6880 698.4291 29640.5988 72.1980 162.7123
ENERGY: 600000 0.0000 0.5132 0.0000 0.0000 -10707.7206 1414.6914 0.0000 0.0000 1733.1846 -7559.3314 297.4180 -9292.5160 -7476.8303 300.0742 -172.1001 -112.2516 29668.0107 -5.7382 68.1944
ENERGY: 900000 0.0000 1.0104 0.0000 0.0000 -10623.5448 1430.4122 0.0000 0.0000 1775.3427 -7416.7794 304.6524 -9192.1221 -7473.6515 300.0813 137.5189 212.2296 30162.4418 27.6000 106.5133
ENERGY: 1200000 0.0000 1.9761 0.0000 0.0000 -10662.4506 1459.5564 0.0000 0.0000 1729.4722 -7471.4459 296.7809 -9200.9181 -7473.5342 300.5135 60.3018 105.2613 30330.9642 32.2799 104.1223
ENERGY: 1500000 0.0000 1.4995 0.0000 0.0000 -10629.9019 1389.9425 0.0000 0.0000 1749.6076 -7488.8523 300.2362 -9238.4599 -7469.0717 300.6403 -347.1959 -313.1122 30259.6166 3.8306 70.8274
TCL: Running FEP window   3: Lambda1 0.1    Lambda2 0.15000000000000002 [dLambda 0.05000000000000002]
TCL: Setting parameter firsttimestep to 0
TCL: Setting parameter alchLambda to 0.1
Info: NONBONDED TABLE R-SQUARED SPACING: 0.0625
Info: NONBONDED TABLE SIZE: 705 POINTS
TCL: Setting parameter alchLambda2 to 0.15000000000000002
Info: NONBONDED TABLE R-SQUARED SPACING: 0.0625
Info: NONBONDED TABLE SIZE: 705 POINTS
TCL: Running for 1500000 steps
ETITLE: TS BOND ANGLE DIHED IMPRP ELECT VDW BOUNDARY MISC KINETIC TOTAL TEMP POTENTIAL TOTALAVG TEMPAVG PRESSURE GPRESSURE VOLUME PRESSAVG GPRESSAVG
ENERGY: 0 0.0000 1.4995 0.0000 0.0000 -10629.9004 1389.9487 0.0000 0.0000 1748.7083 -7489.7439 300.0819 -9238.4523 -7489.7439 300.0819 -394.7031 -313.2254 30259.6166 -394.7031 -313.2254
ENERGY: 300000 0.0000 0.8885 0.0000 0.0000 -10668.0572 1472.2701 0.0000 0.0000 1771.9570 -7422.9415 304.0714 -9194.8985 -7442.4524 302.0267 661.7862 697.0611 29855.2258 -98.3327 -50.0321
ENERGY: 600000 0.0000 1.1962 0.0000 0.0000 -10583.9431 1365.7523 0.0000 0.0000 1797.2114 -7419.7832 308.4051 -9216.9946 -7456.3562 302.1912 -488.8735 -394.9932 30090.6659 -151.2088 -88.5347
ENERGY: 900000 0.0000 3.2412 0.0000 0.0000 -10700.3600 1477.7470 0.0000 0.0000 1733.7855 -7485.5864 297.5211 -9219.3718 -7460.7562 302.0088 244.5190 304.5367 30117.0337 -241.8271 -177.9574
ENERGY: 1200000 0.0000 1.6924 0.0000 0.0000 -10492.4170 1332.6112 0.0000 0.0000 1737.5073 -7420.6061 298.1597 -9158.1134 -7467.4301 300.3878 -774.6882 -729.7687 30463.6686 -294.4352 -233.9438
ENERGY: 1500000 0.0000 0.2789 0.0000 0.0000 -10722.7277 1426.0951 0.0000 0.0000 1791.0111 -7505.3427 307.3411 -9296.3538 -7469.7306 300.7675 -395.8348 -337.7712 30322.6687 -335.2435 -272.9398
TCL: Running FEP window   4: Lambda1 0.15000000000000002 Lambda2 0.2    [dLambda 0.04999999999999999]
TCL: Setting parameter firsttimestep to 0
TCL: Setting parameter alchLambda to 0.15000000000000002
Info: NONBONDED TABLE R-SQUARED SPACING: 0.0625
Info: NONBONDED TABLE SIZE: 705 POINTS
TCL: Setting parameter alchLambda2 to 0.2
Info: NONBONDED TABLE R-SQUARED SPACING: 0.0625
Info: NONBONDED TABLE SIZE: 705 POINTS
TCL: Running for 1500000 steps
ETITLE: TS BOND ANGLE DIHED IMPRP ELECT VDW BOUNDARY MISC KINETIC TOTAL TEMP POTENTIAL TOTALAVG TEMPAVG PRESSURE GPRESSURE VOLUME PRESSAVG GPRESSAVG
ENERGY: 0 0.0000 0.2789 0.0000 0.0000 -10722.7279 1426.1219 0.0000 0.0000 1790.1376 -7506.1895 307.1912 -9296.3271 -7506.1895 307.1912 -414.1434 -337.2407 30322.6687 -414.1434 -337.2407
ENERGY: 300000 0.0000 1.6003 0.0000 0.0000 -10755.7166 1425.8081 0.0000 0.0000 1730.2927 -7598.0155 296.9217 -9328.3082 -7497.8146 304.1531 -164.6076 -105.5931 29947.5813 45.7750 99.6170
ENERGY: 600000 0.0000 0.4073 0.0000 0.0000 -10665.9101 1377.4122 0.0000 0.0000 1759.5271 -7528.5636 301.9384 -9288.0906 -7473.0908 304.0845 -665.7865 -584.9231 30287.9502 90.8438 152.1350
ENERGY: 900000 0.0000 0.8671 0.0000 0.0000 -10651.1636 1433.9420 0.0000 0.0000 1755.3912 -7460.9633 301.2287 -9216.3545 -7465.7262 302.9643 -125.3764 -27.8312 30101.6394 111.7066 178.6810
ENERGY: 1200000 0.0000 0.1058 0.0000 0.0000 -10830.5121 1527.6437 0.0000 0.0000 1746.1304 -7556.6322 299.6395 -9302.7626 -7480.3540 301.8381 539.5058 579.9962 29897.7425 106.6128 167.6370
ENERGY: 1500000 0.0000 1.9442 0.0000 0.0000 -10563.2408 1428.6709 0.0000 0.0000 1791.4184 -7341.2074 307.4110 -9132.6258 -7471.5133 302.7307 237.0784 215.1508 30302.7883 74.7686 128.2764
TCL: Running FEP window   5: Lambda1 0.2    Lambda2 0.25   [dLambda 0.04999999999999999]
TCL: Setting parameter firsttimestep to 0
TCL: Setting parameter alchLambda to 0.2
Info: NONBONDED TABLE R-SQUARED SPACING: 0.0625
Info: NONBONDED TABLE SIZE: 705 POINTS
TCL: Setting parameter alchLambda2 to 0.25
Info: NONBONDED TABLE R-SQUARED SPACING: 0.0625
Info: NONBONDED TABLE SIZE: 705 POINTS
TCL: Running for 1500000 steps
ETITLE: TS BOND ANGLE DIHED IMPRP ELECT VDW BOUNDARY MISC KINETIC TOTAL TEMP POTENTIAL TOTALAVG TEMPAVG PRESSURE GPRESSURE VOLUME PRESSAVG GPRESSAVG
ENERGY: 0 0.0000 1.9442 0.0000 0.0000 -10563.2398 1428.6678 0.0000 0.0000 1790.5041 -7342.1237 307.2541 -9132.6278 -7342.1237 307.2541 135.2210 215.7577 30302.7883 135.2210 215.7577
ENERGY: 300000 0.0000 0.3964 0.0000 0.0000 -10604.2892 1417.0707 0.0000 0.0000 1735.8125 -7451.0096 297.8689 -9186.8221 -7443.1621 298.6551 -253.9547 -205.5141 30622.9642 50.7676 88.1148
ENERGY: 600000 0.0000 0.0289 0.0000 0.0000 -10653.7081 1404.0228 0.0000 0.0000 1723.4834 -7526.1730 295.7532 -9249.6564 -7437.8196 299.1655 -127.3696 -80.3509 29964.5943 14.8053 66.0652
ENERGY: 900000 0.0000 0.6912 0.0000 0.0000 -10638.4667 1394.1667 0.0000 0.0000 1810.3938 -7433.2150 310.6672 -9243.6088 -7447.0396 300.1439 -416.1783 -436.5345 30497.9811 -116.4717 -74.5410
ENERGY: 1200000 0.0000 1.0023 0.0000 0.0000 -10754.5606 1513.9232 0.0000 0.0000 1760.8107 -7478.8244 302.1587 -9239.6351 -7443.9588 301.1848 660.6874 707.0991 29919.5263 -51.5728 -7.6660
ENERGY: 1500000 0.0000 0.9665 0.0000 0.0000 -10698.1829 1429.7122 0.0000 0.0000 1754.8987 -7512.6054 301.1441 -9267.5042 -7450.3341 301.3035 -173.9554 -125.0244 30135.9249 -43.7758 -0.4641
TCL: Running FEP window   6: Lambda1 0.25   Lambda2 0.3    [dLambda 0.04999999999999999]
TCL: Setting parameter firsttimestep to 0
TCL: Setting parameter alchLambda to 0.25
Info: NONBONDED TABLE R-SQUARED SPACING: 0.0625
Info: NONBONDED TABLE SIZE: 705 POINTS
TCL: Setting parameter alchLambda2 to 0.3
Info: NONBONDED TABLE R-SQUARED SPACING: 0.0625
Info: NONBONDED TABLE SIZE: 705 POINTS
TCL: Running for 1500000 steps
ETITLE: TS BOND ANGLE DIHED IMPRP ELECT VDW BOUNDARY MISC KINETIC TOTAL TEMP POTENTIAL TOTALAVG TEMPAVG PRESSURE GPRESSURE VOLUME PRESSAVG GPRESSAVG
ENERGY: 0 0.0000 0.9665 0.0000 0.0000 -10698.1816 1430.2523 0.0000 0.0000 1754.0303 -7512.9324 300.9951 -9266.9628 -7512.9324 300.9951 -207.3102 -123.5836 30135.9249 -207.3102 -123.5836
ENERGY: 300000 0.0000 1.6269 0.0000 0.0000 -10636.2065 1405.6440 0.0000 0.0000 1709.5924 -7519.3432 293.3695 -9228.9356 -7500.3591 299.1568 -290.1683 -247.2317 30305.8896 -230.0608 -180.0804
ENERGY: 600000 0.0000 1.8890 0.0000 0.0000 -10640.5034 1406.3215 0.0000 0.0000 1736.7927 -7495.5002 298.0371 -9232.2929 -7492.3717 301.0341 -55.0747 -8.3050 29799.3908 -222.1568 -171.4898
ENERGY: 900000 0.0000 3.0511 0.0000 0.0000 -10651.9213 1428.4500 0.0000 0.0000 1757.1268 -7463.2935 301.5265 -9220.4202 -7489.2272 300.4953 49.5531 96.7401 30090.9330 -187.6426 -144.8093
ENERGY: 1200000 0.0000 0.3157 0.0000 0.0000 -10802.6765 1518.8684 0.0000 0.0000 1800.8013 -7482.6911 309.0211 -9283.4923 -7486.8459 300.8271 677.6652 721.4514 29791.1824 -151.6182 -106.9252
ENERGY: 1500000 0.0000 1.2502 0.0000 0.0000 -10685.6994 1494.2277 0.0000 0.0000 1756.0323 -7434.1891 301.3387 -9190.2215 -7481.7330 300.2245 449.7776 519.7566 30284.5599 -99.5019 -49.6045
TCL: Running FEP window   7: Lambda1 0.3    Lambda2 0.35   [dLambda 0.04999999999999999]
TCL: Setting parameter firsttimestep to 0
TCL: Setting parameter alchLambda to 0.3
Info: NONBONDED TABLE R-SQUARED SPACING: 0.0625
Info: NONBONDED TABLE SIZE: 705 POINTS
TCL: Setting parameter alchLambda2 to 0.35
Info: NONBONDED TABLE R-SQUARED SPACING: 0.0625
Info: NONBONDED TABLE SIZE: 705 POINTS
TCL: Running for 1500000 steps
ETITLE: TS BOND ANGLE DIHED IMPRP ELECT VDW BOUNDARY MISC KINETIC TOTAL TEMP POTENTIAL TOTALAVG TEMPAVG PRESSURE GPRESSURE VOLUME PRESSAVG GPRESSAVG
ENERGY: 0 0.0000 1.2502 0.0000 0.0000 -10685.6985 1494.1969 0.0000 0.0000 1755.1828 -7435.0686 301.1929 -9190.2514 -7435.0686 301.1929 443.8146 521.9340 30284.5599 443.8146 521.9340
ENERGY: 300000 0.0000 0.1186 0.0000 0.0000 -10728.0782 1396.6791 0.0000 0.0000 1780.5725 -7550.7081 305.5498 -9331.2806 -7460.0305 301.3357 -518.5813 -442.9613 29764.9656 -107.6717 -55.7300
ENERGY: 600000 0.0000 1.1420 0.0000 0.0000 -10668.6542 1398.8676 0.0000 0.0000 1778.3425 -7490.3022 305.1671 -9268.6446 -7461.1555 302.9925 -508.5339 -407.3253 30175.5021 -210.3935 -153.0253
ENERGY: 900000 0.0000 1.7194 0.0000 0.0000 -10774.5990 1477.8251 0.0000 0.0000 1781.3693 -7513.6852 305.6865 -9295.0545 -7465.8058 302.8869 495.7923 512.6522 29711.2385 -142.3473 -83.9906
ENERGY: 1200000 0.0000 1.0133 0.0000 0.0000 -10570.0817 1357.5523 0.0000 0.0000 1696.8644 -7514.6518 291.1853 -9211.5161 -7472.0591 302.0418 -720.2529 -705.5475 30452.7235 -230.4138 -175.8137
ENERGY: 1500000 0.0000 2.1624 0.0000 0.0000 -10688.2916 1428.6588 0.0000 0.0000 1712.5945 -7544.8758 293.8847 -9257.4703 -7485.0516 300.2876 -113.3137 -85.4333 30236.9300 -192.8613 -140.9531
TCL: Running FEP window   8: Lambda1 0.35   Lambda2 0.39999999999999997 [dLambda 0.04999999999999999]
TCL: Setting parameter firsttimestep to 0
TCL: Setting parameter alchLambda to 0.35
Info: NONBONDED TABLE R-SQUARED SPACING: 0.0625
Info: NONBONDED TABLE SIZE: 705 POINTS
TCL: Setting parameter alchLambda2 to 0.39999999999999997
Info: NONBONDED TABLE R-SQUARED SPACING: 0.0625
Info: NONBONDED TABLE SIZE: 705 POINTS
TCL: Running for 1500000 steps
ETITLE: TS BOND ANGLE DIHED IMPRP ELECT VDW BOUNDARY MISC KINETIC TOTAL TEMP POTENTIAL TOTALAVG TEMPAVG PRESSURE GPRESSURE VOLUME PRESSAVG GPRESSAVG
ENERGY: 0 0.0000 2.1624 0.0000 0.0000 -10688.2920 1428.5774 0.0000 0.0000 1711.6692 -7545.8830 293.7259 -9257.5521 -7545.8830 293.7259 -183.2866 -85.2902 30236.9300 -183.2866 -85.2902
ENERGY: 300000 0.0000 2.3077 0.0000 0.0000 -10706.7505 1493.3549 0.0000 0.0000 1721.0164 -7490.0715 295.3299 -9211.0879 -7483.1701 297.6158 424.2988 484.3182 30122.5130 302.6494 355.6238
ENERGY: 600000 0.0000 1.1576 0.0000 0.0000 -10704.0688 1430.1474 0.0000 0.0000 1746.9628 -7525.8011 299.7823 -9272.7639 -7495.4261 297.9526 -60.8114 19.4916 29845.9435 111.3968 169.0927
ENERGY: 900000 0.0000 2.0885 0.0000 0.0000 -10716.5397 1449.9662 0.0000 0.0000 1782.6238 -7481.8612 305.9018 -9264.4851 -7481.8329 299.3535 4.3387 28.4205 30055.9732 28.0491 89.2552
ENERGY: 1200000 0.0000 0.3834 0.0000 0.0000 -10515.2796 1347.1907 0.0000 0.0000 1764.3735 -7403.3320 302.7700 -9167.7056 -7480.0719 300.0237 -589.5452 -503.8900 30142.8937 -1.0513 64.7145
ENERGY: 1500000 0.0000 1.5621 0.0000 0.0000 -10573.4592 1387.0027 0.0000 0.0000 1748.9403 -7435.9541 300.1217 -9184.8944 -7479.0547 300.3425 -296.4390 -204.5071 30184.8576 -17.2479 46.2260
TCL: Running FEP window   9: Lambda1 0.39999999999999997 Lambda2 0.44999999999999996 [dLambda 0.04999999999999999]
TCL: Setting parameter firsttimestep to 0
TCL: Setting parameter alchLambda to 0.39999999999999997
Info: NONBONDED TABLE R-SQUARED SPACING: 0.0625
Info: NONBONDED TABLE SIZE: 705 POINTS
TCL: Setting parameter alchLambda2 to 0.44999999999999996
Info: NONBONDED TABLE R-SQUARED SPACING: 0.0625
Info: NONBONDED TABLE SIZE: 705 POINTS
TCL: Running for 1500000 steps
ETITLE: TS BOND ANGLE DIHED IMPRP ELECT VDW BOUNDARY MISC KINETIC TOTAL TEMP POTENTIAL TOTALAVG TEMPAVG PRESSURE GPRESSURE VOLUME PRESSAVG GPRESSAVG
ENERGY: 0 0.0000 1.5621 0.0000 0.0000 -10573.4604 1387.0710 0.0000 0.0000 1748.1080 -7436.7193 299.9788 -9184.8273 -7436.7193 299.9788 -288.9759 -200.4645 30184.8576 -288.9759 -200.4645
ENERGY: 300000 0.0000 0.2177 0.0000 0.0000 -10773.4126 1472.7272 0.0000 0.0000 1736.2292 -7564.2386 297.9404 -9300.4678 -7471.9879 301.1941 324.8086 413.4486 29557.5471 -77.7021 10.9831
ENERGY: 600000 0.0000 0.5755 0.0000 0.0000 -10677.9066 1396.4017 0.0000 0.0000 1741.1716 -7539.7577 298.7886 -9280.9293 -7499.3624 298.7347 -253.0297 -182.1535 29681.4478 -24.5299 65.0886
ENERGY: 900000 0.0000 0.7573 0.0000 0.0000 -10639.0085 1441.0342 0.0000 0.0000 1783.2310 -7413.9859 306.0060 -9197.2169 -7496.4364 299.1539 108.2092 161.2092 30156.0689 150.6504 228.0340
ENERGY: 1200000 0.0000 0.6743 0.0000 0.0000 -10695.2842 1457.6024 0.0000 0.0000 1746.2779 -7490.7296 299.6648 -9237.0075 -7479.6717 299.3730 141.4257 220.2362 29970.1201 90.2277 158.4159
ENERGY: 1500000 0.0000 0.5746 0.0000 0.0000 -10553.0341 1362.4204 0.0000 0.0000 1759.8855 -7430.1536 301.9999 -9190.0391 -7486.3118 299.4946 -768.8117 -653.5769 30517.7434 51.4586 128.0370
TCL: Running FEP window  10: Lambda1 0.44999999999999996 Lambda2 0.49999999999999994 [dLambda 0.04999999999999999]
TCL: Setting parameter firsttimestep to 0
TCL: Setting parameter alchLambda to 0.44999999999999996
Info: NONBONDED TABLE R-SQUARED SPACING: 0.0625
Info: NONBONDED TABLE SIZE: 705 POINTS
TCL: Setting parameter alchLambda2 to 0.49999999999999994
Info: NONBONDED TABLE R-SQUARED SPACING: 0.0625
Info: NONBONDED TABLE SIZE: 705 POINTS
TCL: Running for 1500000 steps
ETITLE: TS BOND ANGLE DIHED IMPRP ELECT VDW BOUNDARY MISC KINETIC TOTAL TEMP POTENTIAL TOTALAVG TEMPAVG PRESSURE GPRESSURE VOLUME PRESSAVG GPRESSAVG
ENERGY: 0 0.0000 0.5746 0.0000 0.0000 -10553.0361 1362.7084 0.0000 0.0000 1758.9942 -7430.7589 301.8469 -9189.7531 -7430.7589 301.8469 -726.0998 -646.5270 30517.7434 -726.0998 -646.5270
ENERGY: 300000 0.0000 1.2593 0.0000 0.0000 -10715.7392 1414.9372 0.0000 0.0000 1772.8862 -7526.6565 304.2308 -9299.5427 -7500.7650 301.4054 -245.3120 -185.4887 29832.2390 -530.7886 -461.7767
ENERGY: 600000 0.0000 0.9304 0.0000 0.0000 -10621.9932 1431.1206 0.0000 0.0000 1765.0370 -7424.9052 302.8839 -9189.9422 -7492.3674 300.8815 -92.0723 -3.4549 30690.9372 -413.3030 -354.0025
ENERGY: 900000 0.0000 0.0208 0.0000 0.0000 -10600.5016 1453.4170 0.0000 0.0000 1733.6408 -7413.4230 297.4962 -9147.0638 -7484.1583 298.6291 308.8819 466.9226 29965.8580 -442.3511 -377.1184
ENERGY: 1200000 0.0000 0.3820 0.0000 0.0000 -10690.4740 1474.3146 0.0000 0.0000 1728.1189 -7487.6584 296.5487 -9215.7773 -7490.2187 299.3225 278.9781 293.0525 30403.6689 -285.4209 -224.1224
ENERGY: 1500000 0.0000 0.9809 0.0000 0.0000 -10592.9494 1360.0241 0.0000 0.0000 1741.6410 -7490.3033 298.8691 -9231.9444 -7496.9623 299.5214 -725.0587 -601.9743 30361.6878 -300.3509 -236.7850
TCL: Running FEP window  11: Lambda1 0.49999999999999994 Lambda2 0.5499999999999999 [dLambda 0.04999999999999999]
TCL: Setting parameter firsttimestep to 0
TCL: Setting parameter alchLambda to 0.49999999999999994
Info: NONBONDED TABLE R-SQUARED SPACING: 0.0625
Info: NONBONDED TABLE SIZE: 705 POINTS
TCL: Setting parameter alchLambda2 to 0.5499999999999999
Info: NONBONDED TABLE R-SQUARED SPACING: 0.0625
Info: NONBONDED TABLE SIZE: 705 POINTS
TCL: Running for 1500000 steps
ETITLE: TS BOND ANGLE DIHED IMPRP ELECT VDW BOUNDARY MISC KINETIC TOTAL TEMP POTENTIAL TOTALAVG TEMPAVG PRESSURE GPRESSURE VOLUME PRESSAVG GPRESSAVG
ENERGY: 0 0.0000 0.9809 0.0000 0.0000 -10592.9484 1360.3279 0.0000 0.0000 1740.7557 -7490.8839 298.7172 -9231.6395 -7490.8839 298.7172 -682.5310 -600.0944 30361.6878 -682.5310 -600.0944
ENERGY: 300000 0.0000 0.4342 0.0000 0.0000 -10770.4458 1562.3998 0.0000 0.0000 1732.1092 -7475.5025 297.2334 -9207.6117 -7468.4401 298.4154 1212.3339 1314.1033 29709.4210 14.0712 68.5610
ENERGY: 600000 0.0000 0.5591 0.0000 0.0000 -10662.0044 1419.1893 0.0000 0.0000 1777.3765 -7464.8795 305.0014 -9242.2560 -7457.4117 300.8249 -171.7198 -83.7441 30208.0035 5.7547 61.4546
ENERGY: 900000 0.0000 0.3887 0.0000 0.0000 -10389.4995 1262.7093 0.0000 0.0000 1760.9059 -7365.4956 302.1750 -9126.4015 -7444.9957 301.6765 -1306.1995 -1250.3377 30895.7999 36.7670 92.5408
ENERGY: 1200000 0.0000 0.1401 0.0000 0.0000 -10549.5869 1392.9968 0.0000 0.0000 1734.6255 -7421.8246 297.6652 -9156.4500 -7460.4541 301.1424 -70.7286 39.1519 30058.0687 -1.6421 63.1205
ENERGY: 1500000 0.0000 0.8964 0.0000 0.0000 -10646.8038 1419.6032 0.0000 0.0000 1747.6701 -7478.6341 299.9037 -9226.3041 -7458.1974 301.3787 -104.5164 -11.9233 30088.4902 -7.4374 55.3287
TCL: Running FEP window  12: Lambda1 0.5499999999999999 Lambda2 0.6    [dLambda 0.050000000000000044]
TCL: Setting parameter firsttimestep to 0
TCL: Setting parameter alchLambda to 0.5499999999999999
Info: NONBONDED TABLE R-SQUARED SPACING: 0.0625
Info: NONBONDED TABLE SIZE: 705 POINTS
TCL: Setting parameter alchLambda2 to 0.6
Info: NONBONDED TABLE R-SQUARED SPACING: 0.0625
Info: NONBONDED TABLE SIZE: 705 POINTS
TCL: Running for 1500000 steps
ETITLE: TS BOND ANGLE DIHED IMPRP ELECT VDW BOUNDARY MISC KINETIC TOTAL TEMP POTENTIAL TOTALAVG TEMPAVG PRESSURE GPRESSURE VOLUME PRESSAVG GPRESSAVG
ENERGY: 0 0.0000 0.8964 0.0000 0.0000 -10647.7788 1419.7516 0.0000 0.0000 1746.7927 -7480.3381 299.7531 -9227.1308 -7480.3381 299.7531 -95.7627 -14.1567 30088.4902 -95.7627 -14.1567
ENERGY: 300000 0.0000 1.9306 0.0000 0.0000 -10649.5998 1444.3741 0.0000 0.0000 1768.4655 -7434.8296 303.4722 -9203.2951 -7487.8374 300.7520 34.7434 62.9754 30575.3613 126.5739 193.2248
ENERGY: 600000 0.0000 0.0490 0.0000 0.0000 -10684.5863 1421.4355 0.0000 0.0000 1788.6182 -7474.4836 306.9305 -9263.1019 -7506.5402 300.4739 -198.4469 -95.1036 30227.8318 -24.4050 46.4932
ENERGY: 900000 0.0000 0.4500 0.0000 0.0000 -10481.9761 1347.3443 0.0000 0.0000 1769.9142 -7364.2676 303.7208 -9134.1819 -7479.0848 300.0967 -273.2703 -230.0894 29991.6222 -24.1497 40.0250
ENERGY: 1200000 0.0000 0.6222 0.0000 0.0000 -10750.1581 1522.9146 0.0000 0.0000 1695.6818 -7530.9395 290.9824 -9226.6213 -7496.7594 299.3347 673.4120 709.9240 29844.2105 80.4034 142.2161
ENERGY: 1500000 0.0000 0.3035 0.0000 0.0000 -10712.7614 1478.8156 0.0000 0.0000 1711.7369 -7521.9055 293.7375 -9233.6423 -7494.7491 300.0124 471.1334 530.9903 29824.3122 71.3540 137.2936
TCL: Running FEP window  13: Lambda1 0.6    Lambda2 0.65   [dLambda 0.050000000000000044]
TCL: Setting parameter firsttimestep to 0
TCL: Setting parameter alchLambda to 0.6
Info: NONBONDED TABLE R-SQUARED SPACING: 0.0625
Info: NONBONDED TABLE SIZE: 705 POINTS
TCL: Setting parameter alchLambda2 to 0.65
Info: NONBONDED TABLE R-SQUARED SPACING: 0.0625
Info: NONBONDED TABLE SIZE: 705 POINTS
TCL: Running for 1500000 steps
ETITLE: TS BOND ANGLE DIHED IMPRP ELECT VDW BOUNDARY MISC KINETIC TOTAL TEMP POTENTIAL TOTALAVG TEMPAVG PRESSURE GPRESSURE VOLUME PRESSAVG GPRESSAVG
ENERGY: 0 0.0000 0.3035 0.0000 0.0000 -10712.6619 1478.8724 0.0000 0.0000 1710.8535 -7522.6326 293.5859 -9233.4861 -7522.6326 293.5859 457.0544 532.3840 29824.3122 457.0544 532.3840
ENERGY: 300000 0.0000 0.5901 0.0000 0.0000 -10686.9651 1480.0641 0.0000 0.0000 1755.9100 -7450.4009 301.3177 -9206.3109 -7475.1463 299.0032 175.8411 313.2459 30446.1942 261.0176 345.8667
ENERGY: 600000 0.0000 0.2208 0.0000 0.0000 -10602.0499 1376.5821 0.0000 0.0000 1759.8293 -7465.4177 301.9902 -9225.2470 -7481.3231 300.4820 -332.0358 -308.0127 30025.6357 181.3320 240.9115
ENERGY: 900000 0.0000 1.1103 0.0000 0.0000 -10805.9697 1495.8418 0.0000 0.0000 1732.1922 -7576.8254 297.2477 -9309.0176 -7498.2040 299.7776 583.5594 548.8588 29618.5912 85.0135 140.2498
ENERGY: 1200000 0.0000 0.1693 0.0000 0.0000 -10591.6837 1386.2837 0.0000 0.0000 1785.0484 -7420.1824 306.3179 -9205.2308 -7492.9708 300.1571 -449.1588 -369.9200 30467.3398 89.7580 140.1289
ENERGY: 1500000 0.0000 0.5965 0.0000 0.0000 -10801.6344 1531.9650 0.0000 0.0000 1757.2374 -7511.8355 301.5455 -9269.0729 -7485.0299 300.2267 690.4008 771.0577 29874.6979 152.6913 202.6838
TCL: Running FEP window  14: Lambda1 0.65   Lambda2 0.7000000000000001 [dLambda 0.050000000000000044]
TCL: Setting parameter firsttimestep to 0
TCL: Setting parameter alchLambda to 0.65
Info: NONBONDED TABLE R-SQUARED SPACING: 0.0625
Info: NONBONDED TABLE SIZE: 705 POINTS
TCL: Setting parameter alchLambda2 to 0.7000000000000001
Info: NONBONDED TABLE R-SQUARED SPACING: 0.0625
Info: NONBONDED TABLE SIZE: 705 POINTS
TCL: Running for 1500000 steps
ETITLE: TS BOND ANGLE DIHED IMPRP ELECT VDW BOUNDARY MISC KINETIC TOTAL TEMP POTENTIAL TOTALAVG TEMPAVG PRESSURE GPRESSURE VOLUME PRESSAVG GPRESSAVG
ENERGY: 0 0.0000 0.5965 0.0000 0.0000 -10802.9000 1533.3256 0.0000 0.0000 1756.3435 -7512.6343 301.3921 -9268.9779 -7512.6343 301.3921 709.8531 780.0042 29874.6979 709.8531 780.0042
ENERGY: 300000 0.0000 0.7473 0.0000 0.0000 -10780.2907 1465.6884 0.0000 0.0000 1787.9336 -7525.9213 306.8130 -9313.8549 -7497.9216 299.5609 120.8794 193.8666 29627.8764 375.0940 449.0247
ENERGY: 600000 0.0000 0.4696 0.0000 0.0000 -10572.8825 1362.7750 0.0000 0.0000 1747.2069 -7462.4309 299.8242 -9209.6379 -7483.3816 301.0492 -604.7292 -587.7505 30480.8647 188.5282 255.2557
ENERGY: 900000 0.0000 0.7520 0.0000 0.0000 -10490.8851 1311.4563 0.0000 0.0000 1726.7959 -7451.8809 296.3216 -9178.6768 -7489.3433 301.1311 -1184.5235 -1077.6638 30834.6351 140.6231 205.3667
ENERGY: 1200000 0.0000 1.7769 0.0000 0.0000 -10736.7753 1463.6586 0.0000 0.0000 1747.5546 -7523.7852 299.8839 -9271.3398 -7485.2284 301.0516 17.1720 80.4921 30258.6017 122.1655 184.1598
ENERGY: 1500000 0.0000 0.5253 0.0000 0.0000 -10686.5036 1477.5112 0.0000 0.0000 1671.0002 -7537.4669 286.7470 -9208.4671 -7481.9484 300.0932 603.9340 641.1458 29677.1987 190.4441 255.3557
TCL: Running FEP window  15: Lambda1 0.7000000000000001 Lambda2 0.7500000000000001 [dLambda 0.050000000000000044]
TCL: Setting parameter firsttimestep to 0
TCL: Setting parameter alchLambda to 0.7000000000000001
Info: NONBONDED TABLE R-SQUARED SPACING: 0.0625
Info: NONBONDED TABLE SIZE: 705 POINTS
TCL: Setting parameter alchLambda2 to 0.7500000000000001
Info: NONBONDED TABLE R-SQUARED SPACING: 0.0625
Info: NONBONDED TABLE SIZE: 705 POINTS
TCL: Running for 1500000 steps
ETITLE: TS BOND ANGLE DIHED IMPRP ELECT VDW BOUNDARY MISC KINETIC TOTAL TEMP POTENTIAL TOTALAVG TEMPAVG PRESSURE GPRESSURE VOLUME PRESSAVG GPRESSAVG
ENERGY: 0 0.0000 0.5253 0.0000 0.0000 -10688.3311 1478.9752 0.0000 0.0000 1670.1795 -7538.6511 286.6062 -9208.8307 -7538.6511 286.6062 570.4506 652.2800 29677.1987 570.4506 652.2800
ENERGY: 300000 0.0000 0.5033 0.0000 0.0000 -10602.3554 1454.1675 0.0000 0.0000 1825.8304 -7321.8542 313.3162 -9147.6846 -7468.6274 299.4199 129.1781 227.2149 30620.7097 98.6176 184.7433
ENERGY: 600000 0.0000 1.7677 0.0000 0.0000 -10713.4182 1429.9772 0.0000 0.0000 1742.8924 -7538.7809 299.0838 -9281.6733 -7489.3098 298.2937 -247.1039 -127.2683 30038.0459 84.4050 170.4313
ENERGY: 900000 0.0000 0.5812 0.0000 0.0000 -10780.4752 1446.0375 0.0000 0.0000 1766.2878 -7567.5688 303.0985 -9333.8565 -7482.9558 299.6189 -272.1962 -178.4723 30162.4462 54.5813 137.6503
ENERGY: 1200000 0.0000 0.7693 0.0000 0.0000 -10619.0445 1397.4436 0.0000 0.0000 1777.6991 -7443.1326 305.0567 -9220.8317 -7472.7608 300.7135 -169.0169 -103.2473 29918.2885 79.8839 167.6384
ENERGY: 1500000 0.0000 1.3944 0.0000 0.0000 -10493.3280 1307.6650 0.0000 0.0000 1794.1165 -7390.1520 307.8740 -9184.2686 -7468.7929 300.7719 -928.8797 -902.4848 30617.2679 -84.6768 -8.7717
TCL: Running FEP window  16: Lambda1 0.7500000000000001 Lambda2 0.8000000000000002 [dLambda 0.050000000000000044]
TCL: Setting parameter firsttimestep to 0
TCL: Setting parameter alchLambda to 0.7500000000000001
Info: NONBONDED TABLE R-SQUARED SPACING: 0.0625
Info: NONBONDED TABLE SIZE: 705 POINTS
TCL: Setting parameter alchLambda2 to 0.8000000000000002
Info: NONBONDED TABLE R-SQUARED SPACING: 0.0625
Info: NONBONDED TABLE SIZE: 705 POINTS
TCL: Running for 1500000 steps
ETITLE: TS BOND ANGLE DIHED IMPRP ELECT VDW BOUNDARY MISC KINETIC TOTAL TEMP POTENTIAL TOTALAVG TEMPAVG PRESSURE GPRESSURE VOLUME PRESSAVG GPRESSAVG
ENERGY: 0 0.0000 1.3944 0.0000 0.0000 -10494.0632 1307.6479 0.0000 0.0000 1793.2014 -7391.8195 307.7170 -9185.0208 -7391.8195 307.7170 -986.1740 -905.6206 30617.2679 -986.1740 -905.6206
ENERGY: 300000 0.0000 1.9747 0.0000 0.0000 -10773.3083 1504.8191 0.0000 0.0000 1744.6515 -7521.8631 299.3857 -9266.5146 -7473.2992 301.0040 569.9325 648.7723 29898.4641 -137.8556 -67.1378
ENERGY: 600000 0.0000 0.5205 0.0000 0.0000 -10632.5977 1438.0724 0.0000 0.0000 1739.1747 -7454.8301 298.4459 -9194.0048 -7467.9635 301.6626 58.7129 122.5161 30164.4132 -190.5262 -135.1098
ENERGY: 900000 0.0000 0.4477 0.0000 0.0000 -10715.5520 1480.2323 0.0000 0.0000 1770.7501 -7464.1219 303.8643 -9234.8720 -7469.2625 300.7540 427.6305 537.6089 29848.8493 -99.7378 -39.7972
ENERGY: 1200000 0.0000 1.8917 0.0000 0.0000 -10645.1453 1389.3282 0.0000 0.0000 1701.0444 -7552.8810 291.9026 -9253.9254 -7478.6298 299.9921 -547.3457 -399.7947 30164.7156 -110.5931 -35.4872
ENERGY: 1500000 0.0000 0.1918 0.0000 0.0000 -10697.5877 1508.9370 0.0000 0.0000 1772.0445 -7416.4144 304.0864 -9188.4590 -7472.4807 300.4201 680.9039 717.8167 30009.6947 -52.4661 21.5963
TCL: Running FEP window  17: Lambda1 0.8000000000000002 Lambda2 0.8500000000000002 [dLambda 0.050000000000000044]
TCL: Setting parameter firsttimestep to 0
TCL: Setting parameter alchLambda to 0.8000000000000002
Info: NONBONDED TABLE R-SQUARED SPACING: 0.0625
Info: NONBONDED TABLE SIZE: 705 POINTS
TCL: Setting parameter alchLambda2 to 0.8500000000000002
Info: NONBONDED TABLE R-SQUARED SPACING: 0.0625
Info: NONBONDED TABLE SIZE: 705 POINTS
TCL: Running for 1500000 steps
ETITLE: TS BOND ANGLE DIHED IMPRP ELECT VDW BOUNDARY MISC KINETIC TOTAL TEMP POTENTIAL TOTALAVG TEMPAVG PRESSURE GPRESSURE VOLUME PRESSAVG GPRESSAVG
ENERGY: 0 0.0000 0.1918 0.0000 0.0000 -10698.5311 1509.2853 0.0000 0.0000 1771.1702 -7417.8838 303.9364 -9189.0540 -7417.8838 303.9364 641.1415 721.4065 30009.6947 641.1415 721.4065
ENERGY: 300000 0.0000 0.9380 0.0000 0.0000 -10665.1966 1407.0596 0.0000 0.0000 1729.9689 -7527.2301 296.8661 -9257.1989 -7451.6503 300.0932 -459.2226 -380.8855 30175.7328 -122.3283 -31.5441
ENERGY: 600000 0.0000 1.1005 0.0000 0.0000 -10800.8145 1537.6808 0.0000 0.0000 1792.1275 -7469.9058 307.5327 -9262.0332 -7451.7030 302.5375 750.7857 734.1146 30045.5659 131.0056 199.5755
ENERGY: 900000 0.0000 0.3786 0.0000 0.0000 -10580.7383 1387.6069 0.0000 0.0000 1760.4221 -7432.3308 302.0920 -9192.7529 -7453.2103 302.0886 -350.5117 -317.9117 30422.7330 -11.6273 50.1389
ENERGY: 1200000 0.0000 1.3740 0.0000 0.0000 -10717.0742 1517.8487 0.0000 0.0000 1799.1573 -7398.6942 308.7390 -9197.8516 -7451.5795 303.1611 720.1776 777.2529 29989.0961 10.4353 74.5650
ENERGY: 1500000 0.0000 1.0852 0.0000 0.0000 -10612.5235 1399.5180 0.0000 0.0000 1712.7292 -7499.1910 293.9078 -9211.9203 -7462.1623 302.0294 -146.5647 -64.9201 30059.2690 -21.0773 40.1131
TCL: Running FEP window  18: Lambda1 0.8500000000000002 Lambda2 0.9000000000000002 [dLambda 0.050000000000000044]
TCL: Setting parameter firsttimestep to 0
TCL: Setting parameter alchLambda to 0.8500000000000002
Info: NONBONDED TABLE R-SQUARED SPACING: 0.0625
Info: NONBONDED TABLE SIZE: 705 POINTS
TCL: Setting parameter alchLambda2 to 0.9000000000000002
Info: NONBONDED TABLE R-SQUARED SPACING: 0.0625
Info: NONBONDED TABLE SIZE: 705 POINTS
TCL: Running for 1500000 steps
ETITLE: TS BOND ANGLE DIHED IMPRP ELECT VDW BOUNDARY MISC KINETIC TOTAL TEMP POTENTIAL TOTALAVG TEMPAVG PRESSURE GPRESSURE VOLUME PRESSAVG GPRESSAVG
ENERGY: 0 0.0000 1.0852 0.0000 0.0000 -10613.6389 1400.0903 0.0000 0.0000 1711.8504 -7500.6131 293.7570 -9212.4634 -7500.6131 293.7570 -135.3018 -59.8094 30059.2690 -135.3018 -59.8094
ENERGY: 300000 0.0000 1.6236 0.0000 0.0000 -10426.7589 1350.0171 0.0000 0.0000 1778.0995 -7297.0188 305.1254 -9075.1182 -7394.7258 301.7174 -434.9246 -398.4149 30802.6412 -69.3471 -0.1365
ENERGY: 600000 0.0000 1.9293 0.0000 0.0000 -10721.7868 1432.8215 0.0000 0.0000 1838.2213 -7448.8148 315.4425 -9287.0361 -7409.6621 304.7661 0.9215 -3.2236 29962.8998 37.9599 106.1233
ENERGY: 900000 0.0000 0.3835 0.0000 0.0000 -10657.4908 1511.0785 0.0000 0.0000 1700.6316 -7445.3972 291.8318 -9146.0288 -7408.9665 304.4841 609.1676 763.5149 30274.9460 98.9230 166.3446
ENERGY: 1200000 0.0000 0.5204 0.0000 0.0000 -10677.9093 1454.7609 0.0000 0.0000 1781.2410 -7441.3870 305.6645 -9222.6280 -7421.7201 304.4652 168.7156 264.0934 30298.3206 18.1987 84.0869
ENERGY: 1500000 0.0000 0.1772 0.0000 0.0000 -10747.1011 1425.2481 0.0000 0.0000 1743.8878 -7577.7881 299.2546 -9321.6758 -7433.8118 304.5522 -387.3343 -345.4402 30304.2901 -2.6097 66.2497
TCL: Running FEP window  19: Lambda1 0.9000000000000002 Lambda2 0.9500000000000003 [dLambda 0.050000000000000044]
TCL: Setting parameter firsttimestep to 0
TCL: Setting parameter alchLambda to 0.9000000000000002
Info: NONBONDED TABLE R-SQUARED SPACING: 0.0625
Info: NONBONDED TABLE SIZE: 705 POINTS
TCL: Setting parameter alchLambda2 to 0.9500000000000003
Info: NONBONDED TABLE R-SQUARED SPACING: 0.0625
Info: NONBONDED TABLE SIZE: 705 POINTS
TCL: Running for 1500000 steps
ETITLE: TS BOND ANGLE DIHED IMPRP ELECT VDW BOUNDARY MISC KINETIC TOTAL TEMP POTENTIAL TOTALAVG TEMPAVG PRESSURE GPRESSURE VOLUME PRESSAVG GPRESSAVG
ENERGY: 0 0.0000 0.1772 0.0000 0.0000 -10748.4008 1425.7362 0.0000 0.0000 1743.0294 -7579.4580 299.1073 -9322.4874 -7579.4580 299.1073 -430.3482 -339.3833 30304.2901 -430.3482 -339.3833
ENERGY: 300000 0.0000 1.4658 0.0000 0.0000 -10672.5342 1375.7572 0.0000 0.0000 1725.7779 -7569.5333 296.1470 -9295.3112 -7536.0099 296.5390 -560.6833 -487.5493 29824.6269 -442.4463 -399.9177
ENERGY: 600000 0.0000 0.2310 0.0000 0.0000 -10774.3572 1501.4993 0.0000 0.0000 1753.1998 -7519.4270 300.8526 -9272.6268 -7496.0714 299.4593 557.5362 622.1308 29897.1229 -146.5095 -104.2435
ENERGY: 900000 0.0000 0.4075 0.0000 0.0000 -10616.5840 1382.6634 0.0000 0.0000 1720.5903 -7512.9228 295.2568 -9233.5131 -7512.7724 297.8577 -477.3945 -389.1202 30161.2996 -163.8152 -110.0541
ENERGY: 1200000 0.0000 1.2663 0.0000 0.0000 -10705.5896 1474.4237 0.0000 0.0000 1735.2746 -7494.6250 297.7766 -9229.8996 -7509.2306 297.4219 298.9435 316.9609 30201.7904 -190.6081 -142.0766
ENERGY: 1500000 0.0000 1.2517 0.0000 0.0000 -10641.0404 1420.5812 0.0000 0.0000 1756.1134 -7463.0941 301.3526 -9219.2075 -7508.2971 297.8237 -109.2707 -1.3283 30060.6172 -138.7004 -85.2982
TCL: Running FEP window  20: Lambda1 0.9500000000000003 Lambda2 1.0    [dLambda 0.04999999999999971]
TCL: Setting parameter firsttimestep to 0
TCL: Setting parameter alchLambda to 0.9500000000000003
Info: NONBONDED TABLE R-SQUARED SPACING: 0.0625
Info: NONBONDED TABLE SIZE: 705 POINTS
TCL: Setting parameter alchLambda2 to 1.0
Info: NONBONDED TABLE R-SQUARED SPACING: 0.0625
Info: NONBONDED TABLE SIZE: 705 POINTS
TCL: Running for 1500000 steps
ETITLE: TS BOND ANGLE DIHED IMPRP ELECT VDW BOUNDARY MISC KINETIC TOTAL TEMP POTENTIAL TOTALAVG TEMPAVG PRESSURE GPRESSURE VOLUME PRESSAVG GPRESSAVG
ENERGY: 0 0.0000 1.2517 0.0000 0.0000 -10641.8231 1421.0465 0.0000 0.0000 1755.2417 -7464.2832 301.2030 -9219.5250 -7464.2832 301.2030 -86.2400 3.3055 30060.6172 -86.2400 3.3055
ENERGY: 300000 0.0000 0.8718 0.0000 0.0000 -10665.1497 1423.6830 0.0000 0.0000 1729.8130 -7510.7819 296.8394 -9240.5949 -7487.9803 297.6595 18.8097 84.6499 29734.2539 37.5716 89.5443
ENERGY: 600000 0.0000 0.8661 0.0000 0.0000 -10632.9117 1394.4095 0.0000 0.0000 1759.0684 -7478.5678 301.8597 -9237.6361 -7477.5593 298.2031 -386.9261 -309.4351 30327.5805 -124.1257 -78.0047
ENERGY: 900000 0.0000 1.6888 0.0000 0.0000 -10876.1431 1549.3907 0.0000 0.0000 1742.9075 -7582.1561 299.0864 -9325.0636 -7478.9656 298.8118 600.7003 693.0860 30088.8136 -28.1320 18.2823
ENERGY: 1200000 0.0000 0.3810 0.0000 0.0000 -10711.2165 1472.1341 0.0000 0.0000 1756.7070 -7481.9944 301.4544 -9238.7014 -7465.3681 299.7263 58.3633 83.1494 30559.7279 -11.5669 37.3802
ENERGY: 1500000 0.0000 1.2376 0.0000 0.0000 -10708.6124 1479.2144 0.0000 0.0000 1719.4892 -7508.6711 295.0678 -9228.1603 -7470.9337 299.7015 282.8604 332.8327 30070.9042 -38.7080 8.3344
TCL: Exiting due to exit command.
