Info: SIMULATION PARAMETERS:
Info: TIMESTEP               2
Info: NUMBER OF STEPS        0
Info: STEPS PER CYCLE        10
Info: PERIODIC CELL BASIS 1  34.986 0 0
Info: PERIODIC CELL BASIS 2  0 35.779 0
Info: PERIODIC CELL BASIS 3  0 0 35.644
Info: PERIODIC CELL CENTER   0 0 0
Info: WRAPPING WATERS AROUND PERIODIC BOUNDARIES ON OUTPUT.
Info: WRAPPING ALL CLUSTERS AROUND PERIODIC BOUNDARIES ON OUTPUT.
Info: FIRST LDB TIMESTEP     50
Info: LAST LDB TIMESTEP     -1
Info: HOM BACKGROUND SCALING 1
Info: PME BACKGROUND SCALING 1
Info: MIN ATOMS PER PATCH    40
Info: EMPTY PATCH LOAD       40 ATOMS
Info: INITIAL TEMPERATURE    300
Info: CENTER OF MASS MOVING INITIALLY? NO
Info: DIELECTRIC             1
Info: EXCLUDE                SCALED ONE-FOUR
Info: 1-4 ELECTROSTATICS SCALED BY 0.833333
Info: MODIFIED 1-4 VDW PARAMETERS WILL BE USED
Info: DCD FILENAME           mobley_7983227_equil.dcd
Info: DCD FREQUENCY          100000
Info: DCD FIRST STEP         100000
Info: DCD FILE WILL CONTAIN UNIT CELL DATA
Info: XST FILENAME           mobley_7983227_equil.xst
Info: XST FREQUENCY          100000
Info: NO VELOCITY DCD OUTPUT
Info: NO FORCE DCD OUTPUT
Info: OUTPUT FILENAME        mobley_7983227_equil
Info: BINARY OUTPUT FILES WILL BE USED
Info: RESTART FILENAME       mobley_7983227_equil.restart
Info: RESTART FREQUENCY      100000
Info: BINARY RESTART FILES WILL BE USED
Info: CUTOFF                 9
Info: PAIRLIST DISTANCE      11
Info: PAIRLIST SHRINK RATE   0.01
Info: PAIRLIST GROW RATE     0.01
Info: PAIRLIST TRIGGER       0.3
Info: PAIRLISTS PER CYCLE    2
Info: PAIRLISTS ENABLED
Info: MARGIN                 8
Info: HYDROGEN GROUP CUTOFF  2.5
Info: PATCH DIMENSION        21.5
Info: ENERGY OUTPUT STEPS    100000
Info: ENERGY EVALUATION STEPS    100000
Info: OUTPUT ENERGY PRECISION 4
Info: CROSSTERM ENERGY INCLUDED IN DIHEDRAL
Info: TIMING OUTPUT STEPS    1000000
Info: PRESSURE OUTPUT STEPS  100000
Info: LANGEVIN DYNAMICS ACTIVE
Info: LANGEVIN TEMPERATURE   30
Info: LANGEVIN USING BBK INTEGRATOR
Info: LANGEVIN DAMPING COEFFICIENT IS 1 INVERSE PS
Info: LANGEVIN DYNAMICS APPLIED TO HYDROGENS
Info: LANGEVIN PISTON PRESSURE CONTROL ACTIVE
Info:        TARGET PRESSURE IS 1.01325 BAR
Info:     OSCILLATION PERIOD IS 50 FS
Info:             DECAY TIME IS 25 FS
Info:     PISTON TEMPERATURE IS 300 K
Info:       PRESSURE CONTROL IS GROUP-BASED
Info:    INITIAL STRAIN RATE IS 0 0 0
Info:       CELL FLUCTUATION IS ISOTROPIC
Info: PARTICLE MESH EWALD (PME) ACTIVE
Info: PME TOLERANCE               1e-06
Info: PME EWALD COEFFICIENT       0.348832
Info: PME INTERPOLATION ORDER     4
Info: PME GRID DIMENSIONS         36 36 36
Info: PME MAXIMUM GRID SPACING    1
Info: FULL ELECTROSTATIC EVALUATION FREQUENCY      2
Info: USING VERLET I (r-RESPA) MTS SCHEME.
Info: C1 SPLITTING OF LONG RANGE ELECTROSTATICS
Info: PLACING ATOMS IN PATCHES BY HYDROGEN GROUPS
Info: RIGID BONDS TO HYDROGEN : ALL
Info:         ERROR TOLERANCE : 1e-08
Info:          MAX ITERATIONS : 100
Info: RIGID WATER USING SETTLE ALGORITHM
Info: RANDOM NUMBER SEED     1743242097
Info: USE HYDROGEN BONDS?    NO
Info: Using AMBER format force field!
Info: AMBER PARM FILE        mobley_7983227.prmtop
Info: COORDINATE PDB         mobley_7983227.pdb
Info: Exclusions will be read from PARM file!
Info: SCNB (VDW SCALING)     2
Info: USING ARITHMETIC MEAN TO COMBINE L-J SIGMA PARAMETERS
Info: BINARY COORDINATES     mobley_7983227_min.coor
Info: SUMMARY OF PARAMETERS:
Info: 7 BONDS
Info: 8 ANGLES
Info:   8 HARMONIC
Info:   0 COSINE-BASED
Info: 9 DIHEDRAL
Info: 0 IMPROPER
Info: 0 CROSSTERM
Info: 0 VDW
Info: 21 VDW_PAIRS
Info: 0 NBTHOLE_PAIRS
Info: STRUCTURE SUMMARY:
Info: 2928 ATOMS
Info: 2927 BONDS
Info: 31 ANGLES
Info: 45 DIHEDRALS
Info: 0 IMPROPERS
Info: 0 CROSSTERMS
Info: 2997 EXCLUSIONS
Info: 2922 RIGID BONDS
Info: 5862 DEGREES OF FREEDOM
Info: 976 HYDROGEN GROUPS
Info: 4 ATOMS IN LARGEST HYDROGEN GROUP
Info: 976 MIGRATION GROUPS
Info: 4 ATOMS IN LARGEST MIGRATION GROUP
Info: TOTAL MASS = 17563.7 amu
Info: TOTAL CHARGE = -0.000200011 e
Info: MASS DENSITY = 0.65368 g/cm^3
Info: ATOM DENSITY = 0.0656239 atoms/A^3
Info: ADDED 0 IMPLICIT EXCLUSIONS
Info: NONBONDED TABLE R-SQUARED SPACING: 0.0625
Info: NONBONDED TABLE SIZE: 705 POINTS
Info: REMOVING COM VELOCITY -0.088051 0.163999 -0.0239836
TCL: Running for 100000 steps
ETITLE: TS BOND ANGLE DIHED IMPRP ELECT VDW BOUNDARY MISC KINETIC TOTAL TEMP POTENTIAL TOTAL3 TEMPAVG PRESSURE GPRESSURE VOLUME PRESSAVG GPRESSAVG
ENERGY: 0 0.1853 1.1159 1.9538 0.0000 -13606.8584 2407.0746 0.0000 0.0000 1745.0031 -9451.5256 299.5993 -11196.5287 -9451.1913 299.5993 604.4216 635.9855 44617.8794 604.4216 635.9855
ENERGY: 100000 0.1959 1.6487 1.9935 0.0000 -14295.7589 2620.6031 0.0000 0.0000 179.0453 -11492.2723 30.7403 -11671.3176 -11491.8709 30.8714 1280.6532 1328.2068 28352.6995 4.1531 4.1070
TCL: Running 100000 steps at 60 kelvin.
TCL: Setting parameter langevinTemp to 60
TCL: Running for 100000 steps
ETITLE: TS BOND ANGLE DIHED IMPRP ELECT VDW BOUNDARY MISC KINETIC TOTAL TEMP POTENTIAL TOTAL3 TEMPAVG PRESSURE GPRESSURE VOLUME PRESSAVG GPRESSAVG
ENERGY: 100000 0.1959 1.6487 1.9935 0.0000 -14295.7589 2620.6031 0.0000 0.0000 178.9616 -11492.3560 30.7259 -11671.3176 -11492.0614 30.7259 1281.3251 1328.3747 28352.6995 1281.3251 1328.3747
ENERGY: 200000 0.2960 2.0054 2.0045 0.0000 -14075.0756 2499.0993 0.0000 0.0000 349.2365 -11222.4339 59.9604 -11571.6705 -11221.6513 59.8825 763.0162 767.8884 28533.1914 3.6183 3.6233
TCL: Running 100000 steps at 90 kelvin.
TCL: Setting parameter langevinTemp to 90
TCL: Running for 100000 steps
ETITLE: TS BOND ANGLE DIHED IMPRP ELECT VDW BOUNDARY MISC KINETIC TOTAL TEMP POTENTIAL TOTAL3 TEMPAVG PRESSURE GPRESSURE VOLUME PRESSAVG GPRESSAVG
ENERGY: 200000 0.2960 2.0054 2.0045 0.0000 -14075.0756 2499.0993 0.0000 0.0000 349.0692 -11222.6013 59.9316 -11571.6705 -11221.9637 59.9316 714.4274 767.8111 28533.1914 714.4274 767.8111
ENERGY: 300000 0.8225 2.7786 1.9575 0.0000 -13776.0969 2321.6180 0.0000 0.0000 522.9123 -10926.0080 89.7787 -11448.9203 -10924.9503 90.0494 -546.4138 -518.2645 28953.8479 4.2343 4.2391
TCL: Running 100000 steps at 120 kelvin.
TCL: Setting parameter langevinTemp to 120
TCL: Running for 100000 steps
ETITLE: TS BOND ANGLE DIHED IMPRP ELECT VDW BOUNDARY MISC KINETIC TOTAL TEMP POTENTIAL TOTAL3 TEMPAVG PRESSURE GPRESSURE VOLUME PRESSAVG GPRESSAVG
ENERGY: 300000 0.8225 2.7786 1.9575 0.0000 -13776.0969 2321.6180 0.0000 0.0000 522.6512 -10926.2691 89.7339 -11448.9203 -10925.0044 89.7339 -566.7635 -518.5480 28953.8479 -566.7635 -518.5480
ENERGY: 400000 0.6816 3.4795 1.9514 0.0000 -13621.8847 2296.5055 0.0000 0.0000 698.0510 -10621.2157 119.8483 -11319.2667 -10618.3112 119.9637 -198.4834 -90.6619 28721.8044 3.7734 3.6159
TCL: Running 100000 steps at 150 kelvin.
TCL: Setting parameter langevinTemp to 150
TCL: Running for 100000 steps
ETITLE: TS BOND ANGLE DIHED IMPRP ELECT VDW BOUNDARY MISC KINETIC TOTAL TEMP POTENTIAL TOTAL3 TEMPAVG PRESSURE GPRESSURE VOLUME PRESSAVG GPRESSAVG
ENERGY: 400000 0.6816 3.4795 1.9514 0.0000 -13621.8847 2296.5055 0.0000 0.0000 697.7068 -10621.5599 119.7892 -11319.2667 -10620.2976 119.7892 -151.3229 -89.7290 28721.8044 -151.3229 -89.7290
ENERGY: 500000 0.5390 4.7859 1.9030 0.0000 -13511.5041 2324.6946 0.0000 0.0000 857.2559 -10322.3257 147.1821 -11179.5816 -10319.1376 150.0816 478.3233 526.1169 28865.1416 4.3495 4.3441
TCL: Running 100000 steps at 180 kelvin.
TCL: Setting parameter langevinTemp to 180
TCL: Running for 100000 steps
ETITLE: TS BOND ANGLE DIHED IMPRP ELECT VDW BOUNDARY MISC KINETIC TOTAL TEMP POTENTIAL TOTAL3 TEMPAVG PRESSURE GPRESSURE VOLUME PRESSAVG GPRESSAVG
ENERGY: 500000 0.5390 4.7859 1.9030 0.0000 -13511.5041 2324.6946 0.0000 0.0000 856.8132 -10322.7684 147.1061 -11179.5816 -10321.2003 147.1061 469.6020 526.7796 28865.1416 469.6020 526.7796
ENERGY: 600000 1.4078 3.4353 2.9287 0.0000 -13044.2645 2120.5247 0.0000 0.0000 1036.2293 -9879.7387 177.9100 -10915.9679 -9875.5925 179.7789 -159.4695 -142.4172 28902.1027 3.7222 3.6986
TCL: Running 100000 steps at 210 kelvin.
TCL: Setting parameter langevinTemp to 210
TCL: Running for 100000 steps
ETITLE: TS BOND ANGLE DIHED IMPRP ELECT VDW BOUNDARY MISC KINETIC TOTAL TEMP POTENTIAL TOTAL3 TEMPAVG PRESSURE GPRESSURE VOLUME PRESSAVG GPRESSAVG
ENERGY: 600000 1.4078 3.4353 2.9287 0.0000 -13044.2645 2120.5247 0.0000 0.0000 1035.6739 -9880.2940 177.8147 -10915.9679 -9878.2122 177.8147 -196.8755 -140.9060 28902.1027 -196.8755 -140.9060
ENERGY: 700000 0.5083 8.1696 1.3190 0.0000 -12350.6983 1876.0635 0.0000 0.0000 1225.1185 -9239.5193 210.3404 -10464.6378 -9235.3980 209.1762 -145.8248 -103.8964 28546.5891 4.2294 4.2048
TCL: Running 100000 steps at 240 kelvin.
TCL: Setting parameter langevinTemp to 240
TCL: Running for 100000 steps
ETITLE: TS BOND ANGLE DIHED IMPRP ELECT VDW BOUNDARY MISC KINETIC TOTAL TEMP POTENTIAL TOTAL3 TEMPAVG PRESSURE GPRESSURE VOLUME PRESSAVG GPRESSAVG
ENERGY: 700000 0.5083 8.1696 1.3190 0.0000 -12350.6983 1876.0635 0.0000 0.0000 1224.4934 -9240.1443 210.2331 -10464.6378 -9237.7621 210.2331 -174.9965 -103.0292 28546.5891 -174.9965 -103.0292
ENERGY: 800000 1.0588 9.8595 1.7043 0.0000 -11585.5767 1631.3628 0.0000 0.0000 1388.3503 -8553.2411 238.3656 -9941.5913 -8548.8722 239.7374 -634.8191 -568.2520 29150.3088 4.4541 4.3933
TCL: Running 100000 steps at 270 kelvin.
TCL: Setting parameter langevinTemp to 270
TCL: Running for 100000 steps
ETITLE: TS BOND ANGLE DIHED IMPRP ELECT VDW BOUNDARY MISC KINETIC TOTAL TEMP POTENTIAL TOTAL3 TEMPAVG PRESSURE GPRESSURE VOLUME PRESSAVG GPRESSAVG
ENERGY: 800000 1.0588 9.8595 1.7043 0.0000 -11585.5767 1631.3628 0.0000 0.0000 1387.6411 -8553.9502 238.2439 -9941.5913 -8551.3092 238.2439 -637.2169 -568.2381 29150.3088 -637.2169 -568.2381
ENERGY: 900000 1.7824 8.3702 3.6938 0.0000 -11151.6022 1549.9717 0.0000 0.0000 1605.2100 -7982.5740 275.5982 -9587.7841 -7979.9017 269.3240 33.3625 164.6088 29116.2121 4.3725 4.3764
TCL: Running 1000000 steps at 300 kelvin.
TCL: Setting parameter langevinTemp to 300
TCL: Running for 1000000 steps
ETITLE: TS BOND ANGLE DIHED IMPRP ELECT VDW BOUNDARY MISC KINETIC TOTAL TEMP POTENTIAL TOTAL3 TEMPAVG PRESSURE GPRESSURE VOLUME PRESSAVG GPRESSAVG
ENERGY: 900000 1.7824 8.3702 3.6938 0.0000 -11151.6022 1549.9717 0.0000 0.0000 1604.4335 -7983.3506 275.4649 -9587.7841 -7981.5857 275.4649 63.8631 164.7301 29116.2121 63.8631 164.7301
ENERGY: 1100000 3.4699 8.4002 3.7822 0.0000 -10548.7011 1403.1957 0.0000 0.0000 1741.7850 -7388.0682 299.0468 -9129.8532 -7382.7304 299.9312 -216.7862 -121.3640 30298.3771 3.7573 3.6262
ENERGY: 1300000 1.8072 10.7931 3.3527 0.0000 -10632.7212 1474.0908 0.0000 0.0000 1747.2837 -7395.3937 299.9908 -9142.6774 -7393.8233 301.0635 232.7650 279.2751 30255.8968 2.3142 2.3644
ENERGY: 1500000 1.3398 10.1412 2.6212 0.0000 -10475.7865 1365.0122 0.0000 0.0000 1724.9789 -7371.6931 296.1613 -9096.6720 -7368.1650 300.5503 -475.2094 -421.4558 30436.3647 4.6902 4.6887
ENERGY: 1700000 1.5041 10.6039 1.6721 0.0000 -10672.8119 1465.5714 0.0000 0.0000 1759.1910 -7434.2694 302.0352 -9193.4603 -7429.1972 300.4494 75.8750 173.0746 30278.6385 2.1934 2.3940
ENERGY: 1900000 2.0582 11.0879 3.4319 0.0000 -10568.2423 1458.7978 0.0000 0.0000 1818.0582 -7274.8083 312.1421 -9092.8665 -7271.9873 299.8740 667.2940 759.9895 29749.3017 2.2852 2.3947
TCL: Exiting due to exit command.
