Info: SIMULATION PARAMETERS:
Info: TIMESTEP               2
Info: NUMBER OF STEPS        0
Info: STEPS PER CYCLE        10
Info: PERIODIC CELL BASIS 1  32.955 0 0
Info: PERIODIC CELL BASIS 2  0 34.26 0
Info: PERIODIC CELL BASIS 3  0 0 37.773
Info: PERIODIC CELL CENTER   0 0 0
Info: WRAPPING WATERS AROUND PERIODIC BOUNDARIES ON OUTPUT.
Info: WRAPPING ALL CLUSTERS AROUND PERIODIC BOUNDARIES ON OUTPUT.
Info: FIRST LDB TIMESTEP     50
Info: LAST LDB TIMESTEP     -1
Info: HOM BACKGROUND SCALING 1
Info: PME BACKGROUND SCALING 1
Info: MIN ATOMS PER PATCH    40
Info: EMPTY PATCH LOAD       40 ATOMS
Info: INITIAL TEMPERATURE    300
Info: CENTER OF MASS MOVING INITIALLY? NO
Info: DIELECTRIC             1
Info: EXCLUDE                SCALED ONE-FOUR
Info: 1-4 ELECTROSTATICS SCALED BY 0.833333
Info: MODIFIED 1-4 VDW PARAMETERS WILL BE USED
Info: DCD FILENAME           mobley_1827204_equil.dcd
Info: DCD FREQUENCY          100000
Info: DCD FIRST STEP         100000
Info: DCD FILE WILL CONTAIN UNIT CELL DATA
Info: XST FILENAME           mobley_1827204_equil.xst
Info: XST FREQUENCY          100000
Info: NO VELOCITY DCD OUTPUT
Info: NO FORCE DCD OUTPUT
Info: OUTPUT FILENAME        mobley_1827204_equil
Info: BINARY OUTPUT FILES WILL BE USED
Info: RESTART FILENAME       mobley_1827204_equil.restart
Info: RESTART FREQUENCY      100000
Info: BINARY RESTART FILES WILL BE USED
Info: CUTOFF                 9
Info: PAIRLIST DISTANCE      11
Info: PAIRLIST SHRINK RATE   0.01
Info: PAIRLIST GROW RATE     0.01
Info: PAIRLIST TRIGGER       0.3
Info: PAIRLISTS PER CYCLE    2
Info: PAIRLISTS ENABLED
Info: MARGIN                 8
Info: HYDROGEN GROUP CUTOFF  2.5
Info: PATCH DIMENSION        21.5
Info: ENERGY OUTPUT STEPS    100000
Info: ENERGY EVALUATION STEPS    100000
Info: OUTPUT ENERGY PRECISION 4
Info: CROSSTERM ENERGY INCLUDED IN DIHEDRAL
Info: TIMING OUTPUT STEPS    1000000
Info: PRESSURE OUTPUT STEPS  100000
Info: LANGEVIN DYNAMICS ACTIVE
Info: LANGEVIN TEMPERATURE   30
Info: LANGEVIN USING BBK INTEGRATOR
Info: LANGEVIN DAMPING COEFFICIENT IS 1 INVERSE PS
Info: LANGEVIN DYNAMICS APPLIED TO HYDROGENS
Info: LANGEVIN PISTON PRESSURE CONTROL ACTIVE
Info:        TARGET PRESSURE IS 1.01325 BAR
Info:     OSCILLATION PERIOD IS 50 FS
Info:             DECAY TIME IS 25 FS
Info:     PISTON TEMPERATURE IS 300 K
Info:       PRESSURE CONTROL IS GROUP-BASED
Info:    INITIAL STRAIN RATE IS 0 0 0
Info:       CELL FLUCTUATION IS ISOTROPIC
Info: PARTICLE MESH EWALD (PME) ACTIVE
Info: PME TOLERANCE               1e-06
Info: PME EWALD COEFFICIENT       0.348832
Info: PME INTERPOLATION ORDER     4
Info: PME GRID DIMENSIONS         36 36 40
Info: PME MAXIMUM GRID SPACING    1
Info: FULL ELECTROSTATIC EVALUATION FREQUENCY      2
Info: USING VERLET I (r-RESPA) MTS SCHEME.
Info: C1 SPLITTING OF LONG RANGE ELECTROSTATICS
Info: PLACING ATOMS IN PATCHES BY HYDROGEN GROUPS
Info: RIGID BONDS TO HYDROGEN : ALL
Info:         ERROR TOLERANCE : 1e-08
Info:          MAX ITERATIONS : 100
Info: RIGID WATER USING SETTLE ALGORITHM
Info: RANDOM NUMBER SEED     1743253516
Info: USE HYDROGEN BONDS?    NO
Info: Using AMBER format force field!
Info: AMBER PARM FILE        mobley_1827204.prmtop
Info: COORDINATE PDB         mobley_1827204.pdb
Info: Exclusions will be read from PARM file!
Info: SCNB (VDW SCALING)     2
Info: USING ARITHMETIC MEAN TO COMBINE L-J SIGMA PARAMETERS
Info: BINARY COORDINATES     mobley_1827204_min.coor
Info: SUMMARY OF PARAMETERS:
Info: 7 BONDS
Info: 8 ANGLES
Info:   8 HARMONIC
Info:   0 COSINE-BASED
Info: 11 DIHEDRAL
Info: 0 IMPROPER
Info: 0 CROSSTERM
Info: 0 VDW
Info: 28 VDW_PAIRS
Info: 0 NBTHOLE_PAIRS
Info: STRUCTURE SUMMARY:
Info: 2971 ATOMS
Info: 2970 BONDS
Info: 33 ANGLES
Info: 51 DIHEDRALS
Info: 0 IMPROPERS
Info: 0 CROSSTERMS
Info: 3045 EXCLUSIONS
Info: 2964 RIGID BONDS
Info: 5949 DEGREES OF FREEDOM
Info: 991 HYDROGEN GROUPS
Info: 4 ATOMS IN LARGEST HYDROGEN GROUP
Info: 991 MIGRATION GROUPS
Info: 4 ATOMS IN LARGEST MIGRATION GROUP
Info: TOTAL MASS = 17827.9 amu
Info: TOTAL CHARGE = 6.51926e-09 e
Info: MASS DENSITY = 0.694176 g/cm^3
Info: ATOM DENSITY = 0.0696647 atoms/A^3
Info: ADDED 0 IMPLICIT EXCLUSIONS
Info: NONBONDED TABLE R-SQUARED SPACING: 0.0625
Info: NONBONDED TABLE SIZE: 705 POINTS
Info: REMOVING COM VELOCITY 0.107729 -0.0117743 -0.16212
TCL: Running for 100000 steps
ETITLE: TS BOND ANGLE DIHED IMPRP ELECT VDW BOUNDARY MISC KINETIC TOTAL TEMP POTENTIAL TOTAL3 TEMPAVG PRESSURE GPRESSURE VOLUME PRESSAVG GPRESSAVG
ENERGY: 0 0.0807 0.1552 2.7449 0.0000 -13635.1894 2338.1961 0.0000 0.0000 1803.1414 -9490.8711 305.0536 -11294.0125 -9490.4621 305.0536 -22.1917 15.3469 42647.1637 -22.1917 15.3469
ENERGY: 100000 0.7003 0.8183 2.3327 0.0000 -14225.3899 2383.8540 0.0000 0.0000 177.2794 -11660.4052 29.9919 -11837.6846 -11659.8724 30.9572 -1042.2590 -999.3376 29411.9873 4.7296 4.6676
TCL: Running 100000 steps at 60 kelvin.
TCL: Setting parameter langevinTemp to 60
TCL: Running for 100000 steps
ETITLE: TS BOND ANGLE DIHED IMPRP ELECT VDW BOUNDARY MISC KINETIC TOTAL TEMP POTENTIAL TOTAL3 TEMPAVG PRESSURE GPRESSURE VOLUME PRESSAVG GPRESSAVG
ENERGY: 100000 0.7003 0.8183 2.3327 0.0000 -14225.3899 2383.8540 0.0000 0.0000 177.1900 -11660.4946 29.9768 -11837.6846 -11660.0675 29.9768 -1043.0313 -999.2681 29411.9873 -1043.0313 -999.2681
ENERGY: 200000 0.2571 1.8303 2.1930 0.0000 -14243.4137 2518.4882 0.0000 0.0000 352.1848 -11368.4604 59.5823 -11720.6452 -11367.3497 59.8827 614.3996 675.7771 29034.1259 3.1260 3.1219
TCL: Running 100000 steps at 90 kelvin.
TCL: Setting parameter langevinTemp to 90
TCL: Running for 100000 steps
ETITLE: TS BOND ANGLE DIHED IMPRP ELECT VDW BOUNDARY MISC KINETIC TOTAL TEMP POTENTIAL TOTAL3 TEMPAVG PRESSURE GPRESSURE VOLUME PRESSAVG GPRESSAVG
ENERGY: 200000 0.2571 1.8303 2.1930 0.0000 -14243.4137 2518.4882 0.0000 0.0000 352.0093 -11368.6359 59.5526 -11720.6452 -11367.9871 59.5526 626.6800 676.1348 29034.1259 626.6800 676.1348
ENERGY: 300000 1.8827 2.4567 1.9655 0.0000 -13797.3046 2184.4892 0.0000 0.0000 534.6600 -11071.8504 90.4532 -11606.5105 -11070.4922 90.1562 -1801.3234 -1756.3026 29303.1051 3.5280 3.4440
TCL: Running 100000 steps at 120 kelvin.
TCL: Setting parameter langevinTemp to 120
TCL: Running for 100000 steps
ETITLE: TS BOND ANGLE DIHED IMPRP ELECT VDW BOUNDARY MISC KINETIC TOTAL TEMP POTENTIAL TOTAL3 TEMPAVG PRESSURE GPRESSURE VOLUME PRESSAVG GPRESSAVG
ENERGY: 300000 1.8827 2.4567 1.9655 0.0000 -13797.3046 2184.4892 0.0000 0.0000 534.3968 -11072.1136 90.4087 -11606.5105 -11070.8453 90.4087 -1809.6216 -1756.4590 29303.1051 -1809.6216 -1756.4590
ENERGY: 400000 0.8305 3.5993 1.9454 0.0000 -13717.2945 2238.5833 0.0000 0.0000 697.4340 -10774.9021 117.9912 -11472.3361 -10773.2512 119.8891 -688.1523 -631.5729 28990.2033 3.0735 2.9517
TCL: Running 100000 steps at 150 kelvin.
TCL: Setting parameter langevinTemp to 150
TCL: Running for 100000 steps
ETITLE: TS BOND ANGLE DIHED IMPRP ELECT VDW BOUNDARY MISC KINETIC TOTAL TEMP POTENTIAL TOTAL3 TEMPAVG PRESSURE GPRESSURE VOLUME PRESSAVG GPRESSAVG
ENERGY: 400000 0.8305 3.5993 1.9454 0.0000 -13717.2945 2238.5833 0.0000 0.0000 697.0865 -10775.2496 117.9324 -11472.3361 -10773.8162 117.9324 -675.1844 -632.1475 28990.2033 -675.1844 -632.1475
ENERGY: 500000 0.8734 5.3407 2.0967 0.0000 -13629.7466 2277.7216 0.0000 0.0000 877.3335 -10466.3806 148.4264 -11343.7142 -10463.3330 149.8887 216.9219 296.0393 28718.1087 3.7521 3.8263
TCL: Running 100000 steps at 180 kelvin.
TCL: Setting parameter langevinTemp to 180
TCL: Running for 100000 steps
ETITLE: TS BOND ANGLE DIHED IMPRP ELECT VDW BOUNDARY MISC KINETIC TOTAL TEMP POTENTIAL TOTAL3 TEMPAVG PRESSURE GPRESSURE VOLUME PRESSAVG GPRESSAVG
ENERGY: 500000 0.8734 5.3407 2.0967 0.0000 -13629.7466 2277.7216 0.0000 0.0000 876.8877 -10466.8264 148.3510 -11343.7142 -10465.4062 148.3510 248.6209 297.1801 28718.1087 248.6209 297.1801
ENERGY: 600000 0.2280 3.9701 2.2833 0.0000 -13044.9846 2008.8978 0.0000 0.0000 1055.0838 -9974.5216 178.4980 -11029.6054 -9972.5826 180.0174 -1051.3549 -1014.4912 29265.2489 5.7312 5.7535
TCL: Running 100000 steps at 210 kelvin.
TCL: Setting parameter langevinTemp to 210
TCL: Running for 100000 steps
ETITLE: TS BOND ANGLE DIHED IMPRP ELECT VDW BOUNDARY MISC KINETIC TOTAL TEMP POTENTIAL TOTAL3 TEMPAVG PRESSURE GPRESSURE VOLUME PRESSAVG GPRESSAVG
ENERGY: 600000 0.2280 3.9701 2.2833 0.0000 -13044.9846 2008.8978 0.0000 0.0000 1054.5509 -9975.0545 178.4079 -11029.6054 -9972.9134 178.4079 -1105.2262 -1014.5462 29265.2489 -1105.2262 -1014.5462
ENERGY: 700000 2.9725 5.7220 2.3402 0.0000 -12392.0339 1783.6306 0.0000 0.0000 1205.4703 -9391.8982 203.9402 -10597.3686 -9389.0684 209.7673 -1281.0982 -1177.4732 29053.6677 3.9262 4.0835
TCL: Running 100000 steps at 240 kelvin.
TCL: Setting parameter langevinTemp to 240
TCL: Running for 100000 steps
ETITLE: TS BOND ANGLE DIHED IMPRP ELECT VDW BOUNDARY MISC KINETIC TOTAL TEMP POTENTIAL TOTAL3 TEMPAVG PRESSURE GPRESSURE VOLUME PRESSAVG GPRESSAVG
ENERGY: 700000 2.9725 5.7220 2.3402 0.0000 -12392.0339 1783.6306 0.0000 0.0000 1204.8623 -9392.5063 203.8374 -10597.3686 -9390.2896 203.8374 -1248.9356 -1176.7035 29053.6677 -1248.9356 -1176.7035
ENERGY: 800000 1.4369 8.3633 3.5482 0.0000 -11863.7687 1782.3107 0.0000 0.0000 1409.5405 -8658.5691 238.4646 -10068.1096 -8656.5428 240.3463 738.6147 780.3416 29089.6209 2.9399 3.0409
TCL: Running 100000 steps at 270 kelvin.
TCL: Setting parameter langevinTemp to 270
TCL: Running for 100000 steps
ETITLE: TS BOND ANGLE DIHED IMPRP ELECT VDW BOUNDARY MISC KINETIC TOTAL TEMP POTENTIAL TOTAL3 TEMPAVG PRESSURE GPRESSURE VOLUME PRESSAVG GPRESSAVG
ENERGY: 800000 1.4369 8.3633 3.5482 0.0000 -11863.7687 1782.3107 0.0000 0.0000 1408.8367 -8659.2729 238.3456 -10068.1096 -8657.6278 238.3456 687.8208 781.0838 29089.6209 687.8208 781.0838
ENERGY: 900000 1.4122 8.7708 3.3321 0.0000 -11182.8538 1485.3091 0.0000 0.0000 1534.2331 -8149.7964 259.5600 -9684.0296 -8145.2660 270.1464 -811.4322 -732.1059 29952.1018 2.7519 2.8041
TCL: Running 1000000 steps at 300 kelvin.
TCL: Setting parameter langevinTemp to 300
TCL: Running for 1000000 steps
ETITLE: TS BOND ANGLE DIHED IMPRP ELECT VDW BOUNDARY MISC KINETIC TOTAL TEMP POTENTIAL TOTAL3 TEMPAVG PRESSURE GPRESSURE VOLUME PRESSAVG GPRESSAVG
ENERGY: 900000 1.4122 8.7708 3.3321 0.0000 -11182.8538 1485.3091 0.0000 0.0000 1533.4790 -8150.5506 259.4324 -9684.0296 -8147.4615 259.4324 -814.5121 -730.8208 29952.1018 -814.5121 -730.8208
ENERGY: 1100000 2.5630 6.8235 2.6205 0.0000 -10719.5509 1454.7137 0.0000 0.0000 1799.5111 -7453.3191 304.4395 -9252.8302 -7446.9409 300.3219 130.2771 166.5404 30818.0142 3.7589 3.8906
ENERGY: 1300000 1.9979 9.9552 4.4406 0.0000 -10768.7574 1471.9068 0.0000 0.0000 1824.1670 -7456.2899 308.6107 -9280.4569 -7453.7624 300.8109 262.5548 297.7795 30809.2943 3.0781 3.1379
ENERGY: 1500000 1.2851 11.0137 5.7500 0.0000 -10766.0872 1433.1332 0.0000 0.0000 1827.9402 -7486.9651 309.2491 -9314.9053 -7482.1671 300.3368 -143.8495 -107.1802 30462.6119 3.1341 3.1814
ENERGY: 1700000 1.2060 9.7758 3.9804 0.0000 -10797.3990 1550.3445 0.0000 0.0000 1752.7371 -7479.3553 296.5263 -9232.0924 -7475.0889 299.5047 1232.6229 1327.1383 30051.4827 3.4115 3.4593
ENERGY: 1900000 0.5444 6.1576 3.9654 0.0000 -10702.7355 1422.6680 0.0000 0.0000 1696.7672 -7572.6330 287.0573 -9269.4001 -7569.3981 300.2452 -264.2390 -134.0104 30896.9393 4.7109 4.6530
TCL: Exiting due to exit command.
