Info: SIMULATION PARAMETERS:
Info: TIMESTEP               2
Info: NUMBER OF STEPS        0
Info: STEPS PER CYCLE        10
Info: PERIODIC CELL BASIS 1  37.435 0 0
Info: PERIODIC CELL BASIS 2  0 32.862 0
Info: PERIODIC CELL BASIS 3  0 0 35.723
Info: PERIODIC CELL CENTER   0 0 0
Info: WRAPPING WATERS AROUND PERIODIC BOUNDARIES ON OUTPUT.
Info: WRAPPING ALL CLUSTERS AROUND PERIODIC BOUNDARIES ON OUTPUT.
Info: FIRST LDB TIMESTEP     50
Info: LAST LDB TIMESTEP     -1
Info: HOM BACKGROUND SCALING 1
Info: PME BACKGROUND SCALING 1
Info: MIN ATOMS PER PATCH    40
Info: EMPTY PATCH LOAD       40 ATOMS
Info: INITIAL TEMPERATURE    300
Info: CENTER OF MASS MOVING INITIALLY? NO
Info: DIELECTRIC             1
Info: EXCLUDE                SCALED ONE-FOUR
Info: 1-4 ELECTROSTATICS SCALED BY 0.833333
Info: MODIFIED 1-4 VDW PARAMETERS WILL BE USED
Info: DCD FILENAME           mobley_5390332_equil.dcd
Info: DCD FREQUENCY          100000
Info: DCD FIRST STEP         100000
Info: DCD FILE WILL CONTAIN UNIT CELL DATA
Info: XST FILENAME           mobley_5390332_equil.xst
Info: XST FREQUENCY          100000
Info: NO VELOCITY DCD OUTPUT
Info: NO FORCE DCD OUTPUT
Info: OUTPUT FILENAME        mobley_5390332_equil
Info: BINARY OUTPUT FILES WILL BE USED
Info: RESTART FILENAME       mobley_5390332_equil.restart
Info: RESTART FREQUENCY      100000
Info: BINARY RESTART FILES WILL BE USED
Info: CUTOFF                 9
Info: PAIRLIST DISTANCE      11
Info: PAIRLIST SHRINK RATE   0.01
Info: PAIRLIST GROW RATE     0.01
Info: PAIRLIST TRIGGER       0.3
Info: PAIRLISTS PER CYCLE    2
Info: PAIRLISTS ENABLED
Info: MARGIN                 8
Info: HYDROGEN GROUP CUTOFF  2.5
Info: PATCH DIMENSION        21.5
Info: ENERGY OUTPUT STEPS    100000
Info: ENERGY EVALUATION STEPS    100000
Info: OUTPUT ENERGY PRECISION 4
Info: CROSSTERM ENERGY INCLUDED IN DIHEDRAL
Info: TIMING OUTPUT STEPS    1000000
Info: PRESSURE OUTPUT STEPS  100000
Info: LANGEVIN DYNAMICS ACTIVE
Info: LANGEVIN TEMPERATURE   30
Info: LANGEVIN USING BBK INTEGRATOR
Info: LANGEVIN DAMPING COEFFICIENT IS 1 INVERSE PS
Info: LANGEVIN DYNAMICS APPLIED TO HYDROGENS
Info: LANGEVIN PISTON PRESSURE CONTROL ACTIVE
Info:        TARGET PRESSURE IS 1.01325 BAR
Info:     OSCILLATION PERIOD IS 50 FS
Info:             DECAY TIME IS 25 FS
Info:     PISTON TEMPERATURE IS 300 K
Info:       PRESSURE CONTROL IS GROUP-BASED
Info:    INITIAL STRAIN RATE IS 0 0 0
Info:       CELL FLUCTUATION IS ISOTROPIC
Info: PARTICLE MESH EWALD (PME) ACTIVE
Info: PME TOLERANCE               1e-06
Info: PME EWALD COEFFICIENT       0.348832
Info: PME INTERPOLATION ORDER     4
Info: PME GRID DIMENSIONS         40 36 36
Info: PME MAXIMUM GRID SPACING    1
Info: FULL ELECTROSTATIC EVALUATION FREQUENCY      2
Info: USING VERLET I (r-RESPA) MTS SCHEME.
Info: C1 SPLITTING OF LONG RANGE ELECTROSTATICS
Info: PLACING ATOMS IN PATCHES BY HYDROGEN GROUPS
Info: RIGID BONDS TO HYDROGEN : ALL
Info:         ERROR TOLERANCE : 1e-08
Info:          MAX ITERATIONS : 100
Info: RIGID WATER USING SETTLE ALGORITHM
Info: RANDOM NUMBER SEED     1743242275
Info: USE HYDROGEN BONDS?    NO
Info: Using AMBER format force field!
Info: AMBER PARM FILE        mobley_5390332.prmtop
Info: COORDINATE PDB         mobley_5390332.pdb
Info: Exclusions will be read from PARM file!
Info: SCNB (VDW SCALING)     2
Info: USING ARITHMETIC MEAN TO COMBINE L-J SIGMA PARAMETERS
Info: BINARY COORDINATES     mobley_5390332_min.coor
Info: SUMMARY OF PARAMETERS:
Info: 9 BONDS
Info: 11 ANGLES
Info:   11 HARMONIC
Info:   0 COSINE-BASED
Info: 13 DIHEDRAL
Info: 0 IMPROPER
Info: 0 CROSSTERM
Info: 0 VDW
Info: 36 VDW_PAIRS
Info: 0 NBTHOLE_PAIRS
Info: STRUCTURE SUMMARY:
Info: 2987 ATOMS
Info: 2986 BONDS
Info: 28 ANGLES
Info: 37 DIHEDRALS
Info: 0 IMPROPERS
Info: 0 CROSSTERMS
Info: 3043 EXCLUSIONS
Info: 2980 RIGID BONDS
Info: 5981 DEGREES OF FREEDOM
Info: 997 HYDROGEN GROUPS
Info: 4 ATOMS IN LARGEST HYDROGEN GROUP
Info: 997 MIGRATION GROUPS
Info: 4 ATOMS IN LARGEST MIGRATION GROUP
Info: TOTAL MASS = 17938 amu
Info: TOTAL CHARGE = -9.99719e-05 e
Info: MASS DENSITY = 0.677818 g/cm^3
Info: ATOM DENSITY = 0.0679697 atoms/A^3
Info: ADDED 0 IMPLICIT EXCLUSIONS
Info: NONBONDED TABLE R-SQUARED SPACING: 0.0625
Info: NONBONDED TABLE SIZE: 705 POINTS
Info: REMOVING COM VELOCITY 0.12052 -0.00491786 0.0044688
TCL: Running for 100000 steps
ETITLE: TS BOND ANGLE DIHED IMPRP ELECT VDW BOUNDARY MISC KINETIC TOTAL TEMP POTENTIAL TOTAL3 TEMPAVG PRESSURE GPRESSURE VOLUME PRESSAVG GPRESSAVG
ENERGY: 0 0.1114 0.3968 0.7929 0.0000 -13827.2317 2429.4579 0.0000 0.0000 1763.5642 -9632.9085 296.7617 -11396.4727 -9632.5637 296.7617 358.0061 396.5897 43946.0406 358.0061 396.5897
ENERGY: 100000 0.1644 0.8737 2.0848 0.0000 -14315.7942 2495.4050 0.0000 0.0000 177.4186 -11639.8475 29.8549 -11817.2661 -11639.3310 30.8683 55.7984 87.8540 30085.4039 4.6247 4.6460
TCL: Running 100000 steps at 60 kelvin.
TCL: Setting parameter langevinTemp to 60
TCL: Running for 100000 steps
ETITLE: TS BOND ANGLE DIHED IMPRP ELECT VDW BOUNDARY MISC KINETIC TOTAL TEMP POTENTIAL TOTAL3 TEMPAVG PRESSURE GPRESSURE VOLUME PRESSAVG GPRESSAVG
ENERGY: 100000 0.1644 0.8737 2.0848 0.0000 -14315.7942 2495.4050 0.0000 0.0000 177.3279 -11639.9382 29.8397 -11817.2661 -11639.6003 29.8397 50.0433 87.8552 30085.4039 50.0433 87.8552
ENERGY: 200000 0.6743 1.8365 2.0619 0.0000 -14198.2530 2396.2065 0.0000 0.0000 348.4566 -11449.0172 58.6361 -11797.4738 -11448.4572 59.9966 -486.5539 -433.0374 29550.9755 4.2426 4.3207
TCL: Running 100000 steps at 90 kelvin.
TCL: Setting parameter langevinTemp to 90
TCL: Running for 100000 steps
ETITLE: TS BOND ANGLE DIHED IMPRP ELECT VDW BOUNDARY MISC KINETIC TOTAL TEMP POTENTIAL TOTAL3 TEMPAVG PRESSURE GPRESSURE VOLUME PRESSAVG GPRESSAVG
ENERGY: 200000 0.6743 1.8365 2.0619 0.0000 -14198.2530 2396.2065 0.0000 0.0000 348.2796 -11449.1942 58.6063 -11797.4738 -11448.4286 58.6063 -485.0238 -433.7196 29550.9755 -485.0238 -433.7196
ENERGY: 300000 0.6560 2.9592 2.0143 0.0000 -14217.6197 2504.5163 0.0000 0.0000 551.7828 -11155.6912 92.8506 -11707.4740 -11154.3809 89.8010 1029.9095 1114.9168 28804.8585 3.4354 3.3654
TCL: Running 100000 steps at 120 kelvin.
TCL: Setting parameter langevinTemp to 120
TCL: Running for 100000 steps
ETITLE: TS BOND ANGLE DIHED IMPRP ELECT VDW BOUNDARY MISC KINETIC TOTAL TEMP POTENTIAL TOTAL3 TEMPAVG PRESSURE GPRESSURE VOLUME PRESSAVG GPRESSAVG
ENERGY: 300000 0.6560 2.9592 2.0143 0.0000 -14217.6197 2504.5163 0.0000 0.0000 551.5221 -11155.9519 92.8067 -11707.4740 -11154.7448 92.8067 1058.4592 1114.6055 28804.8585 1058.4592 1114.6055
ENERGY: 400000 0.9376 4.1247 2.7911 0.0000 -13866.1184 2271.7435 0.0000 0.0000 697.5585 -10888.9630 117.3808 -11586.5214 -10886.3069 119.8303 -627.6615 -548.8416 29237.6297 3.4891 3.5060
TCL: Running 100000 steps at 150 kelvin.
TCL: Setting parameter langevinTemp to 150
TCL: Running for 100000 steps
ETITLE: TS BOND ANGLE DIHED IMPRP ELECT VDW BOUNDARY MISC KINETIC TOTAL TEMP POTENTIAL TOTAL3 TEMPAVG PRESSURE GPRESSURE VOLUME PRESSAVG GPRESSAVG
ENERGY: 400000 0.9376 4.1247 2.7911 0.0000 -13866.1184 2271.7435 0.0000 0.0000 697.2052 -10889.3163 117.3214 -11586.5214 -10887.6312 117.3214 -611.2379 -548.8302 29237.6297 -611.2379 -548.8302
ENERGY: 500000 0.6935 2.4390 2.9605 0.0000 -13645.6206 2240.4812 0.0000 0.0000 921.4380 -10477.6084 155.0539 -11399.0464 -10474.7938 149.7316 13.2828 63.6360 29006.8163 4.4133 4.4015
TCL: Running 100000 steps at 180 kelvin.
TCL: Setting parameter langevinTemp to 180
TCL: Running for 100000 steps
ETITLE: TS BOND ANGLE DIHED IMPRP ELECT VDW BOUNDARY MISC KINETIC TOTAL TEMP POTENTIAL TOTAL3 TEMPAVG PRESSURE GPRESSURE VOLUME PRESSAVG GPRESSAVG
ENERGY: 500000 0.6935 2.4390 2.9605 0.0000 -13645.6206 2240.4812 0.0000 0.0000 921.0069 -10478.0395 154.9814 -11399.0464 -10476.1665 154.9814 15.6592 63.9213 29006.8163 15.6592 63.9213
ENERGY: 600000 1.2647 3.0003 2.7087 0.0000 -13253.0967 2136.7017 0.0000 0.0000 1097.7748 -10011.6465 184.7268 -11109.4213 -10009.6185 179.9548 11.0721 84.9656 29409.5281 4.0459 4.0346
TCL: Running 100000 steps at 210 kelvin.
TCL: Setting parameter langevinTemp to 210
TCL: Running for 100000 steps
ETITLE: TS BOND ANGLE DIHED IMPRP ELECT VDW BOUNDARY MISC KINETIC TOTAL TEMP POTENTIAL TOTAL3 TEMPAVG PRESSURE GPRESSURE VOLUME PRESSAVG GPRESSAVG
ENERGY: 600000 1.2647 3.0003 2.7087 0.0000 -13253.0967 2136.7017 0.0000 0.0000 1097.2354 -10012.1859 184.6360 -11109.4213 -10010.0876 184.6360 17.5682 85.0536 29409.5281 17.5682 85.0536
ENERGY: 700000 2.7069 5.2709 2.7138 0.0000 -12556.4458 1928.3922 0.0000 0.0000 1293.1977 -9324.1643 217.6113 -10617.3620 -9322.3118 210.1940 536.4341 653.7479 28767.9522 1.9561 1.9942
TCL: Running 100000 steps at 240 kelvin.
TCL: Setting parameter langevinTemp to 240
TCL: Running for 100000 steps
ETITLE: TS BOND ANGLE DIHED IMPRP ELECT VDW BOUNDARY MISC KINETIC TOTAL TEMP POTENTIAL TOTAL3 TEMPAVG PRESSURE GPRESSURE VOLUME PRESSAVG GPRESSAVG
ENERGY: 700000 2.7069 5.2709 2.7138 0.0000 -12556.4458 1928.3922 0.0000 0.0000 1292.5708 -9324.7912 217.5058 -10617.3620 -9322.7383 217.5058 564.8591 652.3093 28767.9522 564.8591 652.3093
ENERGY: 800000 1.1420 5.5017 1.8041 0.0000 -11998.1058 1748.9333 0.0000 0.0000 1429.8045 -8810.9201 240.5987 -10240.7246 -8805.8823 239.8360 377.7971 468.8365 28964.1184 3.2914 3.4678
TCL: Running 100000 steps at 270 kelvin.
TCL: Setting parameter langevinTemp to 270
TCL: Running for 100000 steps
ETITLE: TS BOND ANGLE DIHED IMPRP ELECT VDW BOUNDARY MISC KINETIC TOTAL TEMP POTENTIAL TOTAL3 TEMPAVG PRESSURE GPRESSURE VOLUME PRESSAVG GPRESSAVG
ENERGY: 800000 1.1420 5.5017 1.8041 0.0000 -11998.1058 1748.9333 0.0000 0.0000 1429.0753 -8811.6494 240.4760 -10240.7247 -8809.3306 240.4760 382.1869 472.1580 28964.1184 382.1869 472.1580
ENERGY: 900000 1.0859 3.7625 1.8769 0.0000 -11264.6757 1534.3454 0.0000 0.0000 1612.4345 -8111.1705 271.3305 -9723.6050 -8106.8908 270.0692 -342.2303 -224.1423 30077.8448 4.0428 3.8919
TCL: Running 1000000 steps at 300 kelvin.
TCL: Setting parameter langevinTemp to 300
TCL: Running for 1000000 steps
ETITLE: TS BOND ANGLE DIHED IMPRP ELECT VDW BOUNDARY MISC KINETIC TOTAL TEMP POTENTIAL TOTAL3 TEMPAVG PRESSURE GPRESSURE VOLUME PRESSAVG GPRESSAVG
ENERGY: 900000 1.0859 3.7625 1.8769 0.0000 -11264.6757 1534.3454 0.0000 0.0000 1611.6189 -8111.9860 271.1933 -9723.6050 -8109.1580 271.1933 -321.2505 -223.2539 30077.8448 -321.2505 -223.2539
ENERGY: 1100000 2.3080 3.8387 4.6860 0.0000 -10760.2437 1421.1267 0.0000 0.0000 1764.8961 -7563.3881 296.9858 -9328.2842 -7560.3871 301.0734 -232.4620 -127.8428 31071.3749 2.4989 2.2545
ENERGY: 1300000 0.6880 8.9190 2.2095 0.0000 -10790.7567 1398.6834 0.0000 0.0000 1831.7361 -7548.5207 308.2332 -9380.2567 -7545.7758 300.0540 -445.8911 -380.0936 30896.0618 3.7242 3.4301
ENERGY: 1500000 0.8417 8.4969 1.8225 0.0000 -10962.1143 1479.0620 0.0000 0.0000 1743.8904 -7728.0007 293.4511 -9471.8911 -7726.6414 299.7491 -133.8338 -47.0193 30574.2061 3.9825 4.0391
ENERGY: 1700000 1.9833 5.5881 2.7688 0.0000 -10950.3329 1505.1543 0.0000 0.0000 1752.0990 -7682.7394 294.8324 -9434.8385 -7678.7611 300.1104 146.8504 247.5072 30628.7930 2.5895 2.6627
ENERGY: 1900000 2.0927 5.9221 3.7392 0.0000 -10925.9458 1453.3913 0.0000 0.0000 1792.3197 -7668.4807 301.6005 -9460.8005 -7664.9267 300.2452 -267.2615 -199.2182 30962.7951 3.0181 3.0496
TCL: Exiting due to exit command.
