Info: SIMULATION PARAMETERS:
Info: TIMESTEP               2
Info: NUMBER OF STEPS        0
Info: STEPS PER CYCLE        10
Info: PERIODIC CELL BASIS 1  30.9996 0 0
Info: PERIODIC CELL BASIS 2  0 30.3564 0
Info: PERIODIC CELL BASIS 3  0 0 32.0744
Info: PERIODIC CELL CENTER   0 0 0
Info: WRAPPING WATERS AROUND PERIODIC BOUNDARIES ON OUTPUT.
Info: WRAPPING ALL CLUSTERS AROUND PERIODIC BOUNDARIES ON OUTPUT.
Info: FIRST LDB TIMESTEP     50
Info: LAST LDB TIMESTEP     -1
Info: HOM BACKGROUND SCALING 1
Info: PME BACKGROUND SCALING 1
Info: MIN ATOMS PER PATCH    40
Info: EMPTY PATCH LOAD       40 ATOMS
Info: VELOCITY FILE          mobley_3425174_equil.vel
Info: CENTER OF MASS MOVING INITIALLY? NO
Info: DIELECTRIC             1
Info: EXCLUDE                SCALED ONE-FOUR
Info: 1-4 ELECTROSTATICS SCALED BY 0.833333
Info: MODIFIED 1-4 VDW PARAMETERS WILL BE USED
Info: DCD FILENAME           mobley_3425174_prod.dcd
Info: DCD FREQUENCY          100000
Info: DCD FIRST STEP         100000
Info: DCD FILE WILL CONTAIN UNIT CELL DATA
Info: XST FILENAME           mobley_3425174_prod.xst
Info: XST FREQUENCY          100000
Info: NO VELOCITY DCD OUTPUT
Info: NO FORCE DCD OUTPUT
Info: OUTPUT FILENAME        mobley_3425174_prod
Info: BINARY OUTPUT FILES WILL BE USED
Info: RESTART FILENAME       mobley_3425174_prod.restart
Info: RESTART FREQUENCY      100000
Info: BINARY RESTART FILES WILL BE USED
Info: CUTOFF                 9
Info: PAIRLIST DISTANCE      11
Info: PAIRLIST SHRINK RATE   0.01
Info: PAIRLIST GROW RATE     0.01
Info: PAIRLIST TRIGGER       0.3
Info: PAIRLISTS PER CYCLE    2
Info: PAIRLISTS ENABLED
Info: MARGIN                 2
Info: HYDROGEN GROUP CUTOFF  2.5
Info: PATCH DIMENSION        15.5
Info: ENERGY OUTPUT STEPS    100000
Info: ENERGY EVALUATION STEPS    100000
Info: OUTPUT ENERGY PRECISION 4
Info: CROSSTERM ENERGY INCLUDED IN DIHEDRAL
Info: TIMING OUTPUT STEPS    1000000
Info: PRESSURE OUTPUT STEPS  100000
Info: ALCHEMICAL FEP ON
Info: FEP CURRENT LAMBDA VALUE     0
Info: FEP COMPARISON LAMBDA VALUE  0.05
Info: FEP INTRA-ALCHEMICAL NON-BONDED INTERACTIONS WILL BE RETAINED
Info: FEP INTRA-ALCHEMICAL BONDED INTERACTIONS WILL BE RETAINED
Info: FEP VDW SHIFTING COEFFICIENT 5
Info: FEP ELEC. ACTIVE FOR ANNIHILATED PARTICLES BETWEEN LAMBDA = 0 AND LAMBDA = 0.5
Info: FEP ELEC. ACTIVE FOR EXNIHILATED PARTICLES BETWEEN LAMBDA = 0.5 AND LAMBDA = 1
Info: FEP VDW ACTIVE FOR ANNIHILATED PARTICLES BETWEEN LAMBDA = 0 AND LAMBDA = 1
Info: FEP VDW ACTIVE FOR EXNIHILATED PARTICLES BETWEEN LAMBDA = 0 AND LAMBDA = 1
Info: FEP BOND ACTIVE FOR ANNIHILATED PARTICLES BETWEEN LAMBDA = 1 AND LAMBDA = 1
Info: FEP BOND ACTIVE FOR EXNIHILATED PARTICLES BETWEEN LAMBDA = 0 AND LAMBDA = 0
Info: LANGEVIN DYNAMICS ACTIVE
Info: LANGEVIN TEMPERATURE   300
Info: LANGEVIN USING BBK INTEGRATOR
Info: LANGEVIN DAMPING COEFFICIENT IS 1 INVERSE PS
Info: LANGEVIN DYNAMICS APPLIED TO HYDROGENS
Info: LANGEVIN PISTON PRESSURE CONTROL ACTIVE
Info:        TARGET PRESSURE IS 1.01325 BAR
Info:     OSCILLATION PERIOD IS 50 FS
Info:             DECAY TIME IS 25 FS
Info:     PISTON TEMPERATURE IS 300 K
Info:       PRESSURE CONTROL IS GROUP-BASED
Info:    INITIAL STRAIN RATE IS 0.000705704 0.000705704 0.000705704
Info:       CELL FLUCTUATION IS ISOTROPIC
Info: PARTICLE MESH EWALD (PME) ACTIVE
Info: PME TOLERANCE               1e-06
Info: PME EWALD COEFFICIENT       0.348832
Info: PME INTERPOLATION ORDER     4
Info: PME GRID DIMENSIONS         32 32 36
Info: PME MAXIMUM GRID SPACING    1
Info: PME CALCULATION WILL BE PERFORMED ON GPU
Info: FULL ELECTROSTATIC EVALUATION FREQUENCY      2
Info: USING VERLET I (r-RESPA) MTS SCHEME.
Info: C1 SPLITTING OF LONG RANGE ELECTROSTATICS
Info: PLACING ATOMS IN PATCHES BY HYDROGEN GROUPS
Info: RIGID BONDS TO HYDROGEN : ALL
Info:         ERROR TOLERANCE : 1e-08
Info:          MAX ITERATIONS : 100
Info: RIGID WATER USING SETTLE ALGORITHM
Info: RANDOM NUMBER SEED     1743390329
Info: USE HYDROGEN BONDS?    NO
Info: Using AMBER format force field!
Info: AMBER PARM FILE        mobley_3425174.prmtop
Info: COORDINATE PDB         mobley_3425174.pdb
Info: Exclusions will be read from PARM file!
Info: SCNB (VDW SCALING)     2
Info: USING ARITHMETIC MEAN TO COMBINE L-J SIGMA PARAMETERS
Info: BINARY COORDINATES     mobley_3425174_equil.coor
Info: SUMMARY OF PARAMETERS:
Info: 5 BONDS
Info: 4 ANGLES
Info:   4 HARMONIC
Info:   0 COSINE-BASED
Info: 0 DIHEDRAL
Info: 0 IMPROPER
Info: 0 CROSSTERM
Info: 0 VDW
Info: 21 VDW_PAIRS
Info: 0 NBTHOLE_PAIRS
Info: To read alchdata from file: mobley_3425174.pdb
Info: To read alchflag data from column: 5
Info: STRUCTURE SUMMARY:
Info: 2903 ATOMS
Info: 2902 BONDS
Info: 6 ANGLES
Info: 0 DIHEDRALS
Info: 0 IMPROPERS
Info: 0 CROSSTERMS
Info: 2908 EXCLUSIONS
Info: 2900 RIGID BONDS
Info: ALCH: 0 ATOMS TO DISAPPEAR IN FINAL STATE
Info: ALCH: 5 ATOMS TO APPEAR IN FINAL STATE
Info: 5809 DEGREES OF FREEDOM
Info: 969 HYDROGEN GROUPS
Info: 3 ATOMS IN LARGEST HYDROGEN GROUP
Info: 969 MIGRATION GROUPS
Info: 3 ATOMS IN LARGEST MIGRATION GROUP
Info: TOTAL MASS = 17471.9 amu
Info: TOTAL CHARGE = -9.99868e-05 e
Info: MASS DENSITY = 0.961246 g/cm^3
Info: ATOM DENSITY = 0.0961792 atoms/A^3
Info: ADDED 0 IMPLICIT EXCLUSIONS
Info: NONBONDED TABLE R-SQUARED SPACING: 0.0625
Info: NONBONDED TABLE SIZE: 705 POINTS
Info: REMOVING COM VELOCITY 0.0620943 0.097373 -0.000958369
Info: Use 3D box decompostion in PME FFT.
Info: Updated CUDA force table with 4096 elements.
Info: Updated CUDA LJ table with 6 x 6 elements.
Info: Found 8 unique exclusion lists needing 8 bytes
TCL: Running for 1500000 steps
ETITLE: TS BOND ANGLE DIHED IMPRP ELECT VDW BOUNDARY MISC KINETIC TOTAL TEMP POTENTIAL TOTALAVG TEMPAVG PRESSURE GPRESSURE VOLUME PRESSAVG GPRESSAVG
ENERGY: 0 0.2082 0.3986 0.0000 0.0000 -10528.8453 1382.6143 0.0000 0.0000 1736.0137 -7409.6106 300.7753 -9145.6244 -7409.6106 300.7753 -459.4405 -365.8785 30183.2263 -459.4405 -365.8785
ENERGY: 300000 0.1869 1.7913 0.0000 0.0000 -10376.7610 1298.3283 0.0000 0.0000 1706.8559 -7369.5985 295.7235 -9076.4545 -7366.2867 303.2852 -944.7301 -862.2555 30108.9219 -391.9564 -318.2329
ENERGY: 600000 0.5295 0.3365 0.0000 0.0000 -10649.5010 1455.3124 0.0000 0.0000 1747.4277 -7445.8949 302.7528 -9193.3226 -7392.4844 301.6597 93.6132 167.5240 29775.2778 -198.7398 -130.5045
ENERGY: 900000 1.3492 1.3591 0.0000 0.0000 -10530.6495 1428.0104 0.0000 0.0000 1724.8364 -7375.0943 298.8388 -9099.9308 -7389.8841 300.6379 -225.3817 -90.3581 30444.7030 -171.8727 -109.7865
ENERGY: 1200000 0.5996 2.3781 0.0000 0.0000 -10525.4312 1390.8851 0.0000 0.0000 1809.9113 -7321.6571 313.5785 -9131.5685 -7383.4687 301.8066 -282.2148 -235.5660 29802.7246 -113.7341 -48.1705
ENERGY: 1500000 0.1147 1.9138 0.0000 0.0000 -10523.7014 1377.4827 0.0000 0.0000 1729.8266 -7414.3636 299.7033 -9144.1902 -7385.4995 300.9778 -598.4429 -493.3057 29973.0155 -189.7936 -118.2165
TCL: Running FEP window   2: Lambda1 0.05   Lambda2 0.1    [dLambda 0.05  ]
TCL: Setting parameter firsttimestep to 0
TCL: Setting parameter alchLambda to 0.05
Info: NONBONDED TABLE R-SQUARED SPACING: 0.0625
Info: NONBONDED TABLE SIZE: 705 POINTS
TCL: Setting parameter alchLambda2 to 0.1
Info: NONBONDED TABLE R-SQUARED SPACING: 0.0625
Info: NONBONDED TABLE SIZE: 705 POINTS
TCL: Running for 1500000 steps
ETITLE: TS BOND ANGLE DIHED IMPRP ELECT VDW BOUNDARY MISC KINETIC TOTAL TEMP POTENTIAL TOTALAVG TEMPAVG PRESSURE GPRESSURE VOLUME PRESSAVG GPRESSAVG
ENERGY: 0 0.1147 1.9138 0.0000 0.0000 -10523.7010 1377.3835 0.0000 0.0000 1728.9469 -7415.3421 299.5509 -9144.2890 -7415.3421 299.5509 -583.7394 -495.9972 29973.0155 -583.7394 -495.9972
ENERGY: 300000 0.3772 1.6780 0.0000 0.0000 -10374.7599 1298.9385 0.0000 0.0000 1717.5246 -7356.2417 297.5719 -9073.7663 -7411.4257 295.6368 -837.4800 -791.1463 29881.8141 -418.4129 -356.1978
ENERGY: 600000 0.3167 4.5521 0.0000 0.0000 -10604.8134 1480.2005 0.0000 0.0000 1739.2676 -7380.4765 301.3391 -9119.7442 -7400.1216 297.1007 388.4828 516.8201 29677.0009 -259.0002 -186.3089
ENERGY: 900000 0.3022 1.3520 0.0000 0.0000 -10742.2048 1542.3686 0.0000 0.0000 1749.0896 -7449.0925 303.0408 -9198.1821 -7394.3083 298.9436 866.8413 919.1463 29380.5054 -204.3717 -131.3976
ENERGY: 1200000 0.1299 0.9583 0.0000 0.0000 -10710.3144 1525.3291 0.0000 0.0000 1782.8707 -7401.0264 308.8936 -9183.8970 -7393.4743 299.7287 728.4102 733.3008 29924.7968 -77.6722 -13.0253
ENERGY: 1500000 0.4700 1.9688 0.0000 0.0000 -10454.2132 1417.5960 0.0000 0.0000 1750.3587 -7283.8196 303.2607 -9034.1784 -7387.8625 299.6117 532.4875 531.7272 29636.7352 -94.5073 -38.4751
TCL: Running FEP window   3: Lambda1 0.1    Lambda2 0.15000000000000002 [dLambda 0.05000000000000002]
TCL: Setting parameter firsttimestep to 0
TCL: Setting parameter alchLambda to 0.1
Info: NONBONDED TABLE R-SQUARED SPACING: 0.0625
Info: NONBONDED TABLE SIZE: 705 POINTS
TCL: Setting parameter alchLambda2 to 0.15000000000000002
Info: NONBONDED TABLE R-SQUARED SPACING: 0.0625
Info: NONBONDED TABLE SIZE: 705 POINTS
TCL: Running for 1500000 steps
ETITLE: TS BOND ANGLE DIHED IMPRP ELECT VDW BOUNDARY MISC KINETIC TOTAL TEMP POTENTIAL TOTALAVG TEMPAVG PRESSURE GPRESSURE VOLUME PRESSAVG GPRESSAVG
ENERGY: 0 0.4700 1.9688 0.0000 0.0000 -10454.2133 1417.9701 0.0000 0.0000 1749.4184 -7284.3859 303.0977 -9033.8043 -7284.3859 303.0977 444.3579 533.3092 29636.7352 444.3579 533.3092
ENERGY: 300000 0.8953 1.7092 0.0000 0.0000 -10538.1550 1399.3111 0.0000 0.0000 1719.7607 -7416.4787 297.9594 -9136.2395 -7344.6537 302.9817 -110.9181 17.8442 29667.9629 78.1256 152.8883
ENERGY: 600000 0.1575 1.1878 0.0000 0.0000 -10635.5134 1401.7669 0.0000 0.0000 1718.6234 -7513.7779 297.7623 -9232.4013 -7385.3184 301.1594 -460.8271 -406.9532 29659.7994 -14.3735 60.4817
ENERGY: 900000 0.3389 2.2185 0.0000 0.0000 -10460.8835 1323.1917 0.0000 0.0000 1746.2788 -7388.8556 302.5538 -9135.1344 -7391.5495 302.2133 -575.0585 -579.2526 29803.5888 -32.7490 38.5166
ENERGY: 1200000 2.7201 1.1632 0.0000 0.0000 -10475.0831 1407.4349 0.0000 0.0000 1797.8906 -7265.8743 311.4959 -9063.7650 -7382.1972 303.1726 -140.0473 -113.0216 30436.9209 -39.2109 28.0285
ENERGY: 1500000 1.3162 2.2490 0.0000 0.0000 -10666.8503 1445.6161 0.0000 0.0000 1749.3145 -7468.3544 303.0797 -9217.6690 -7396.0926 301.9475 -112.4431 -48.5439 29721.4924 -13.9310 54.8490
TCL: Running FEP window   4: Lambda1 0.15000000000000002 Lambda2 0.2    [dLambda 0.04999999999999999]
TCL: Setting parameter firsttimestep to 0
TCL: Setting parameter alchLambda to 0.15000000000000002
Info: NONBONDED TABLE R-SQUARED SPACING: 0.0625
Info: NONBONDED TABLE SIZE: 705 POINTS
TCL: Setting parameter alchLambda2 to 0.2
Info: NONBONDED TABLE R-SQUARED SPACING: 0.0625
Info: NONBONDED TABLE SIZE: 705 POINTS
TCL: Running for 1500000 steps
ETITLE: TS BOND ANGLE DIHED IMPRP ELECT VDW BOUNDARY MISC KINETIC TOTAL TEMP POTENTIAL TOTALAVG TEMPAVG PRESSURE GPRESSURE VOLUME PRESSAVG GPRESSAVG
ENERGY: 0 1.3162 2.2490 0.0000 0.0000 -10666.8501 1445.5101 0.0000 0.0000 1748.4336 -7469.3412 302.9271 -9217.7748 -7469.3412 302.9271 -120.8833 -47.4507 29721.4924 -120.8833 -47.4507
ENERGY: 300000 0.1275 4.1968 0.0000 0.0000 -10575.1271 1409.7391 0.0000 0.0000 1708.9712 -7452.0925 296.0900 -9161.0637 -7420.5456 299.8817 -231.9572 -124.8791 29664.6911 -119.4071 -53.2207
ENERGY: 600000 1.0095 1.0323 0.0000 0.0000 -10736.2611 1525.8494 0.0000 0.0000 1710.8055 -7497.5645 296.4078 -9208.3700 -7432.0344 300.3237 811.1137 810.6330 29527.2334 97.2603 146.0677
ENERGY: 900000 0.1675 1.7331 0.0000 0.0000 -10556.5781 1451.1906 0.0000 0.0000 1685.4547 -7418.0321 292.0156 -9103.4868 -7427.3168 299.1199 310.5106 383.7476 29626.3620 85.9976 131.6098
ENERGY: 1200000 0.5597 1.5364 0.0000 0.0000 -10439.0175 1349.2575 0.0000 0.0000 1740.5766 -7347.0873 301.5658 -9087.6639 -7418.5336 298.7576 -258.5411 -214.8122 29485.3257 63.7533 108.0304
ENERGY: 1500000 0.7964 3.8387 0.0000 0.0000 -10508.5449 1389.0775 0.0000 0.0000 1678.6532 -7436.1790 290.8372 -9114.8323 -7418.7579 297.9358 -293.7078 -207.4558 29934.2761 -5.7128 43.0575
TCL: Running FEP window   5: Lambda1 0.2    Lambda2 0.25   [dLambda 0.04999999999999999]
TCL: Setting parameter firsttimestep to 0
TCL: Setting parameter alchLambda to 0.2
Info: NONBONDED TABLE R-SQUARED SPACING: 0.0625
Info: NONBONDED TABLE SIZE: 705 POINTS
TCL: Setting parameter alchLambda2 to 0.25
Info: NONBONDED TABLE R-SQUARED SPACING: 0.0625
Info: NONBONDED TABLE SIZE: 705 POINTS
TCL: Running for 1500000 steps
ETITLE: TS BOND ANGLE DIHED IMPRP ELECT VDW BOUNDARY MISC KINETIC TOTAL TEMP POTENTIAL TOTALAVG TEMPAVG PRESSURE GPRESSURE VOLUME PRESSAVG GPRESSAVG
ENERGY: 0 0.7964 3.8387 0.0000 0.0000 -10508.5462 1389.3851 0.0000 0.0000 1677.7721 -7436.7539 290.6846 -9114.5260 -7436.7539 290.6846 -283.4967 -205.5928 29934.2761 -283.4967 -205.5928
ENERGY: 300000 0.2587 0.9030 0.0000 0.0000 -10698.1245 1497.1888 0.0000 0.0000 1723.4014 -7476.3725 298.5901 -9199.7739 -7444.2876 297.4705 343.5205 388.8975 29759.4539 -85.0180 -39.9263
ENERGY: 600000 0.1534 0.9369 0.0000 0.0000 -10594.5133 1445.4412 0.0000 0.0000 1772.6342 -7375.3477 307.1200 -9147.9819 -7425.5614 299.4693 331.5851 373.0434 29559.4447 -7.7551 44.6381
ENERGY: 900000 0.6831 1.1669 0.0000 0.0000 -10465.1101 1432.5451 0.0000 0.0000 1708.0818 -7322.6332 295.9359 -9030.7150 -7412.3847 298.7911 174.9130 253.6162 29988.9949 -19.4776 35.8532
ENERGY: 1200000 0.6870 0.7567 0.0000 0.0000 -10453.0310 1363.9026 0.0000 0.0000 1747.3133 -7340.3715 302.7330 -9087.6848 -7410.7301 298.8571 -278.8490 -273.0162 29909.8746 25.8081 78.9967
ENERGY: 1500000 0.2236 2.9998 0.0000 0.0000 -10633.6857 1431.7882 0.0000 0.0000 1771.3364 -7427.3378 306.8952 -9198.6742 -7417.5032 299.0426 -16.5937 85.7338 29588.3422 54.5321 107.6128
TCL: Running FEP window   6: Lambda1 0.25   Lambda2 0.3    [dLambda 0.04999999999999999]
TCL: Setting parameter firsttimestep to 0
TCL: Setting parameter alchLambda to 0.25
Info: NONBONDED TABLE R-SQUARED SPACING: 0.0625
Info: NONBONDED TABLE SIZE: 705 POINTS
TCL: Setting parameter alchLambda2 to 0.3
Info: NONBONDED TABLE R-SQUARED SPACING: 0.0625
Info: NONBONDED TABLE SIZE: 705 POINTS
TCL: Running for 1500000 steps
ETITLE: TS BOND ANGLE DIHED IMPRP ELECT VDW BOUNDARY MISC KINETIC TOTAL TEMP POTENTIAL TOTALAVG TEMPAVG PRESSURE GPRESSURE VOLUME PRESSAVG GPRESSAVG
ENERGY: 0 0.2236 2.9998 0.0000 0.0000 -10633.6866 1432.4590 0.0000 0.0000 1770.4708 -7427.5335 306.7452 -9198.0043 -7427.5335 306.7452 4.3573 89.2056 29588.3422 4.3573 89.2056
ENERGY: 300000 0.1638 2.0814 0.0000 0.0000 -10496.8049 1386.7497 0.0000 0.0000 1685.3406 -7422.4694 291.9959 -9107.8101 -7388.7336 298.7900 -355.2982 -308.2544 30338.4031 -15.2741 26.5834
ENERGY: 600000 1.0460 2.4868 0.0000 0.0000 -10652.2047 1412.2377 0.0000 0.0000 1669.7044 -7566.7298 289.2868 -9236.4342 -7405.8781 298.8610 -347.0834 -234.4121 29576.2261 -141.7944 -89.5344
ENERGY: 900000 0.4499 1.4613 0.0000 0.0000 -10500.6510 1406.5396 0.0000 0.0000 1736.1488 -7356.0515 300.7987 -9092.2002 -7400.0435 300.3638 -79.3028 -26.3678 29842.9139 -114.9520 -65.2364
ENERGY: 1200000 0.5258 2.0828 0.0000 0.0000 -10616.9259 1507.2183 0.0000 0.0000 1753.6334 -7353.4656 303.8280 -9107.0991 -7402.8867 299.8831 877.1239 911.3237 29688.9334 -62.3575 -16.2980
ENERGY: 1500000 0.2327 2.3219 0.0000 0.0000 -10461.9572 1390.5586 0.0000 0.0000 1720.8415 -7348.0026 298.1466 -9068.8440 -7394.1991 299.9692 -109.5972 -39.7667 29856.0450 -54.7276 -6.8995
TCL: Running FEP window   7: Lambda1 0.3    Lambda2 0.35   [dLambda 0.04999999999999999]
TCL: Setting parameter firsttimestep to 0
TCL: Setting parameter alchLambda to 0.3
Info: NONBONDED TABLE R-SQUARED SPACING: 0.0625
Info: NONBONDED TABLE SIZE: 705 POINTS
TCL: Setting parameter alchLambda2 to 0.35
Info: NONBONDED TABLE R-SQUARED SPACING: 0.0625
Info: NONBONDED TABLE SIZE: 705 POINTS
TCL: Running for 1500000 steps
ETITLE: TS BOND ANGLE DIHED IMPRP ELECT VDW BOUNDARY MISC KINETIC TOTAL TEMP POTENTIAL TOTALAVG TEMPAVG PRESSURE GPRESSURE VOLUME PRESSAVG GPRESSAVG
ENERGY: 0 0.2327 2.3219 0.0000 0.0000 -10461.9563 1390.5201 0.0000 0.0000 1720.0093 -7348.8723 298.0024 -9068.8816 -7348.8723 298.0024 -115.4468 -37.3394 29856.0450 -115.4468 -37.3394
ENERGY: 300000 0.0233 1.1558 0.0000 0.0000 -10511.9352 1372.5118 0.0000 0.0000 1751.1777 -7387.0666 303.4026 -9138.2443 -7393.5272 301.4140 -562.1598 -511.5226 30325.0580 -419.6356 -358.4070
ENERGY: 600000 3.3440 2.4111 0.0000 0.0000 -10474.7938 1347.5575 0.0000 0.0000 1767.9043 -7353.5769 306.3005 -9121.4812 -7388.4111 300.7469 -751.2757 -687.9360 30197.5308 -475.1861 -417.4660
ENERGY: 900000 0.0075 1.6764 0.0000 0.0000 -10440.8817 1326.2824 0.0000 0.0000 1712.4792 -7400.4362 296.6978 -9112.9154 -7403.2770 299.6059 -882.9498 -837.9466 30177.4170 -404.7804 -351.0870
ENERGY: 1200000 0.2736 0.7198 0.0000 0.0000 -10516.2877 1416.1464 0.0000 0.0000 1721.3399 -7377.8080 298.2330 -9099.1479 -7379.8781 300.2006 -34.7847 20.7227 30135.5679 -359.9356 -299.5760
ENERGY: 1500000 0.0734 2.3656 0.0000 0.0000 -10587.8320 1443.7692 0.0000 0.0000 1730.4684 -7411.1554 299.8145 -9141.6238 -7383.9421 299.4693 254.6675 392.4422 29595.5449 -298.3515 -230.8220
TCL: Running FEP window   8: Lambda1 0.35   Lambda2 0.39999999999999997 [dLambda 0.04999999999999999]
TCL: Setting parameter firsttimestep to 0
TCL: Setting parameter alchLambda to 0.35
Info: NONBONDED TABLE R-SQUARED SPACING: 0.0625
Info: NONBONDED TABLE SIZE: 705 POINTS
TCL: Setting parameter alchLambda2 to 0.39999999999999997
Info: NONBONDED TABLE R-SQUARED SPACING: 0.0625
Info: NONBONDED TABLE SIZE: 705 POINTS
TCL: Running for 1500000 steps
ETITLE: TS BOND ANGLE DIHED IMPRP ELECT VDW BOUNDARY MISC KINETIC TOTAL TEMP POTENTIAL TOTALAVG TEMPAVG PRESSURE GPRESSURE VOLUME PRESSAVG GPRESSAVG
ENERGY: 0 0.0734 2.3656 0.0000 0.0000 -10587.8317 1443.7182 0.0000 0.0000 1729.6309 -7412.0436 299.6694 -9141.6745 -7412.0436 299.6694 310.3376 392.4195 29595.5449 310.3376 392.4195
ENERGY: 300000 0.9946 1.2150 0.0000 0.0000 -10503.1382 1392.7344 0.0000 0.0000 1723.7588 -7384.4353 298.6521 -9108.1941 -7389.9523 300.3330 -321.1995 -194.8843 30239.7147 -57.7243 0.0232
ENERGY: 600000 1.8559 0.6583 0.0000 0.0000 -10639.1760 1457.1595 0.0000 0.0000 1715.8830 -7463.6192 297.2875 -9179.5022 -7395.7015 300.8242 269.3396 273.2408 29810.7222 22.3847 70.5631
ENERGY: 900000 0.1954 0.4642 0.0000 0.0000 -10592.2175 1405.8315 0.0000 0.0000 1815.6564 -7370.0700 314.5739 -9185.7264 -7398.4856 302.2963 -44.0396 -48.1845 29754.5475 36.2099 84.1761
ENERGY: 1200000 0.4623 0.9847 0.0000 0.0000 -10601.9924 1418.2252 0.0000 0.0000 1776.7696 -7405.5505 307.8365 -9182.3201 -7390.0877 303.0284 -74.7697 -1.5976 29750.8800 -1.3998 53.1474
ENERGY: 1500000 0.7659 2.6823 0.0000 0.0000 -10669.4461 1559.7338 0.0000 0.0000 1683.1365 -7423.1276 291.6140 -9106.2641 -7387.5499 302.9381 1205.3569 1241.3452 29666.7855 77.0974 128.9257
TCL: Running FEP window   9: Lambda1 0.39999999999999997 Lambda2 0.44999999999999996 [dLambda 0.04999999999999999]
TCL: Setting parameter firsttimestep to 0
TCL: Setting parameter alchLambda to 0.39999999999999997
Info: NONBONDED TABLE R-SQUARED SPACING: 0.0625
Info: NONBONDED TABLE SIZE: 705 POINTS
TCL: Setting parameter alchLambda2 to 0.44999999999999996
Info: NONBONDED TABLE R-SQUARED SPACING: 0.0625
Info: NONBONDED TABLE SIZE: 705 POINTS
TCL: Running for 1500000 steps
ETITLE: TS BOND ANGLE DIHED IMPRP ELECT VDW BOUNDARY MISC KINETIC TOTAL TEMP POTENTIAL TOTALAVG TEMPAVG PRESSURE GPRESSURE VOLUME PRESSAVG GPRESSAVG
ENERGY: 0 0.7659 2.6823 0.0000 0.0000 -10669.4455 1560.0255 0.0000 0.0000 1682.2706 -7423.7012 291.4640 -9105.9718 -7423.7012 291.4640 1156.9961 1243.5095 29666.7855 1156.9961 1243.5095
ENERGY: 300000 3.1521 1.3470 0.0000 0.0000 -10633.2533 1515.1154 0.0000 0.0000 1702.2076 -7411.4313 294.9182 -9113.6389 -7372.5913 296.9690 851.7767 937.3976 29774.9087 394.4904 486.9858
ENERGY: 600000 1.7043 2.3567 0.0000 0.0000 -10566.4320 1409.8811 0.0000 0.0000 1697.6601 -7454.8297 294.1303 -9152.4898 -7384.2798 297.0943 -260.3159 -173.9223 29711.5929 88.0539 178.5765
ENERGY: 900000 0.4092 0.3154 0.0000 0.0000 -10364.5218 1314.3984 0.0000 0.0000 1747.8651 -7301.5337 302.8286 -9049.3988 -7374.7403 299.2183 -808.3840 -722.9749 30144.5048 50.8344 130.6670
ENERGY: 1200000 0.6019 5.0498 0.0000 0.0000 -10598.0057 1434.9162 0.0000 0.0000 1690.9110 -7466.5270 292.9610 -9157.4379 -7380.4836 299.5456 100.5142 199.6820 29676.9718 46.0020 122.6955
ENERGY: 1500000 1.3174 0.4268 0.0000 0.0000 -10559.5836 1450.2499 0.0000 0.0000 1721.4244 -7386.1652 298.2476 -9107.5896 -7384.2621 300.3492 257.5269 279.0951 29856.2807 102.6631 172.7974
TCL: Running FEP window  10: Lambda1 0.44999999999999996 Lambda2 0.49999999999999994 [dLambda 0.04999999999999999]
TCL: Setting parameter firsttimestep to 0
TCL: Setting parameter alchLambda to 0.44999999999999996
Info: NONBONDED TABLE R-SQUARED SPACING: 0.0625
Info: NONBONDED TABLE SIZE: 705 POINTS
TCL: Setting parameter alchLambda2 to 0.49999999999999994
Info: NONBONDED TABLE R-SQUARED SPACING: 0.0625
Info: NONBONDED TABLE SIZE: 705 POINTS
TCL: Running for 1500000 steps
ETITLE: TS BOND ANGLE DIHED IMPRP ELECT VDW BOUNDARY MISC KINETIC TOTAL TEMP POTENTIAL TOTALAVG TEMPAVG PRESSURE GPRESSURE VOLUME PRESSAVG GPRESSAVG
ENERGY: 0 1.3174 0.4268 0.0000 0.0000 -10559.5829 1450.1321 0.0000 0.0000 1720.6182 -7387.0885 298.1079 -9107.7067 -7387.0885 298.1079 210.2611 279.2693 29856.2807 210.2611 279.2693
ENERGY: 300000 1.2174 1.0506 0.0000 0.0000 -10561.4610 1434.1246 0.0000 0.0000 1745.2410 -7379.8274 302.3740 -9125.0683 -7397.1247 300.7147 108.3290 188.6110 29861.7193 74.7700 164.9203
ENERGY: 600000 0.1877 1.2715 0.0000 0.0000 -10435.5158 1342.7819 0.0000 0.0000 1760.8412 -7330.4335 305.0768 -9091.2747 -7369.0649 301.8129 -488.2803 -435.6483 29864.7423 -113.3765 -26.4604
ENERGY: 900000 0.5069 0.8643 0.0000 0.0000 -10563.8419 1419.7830 0.0000 0.0000 1757.1596 -7385.5281 304.4390 -9142.6877 -7372.6274 302.1136 -56.7419 -57.3555 30046.2325 14.2174 85.0418
ENERGY: 1200000 0.7264 1.2529 0.0000 0.0000 -10518.9985 1411.9744 0.0000 0.0000 1731.3455 -7373.6994 299.9665 -9105.0449 -7391.6827 299.5650 22.8263 61.8371 30025.5285 -11.7635 50.7711
ENERGY: 1500000 0.1827 1.4243 0.0000 0.0000 -10482.2286 1364.1972 0.0000 0.0000 1730.1544 -7386.2700 299.7601 -9116.4245 -7392.8199 299.8388 -478.6482 -350.3168 30021.1750 -26.5209 35.1420
TCL: Running FEP window  11: Lambda1 0.49999999999999994 Lambda2 0.5499999999999999 [dLambda 0.04999999999999999]
TCL: Setting parameter firsttimestep to 0
TCL: Setting parameter alchLambda to 0.49999999999999994
Info: NONBONDED TABLE R-SQUARED SPACING: 0.0625
Info: NONBONDED TABLE SIZE: 705 POINTS
TCL: Setting parameter alchLambda2 to 0.5499999999999999
Info: NONBONDED TABLE R-SQUARED SPACING: 0.0625
Info: NONBONDED TABLE SIZE: 705 POINTS
TCL: Running for 1500000 steps
ETITLE: TS BOND ANGLE DIHED IMPRP ELECT VDW BOUNDARY MISC KINETIC TOTAL TEMP POTENTIAL TOTALAVG TEMPAVG PRESSURE GPRESSURE VOLUME PRESSAVG GPRESSAVG
ENERGY: 0 0.1827 1.4243 0.0000 0.0000 -10482.2287 1364.2941 0.0000 0.0000 1729.2910 -7387.0366 299.6105 -9116.3276 -7387.0366 299.6105 -419.8534 -347.6625 30021.1750 -419.8534 -347.6625
ENERGY: 300000 0.4787 2.8546 0.0000 0.0000 -10443.8704 1321.1800 0.0000 0.0000 1729.8819 -7389.4751 299.7129 -9119.3570 -7372.9535 301.0535 -787.1573 -731.3355 29859.1573 -217.8948 -165.7282
ENERGY: 600000 0.1121 2.8514 0.0000 0.0000 -10590.4657 1433.3830 0.0000 0.0000 1770.8989 -7383.2202 306.8194 -9154.1191 -7401.7147 301.4519 -58.5978 -35.3977 30176.0080 -229.2966 -173.7001
ENERGY: 900000 0.0933 2.6096 0.0000 0.0000 -10435.4829 1402.0073 0.0000 0.0000 1702.5449 -7328.2278 294.9766 -9030.7727 -7395.0723 300.4543 150.6478 191.4769 29861.0072 -153.8869 -100.2711
ENERGY: 1200000 0.4405 3.0296 0.0000 0.0000 -10507.5252 1381.7384 0.0000 0.0000 1681.5635 -7440.7533 291.3415 -9122.3168 -7396.7797 299.9725 -396.5447 -353.7594 29819.8468 -245.4406 -191.9517
ENERGY: 1500000 0.3942 1.2295 0.0000 0.0000 -10709.0681 1462.8055 0.0000 0.0000 1732.6475 -7511.9913 300.1921 -9244.6388 -7396.0384 300.1665 248.7403 253.9022 29411.9914 -108.3638 -54.9318
TCL: Running FEP window  12: Lambda1 0.5499999999999999 Lambda2 0.6    [dLambda 0.050000000000000044]
TCL: Setting parameter firsttimestep to 0
TCL: Setting parameter alchLambda to 0.5499999999999999
Info: NONBONDED TABLE R-SQUARED SPACING: 0.0625
Info: NONBONDED TABLE SIZE: 705 POINTS
TCL: Setting parameter alchLambda2 to 0.6
Info: NONBONDED TABLE R-SQUARED SPACING: 0.0625
Info: NONBONDED TABLE SIZE: 705 POINTS
TCL: Running for 1500000 steps
ETITLE: TS BOND ANGLE DIHED IMPRP ELECT VDW BOUNDARY MISC KINETIC TOTAL TEMP POTENTIAL TOTALAVG TEMPAVG PRESSURE GPRESSURE VOLUME PRESSAVG GPRESSAVG
ENERGY: 0 0.3942 1.2295 0.0000 0.0000 -10708.9223 1462.8624 0.0000 0.0000 1731.8009 -7512.6352 300.0454 -9244.4362 -7512.6352 300.0454 176.6192 255.8080 29411.9914 176.6192 255.8080
ENERGY: 300000 1.4416 1.1283 0.0000 0.0000 -10523.3573 1410.2388 0.0000 0.0000 1713.4307 -7397.1179 296.8626 -9110.5486 -7412.8348 301.5290 -325.6694 -251.7248 30136.2730 -156.1791 -77.9450
ENERGY: 600000 0.1873 1.1809 0.0000 0.0000 -10600.0230 1458.1016 0.0000 0.0000 1723.1595 -7417.3937 298.5482 -9140.5532 -7415.7391 299.9406 120.6924 162.1460 30055.4103 -171.7930 -116.1271
ENERGY: 900000 0.5825 0.8668 0.0000 0.0000 -10508.3479 1359.3896 0.0000 0.0000 1714.9030 -7432.6061 297.1177 -9147.5091 -7412.3721 298.9185 -794.7335 -664.4978 30554.0284 -110.4340 -49.8892
ENERGY: 1200000 1.0706 3.2818 0.0000 0.0000 -10500.8173 1399.7912 0.0000 0.0000 1755.5219 -7341.1518 304.1552 -9096.6737 -7396.6455 299.7078 2.5993 96.6322 29667.9078 -144.5595 -79.2352
ENERGY: 1500000 0.5588 3.6321 0.0000 0.0000 -10576.7364 1446.8024 0.0000 0.0000 1700.5211 -7425.2221 294.6260 -9125.7431 -7399.9834 300.0060 271.8057 313.6136 29768.4843 -117.7510 -54.2218
TCL: Running FEP window  13: Lambda1 0.6    Lambda2 0.65   [dLambda 0.050000000000000044]
TCL: Setting parameter firsttimestep to 0
TCL: Setting parameter alchLambda to 0.6
Info: NONBONDED TABLE R-SQUARED SPACING: 0.0625
Info: NONBONDED TABLE SIZE: 705 POINTS
TCL: Setting parameter alchLambda2 to 0.65
Info: NONBONDED TABLE R-SQUARED SPACING: 0.0625
Info: NONBONDED TABLE SIZE: 705 POINTS
TCL: Running for 1500000 steps
ETITLE: TS BOND ANGLE DIHED IMPRP ELECT VDW BOUNDARY MISC KINETIC TOTAL TEMP POTENTIAL TOTALAVG TEMPAVG PRESSURE GPRESSURE VOLUME PRESSAVG GPRESSAVG
ENERGY: 0 0.5588 3.6321 0.0000 0.0000 -10576.5232 1446.5013 0.0000 0.0000 1699.6040 -7426.2271 294.4671 -9125.8310 -7426.2271 294.4671 243.5866 315.7820 29768.4843 243.5866 315.7820
ENERGY: 300000 0.6375 0.3406 0.0000 0.0000 -10639.7552 1412.4056 0.0000 0.0000 1739.2100 -7487.1616 301.3291 -9226.3715 -7421.1935 299.5088 -28.7257 0.4242 29401.7776 25.0043 77.9022
ENERGY: 600000 0.8731 2.6638 0.0000 0.0000 -10463.7885 1430.1601 0.0000 0.0000 1715.7213 -7314.3701 297.2595 -9030.0914 -7413.8612 299.1532 253.0426 335.4350 30171.0559 -54.0790 -2.3842
ENERGY: 900000 0.3202 0.5183 0.0000 0.0000 -10486.6372 1353.6267 0.0000 0.0000 1720.3314 -7411.8407 298.0582 -9132.1721 -7402.0846 299.3338 -565.6635 -466.6062 29825.8311 -146.8221 -88.7834
ENERGY: 1200000 0.1706 1.2500 0.0000 0.0000 -10489.8897 1382.3384 0.0000 0.0000 1711.2732 -7394.8574 296.4888 -9106.1307 -7406.6411 298.6831 42.0822 86.1076 29413.3618 -96.9580 -40.9396
ENERGY: 1500000 1.6908 2.5902 0.0000 0.0000 -10484.2946 1361.3089 0.0000 0.0000 1740.1437 -7378.5611 301.4908 -9118.7048 -7406.6696 299.3178 -499.0596 -466.1516 30196.0658 -180.9509 -124.8031
TCL: Running FEP window  14: Lambda1 0.65   Lambda2 0.7000000000000001 [dLambda 0.050000000000000044]
TCL: Setting parameter firsttimestep to 0
TCL: Setting parameter alchLambda to 0.65
Info: NONBONDED TABLE R-SQUARED SPACING: 0.0625
Info: NONBONDED TABLE SIZE: 705 POINTS
TCL: Setting parameter alchLambda2 to 0.7000000000000001
Info: NONBONDED TABLE R-SQUARED SPACING: 0.0625
Info: NONBONDED TABLE SIZE: 705 POINTS
TCL: Running for 1500000 steps
ETITLE: TS BOND ANGLE DIHED IMPRP ELECT VDW BOUNDARY MISC KINETIC TOTAL TEMP POTENTIAL TOTALAVG TEMPAVG PRESSURE GPRESSURE VOLUME PRESSAVG GPRESSAVG
ENERGY: 0 1.6908 2.5902 0.0000 0.0000 -10484.2027 1361.0684 0.0000 0.0000 1739.2515 -7379.6018 301.3363 -9118.8533 -7379.6018 301.3363 -553.2169 -464.3367 30196.0658 -553.2169 -464.3367
ENERGY: 300000 0.6666 1.3044 0.0000 0.0000 -10562.2243 1406.1092 0.0000 0.0000 1771.1652 -7382.9789 306.8655 -9154.1441 -7357.0145 303.1560 -165.9435 -64.6215 29775.2843 -257.7036 -179.0543
ENERGY: 600000 0.7220 3.5767 0.0000 0.0000 -10724.3357 1481.1225 0.0000 0.0000 1722.1620 -7516.7526 298.3754 -9238.9146 -7407.9890 299.6848 299.0815 401.8823 29386.0751 -93.8011 -21.9020
ENERGY: 900000 0.0056 0.2658 0.0000 0.0000 -10581.9346 1437.6749 0.0000 0.0000 1688.8479 -7455.1404 292.6035 -9143.9882 -7416.8807 298.1397 98.1937 117.9844 29923.1078 -39.8955 21.2203
ENERGY: 1200000 0.6656 1.5613 0.0000 0.0000 -10621.1522 1427.3164 0.0000 0.0000 1747.5322 -7444.0766 302.7709 -9191.6088 -7411.8023 298.2217 -205.0152 -150.2953 29865.8671 -95.7813 -38.5196
ENERGY: 1500000 0.4299 1.0982 0.0000 0.0000 -10582.4289 1428.6916 0.0000 0.0000 1799.1946 -7353.0146 311.7218 -9152.2092 -7396.6464 299.8045 4.9722 77.0062 29951.5405 -55.8684 0.9432
TCL: Running FEP window  15: Lambda1 0.7000000000000001 Lambda2 0.7500000000000001 [dLambda 0.050000000000000044]
TCL: Setting parameter firsttimestep to 0
TCL: Setting parameter alchLambda to 0.7000000000000001
Info: NONBONDED TABLE R-SQUARED SPACING: 0.0625
Info: NONBONDED TABLE SIZE: 705 POINTS
TCL: Setting parameter alchLambda2 to 0.7500000000000001
Info: NONBONDED TABLE R-SQUARED SPACING: 0.0625
Info: NONBONDED TABLE SIZE: 705 POINTS
TCL: Running for 1500000 steps
ETITLE: TS BOND ANGLE DIHED IMPRP ELECT VDW BOUNDARY MISC KINETIC TOTAL TEMP POTENTIAL TOTALAVG TEMPAVG PRESSURE GPRESSURE VOLUME PRESSAVG GPRESSAVG
ENERGY: 0 0.4299 1.0982 0.0000 0.0000 -10582.4987 1428.7671 0.0000 0.0000 1798.3411 -7353.8624 311.5739 -9152.2035 -7353.8624 311.5739 2.2175 82.8183 29951.5405 2.2175 82.8183
ENERGY: 300000 0.8931 1.8841 0.0000 0.0000 -10521.2994 1402.0400 0.0000 0.0000 1729.8831 -7386.5991 299.7131 -9116.4822 -7403.7061 300.5694 -367.1426 -276.8238 30028.7525 -91.4014 -39.1174
ENERGY: 600000 0.0171 2.0824 0.0000 0.0000 -10451.8487 1349.1417 0.0000 0.0000 1711.9466 -7388.6610 296.6055 -9100.6076 -7403.1660 301.2282 -579.1574 -529.1639 30292.8747 -18.8990 23.1119
ENERGY: 900000 0.0890 1.0755 0.0000 0.0000 -10595.3256 1443.3430 0.0000 0.0000 1722.3782 -7428.4399 298.4129 -9150.8181 -7406.2921 301.4984 348.4724 383.4824 29541.0184 66.5891 105.8848
ENERGY: 1200000 0.2580 2.1053 0.0000 0.0000 -10485.5988 1388.7238 0.0000 0.0000 1718.3938 -7376.1179 297.7225 -9094.5117 -7396.2487 301.3360 -201.0871 -135.6922 29661.8488 5.6930 50.1596
ENERGY: 1500000 0.5904 2.3902 0.0000 0.0000 -10539.6766 1390.2567 0.0000 0.0000 1777.3428 -7369.0965 307.9358 -9146.4392 -7387.1473 301.9666 -90.8183 -104.0088 29612.8631 17.8867 56.2591
TCL: Running FEP window  16: Lambda1 0.7500000000000001 Lambda2 0.8000000000000002 [dLambda 0.050000000000000044]
TCL: Setting parameter firsttimestep to 0
TCL: Setting parameter alchLambda to 0.7500000000000001
Info: NONBONDED TABLE R-SQUARED SPACING: 0.0625
Info: NONBONDED TABLE SIZE: 705 POINTS
TCL: Setting parameter alchLambda2 to 0.8000000000000002
Info: NONBONDED TABLE R-SQUARED SPACING: 0.0625
Info: NONBONDED TABLE SIZE: 705 POINTS
TCL: Running for 1500000 steps
ETITLE: TS BOND ANGLE DIHED IMPRP ELECT VDW BOUNDARY MISC KINETIC TOTAL TEMP POTENTIAL TOTALAVG TEMPAVG PRESSURE GPRESSURE VOLUME PRESSAVG GPRESSAVG
ENERGY: 0 0.5904 2.3902 0.0000 0.0000 -10539.8217 1389.9470 0.0000 0.0000 1776.4656 -7370.4285 307.7838 -9146.8941 -7370.4285 307.7838 -181.1799 -104.0995 29612.8631 -181.1799 -104.0995
ENERGY: 300000 1.1053 3.5458 0.0000 0.0000 -10466.0675 1440.6849 0.0000 0.0000 1737.9202 -7282.8113 301.1056 -9020.7315 -7364.7527 301.8949 524.3611 617.9556 29802.2255 134.4619 191.2531
ENERGY: 600000 0.0169 3.1397 0.0000 0.0000 -10520.8535 1350.9903 0.0000 0.0000 1719.2413 -7447.4653 297.8694 -9166.7066 -7393.7383 298.6925 -829.3968 -757.4327 30235.6983 -94.0457 -20.4104
ENERGY: 900000 0.4823 2.9458 0.0000 0.0000 -10595.4688 1417.8031 0.0000 0.0000 1763.9298 -7410.3079 305.6119 -9174.2376 -7390.5248 301.2079 -231.1928 -212.0593 30025.6035 -261.7637 -185.4533
ENERGY: 1200000 0.1075 2.8992 0.0000 0.0000 -10520.4318 1420.8369 0.0000 0.0000 1771.6738 -7324.9145 306.9536 -9096.5883 -7390.0874 300.8937 102.7407 141.8660 29998.4065 -243.0499 -175.1981
ENERGY: 1500000 1.1768 1.5701 0.0000 0.0000 -10493.6030 1361.7114 0.0000 0.0000 1756.2136 -7372.9311 304.2750 -9129.1446 -7389.2681 301.0952 -470.0814 -467.5592 30240.2994 -262.8439 -200.3255
TCL: Running FEP window  17: Lambda1 0.8000000000000002 Lambda2 0.8500000000000002 [dLambda 0.050000000000000044]
TCL: Setting parameter firsttimestep to 0
TCL: Setting parameter alchLambda to 0.8000000000000002
Info: NONBONDED TABLE R-SQUARED SPACING: 0.0625
Info: NONBONDED TABLE SIZE: 705 POINTS
TCL: Setting parameter alchLambda2 to 0.8500000000000002
Info: NONBONDED TABLE R-SQUARED SPACING: 0.0625
Info: NONBONDED TABLE SIZE: 705 POINTS
TCL: Running for 1500000 steps
ETITLE: TS BOND ANGLE DIHED IMPRP ELECT VDW BOUNDARY MISC KINETIC TOTAL TEMP POTENTIAL TOTALAVG TEMPAVG PRESSURE GPRESSURE VOLUME PRESSAVG GPRESSAVG
ENERGY: 0 1.1768 1.5701 0.0000 0.0000 -10493.5998 1362.0173 0.0000 0.0000 1755.3295 -7373.5061 304.1219 -9128.8356 -7373.5061 304.1219 -533.0015 -458.3365 30240.2994 -533.0015 -458.3365
ENERGY: 300000 0.1050 3.3801 0.0000 0.0000 -10661.6008 1449.6379 0.0000 0.0000 1717.5321 -7490.9457 297.5732 -9208.4778 -7406.5917 299.3543 207.7523 264.1360 29604.4709 41.0247 109.3087
ENERGY: 600000 0.9044 0.1832 0.0000 0.0000 -10520.6470 1394.7361 0.0000 0.0000 1702.0756 -7422.7477 294.8953 -9124.8233 -7411.8203 299.1689 120.3089 159.5678 29240.8028 -109.9712 -53.3015
ENERGY: 900000 1.0122 2.8266 0.0000 0.0000 -10581.7329 1416.5209 0.0000 0.0000 1754.9169 -7406.4563 304.0504 -9161.3732 -7419.0382 298.5652 -423.4128 -338.2152 30606.5732 -121.5646 -62.7140
ENERGY: 1200000 0.9078 0.3520 0.0000 0.0000 -10524.8348 1390.9487 0.0000 0.0000 1828.6125 -7304.0139 316.8186 -9132.6263 -7399.1549 300.7662 -104.5884 -1.5329 29922.7937 -180.6920 -121.1016
ENERGY: 1500000 0.0265 1.3881 0.0000 0.0000 -10451.1064 1344.4147 0.0000 0.0000 1776.1248 -7329.1523 307.7248 -9105.2771 -7400.7446 300.3833 -847.8028 -756.9444 30532.4587 -238.1063 -172.0979
TCL: Running FEP window  18: Lambda1 0.8500000000000002 Lambda2 0.9000000000000002 [dLambda 0.050000000000000044]
TCL: Setting parameter firsttimestep to 0
TCL: Setting parameter alchLambda to 0.8500000000000002
Info: NONBONDED TABLE R-SQUARED SPACING: 0.0625
Info: NONBONDED TABLE SIZE: 705 POINTS
TCL: Setting parameter alchLambda2 to 0.9000000000000002
Info: NONBONDED TABLE R-SQUARED SPACING: 0.0625
Info: NONBONDED TABLE SIZE: 705 POINTS
TCL: Running for 1500000 steps
ETITLE: TS BOND ANGLE DIHED IMPRP ELECT VDW BOUNDARY MISC KINETIC TOTAL TEMP POTENTIAL TOTALAVG TEMPAVG PRESSURE GPRESSURE VOLUME PRESSAVG GPRESSAVG
ENERGY: 0 0.0265 1.3881 0.0000 0.0000 -10451.3363 1344.8640 0.0000 0.0000 1775.2654 -7329.7924 307.5759 -9105.0578 -7329.7924 307.5759 -839.9493 -748.3630 30532.4587 -839.9493 -748.3630
ENERGY: 300000 0.7707 2.0296 0.0000 0.0000 -10529.1932 1450.2211 0.0000 0.0000 1785.5183 -7290.6536 309.3523 -9076.1718 -7351.6578 305.0016 339.3010 442.7975 30011.8691 -318.5411 -209.9424
ENERGY: 600000 0.1377 1.1099 0.0000 0.0000 -10364.6183 1346.5120 0.0000 0.0000 1757.5488 -7259.3099 304.5064 -9016.8587 -7357.6892 302.7335 -117.6941 -66.8252 29931.6647 -120.1189 -29.2171
ENERGY: 900000 0.4407 2.1540 0.0000 0.0000 -10541.0500 1433.1425 0.0000 0.0000 1729.8208 -7375.4920 299.7023 -9105.3128 -7383.8266 300.9825 349.1919 406.8331 29867.0223 8.4803 83.2999
ENERGY: 1200000 1.1958 0.5599 0.0000 0.0000 -10646.1823 1473.2654 0.0000 0.0000 1761.2588 -7409.9025 305.1492 -9171.1613 -7394.9279 300.2824 339.2544 440.5401 29757.4785 12.5766 84.9707
ENERGY: 1500000 0.0284 1.2053 0.0000 0.0000 -10652.2212 1492.2455 0.0000 0.0000 1754.0832 -7404.6588 303.9059 -9158.7420 -7394.1263 301.1492 504.3084 599.1792 29702.4372 101.0715 174.5874
TCL: Running FEP window  19: Lambda1 0.9000000000000002 Lambda2 0.9500000000000003 [dLambda 0.050000000000000044]
TCL: Setting parameter firsttimestep to 0
TCL: Setting parameter alchLambda to 0.9000000000000002
Info: NONBONDED TABLE R-SQUARED SPACING: 0.0625
Info: NONBONDED TABLE SIZE: 705 POINTS
TCL: Setting parameter alchLambda2 to 0.9500000000000003
Info: NONBONDED TABLE R-SQUARED SPACING: 0.0625
Info: NONBONDED TABLE SIZE: 705 POINTS
TCL: Running for 1500000 steps
ETITLE: TS BOND ANGLE DIHED IMPRP ELECT VDW BOUNDARY MISC KINETIC TOTAL TEMP POTENTIAL TOTALAVG TEMPAVG PRESSURE GPRESSURE VOLUME PRESSAVG GPRESSAVG
ENERGY: 0 0.0284 1.2053 0.0000 0.0000 -10652.6157 1492.6666 0.0000 0.0000 1753.2093 -7405.5062 303.7545 -9158.7155 -7405.5062 303.7545 529.1594 607.8902 29702.4372 529.1594 607.8902
ENERGY: 300000 0.6132 3.8964 0.0000 0.0000 -10600.5653 1476.3312 0.0000 0.0000 1754.5519 -7365.1726 303.9872 -9119.7245 -7389.4441 302.1329 614.1170 644.9009 29845.2618 302.7092 349.6204
ENERGY: 600000 1.2017 1.6525 0.0000 0.0000 -10521.1590 1350.5243 0.0000 0.0000 1745.5892 -7422.1913 302.4343 -9167.7805 -7396.0117 302.1431 -348.4077 -262.3585 29682.1019 126.4882 192.4546
ENERGY: 900000 1.6271 0.4304 0.0000 0.0000 -10454.8142 1386.3015 0.0000 0.0000 1749.0407 -7317.4145 303.0323 -9066.4551 -7392.6224 302.4359 -115.4794 -17.7502 29871.9946 105.5998 169.0876
ENERGY: 1200000 0.6040 3.9298 0.0000 0.0000 -10639.0704 1505.7757 0.0000 0.0000 1760.1816 -7368.5793 304.9625 -9128.7610 -7392.5455 302.5444 564.8382 647.3378 30042.5792 128.1948 196.9654
ENERGY: 1500000 0.9951 0.9977 0.0000 0.0000 -10509.8449 1349.7693 0.0000 0.0000 1742.4206 -7415.6622 301.8853 -9158.0828 -7390.6017 303.2966 -967.8920 -866.5963 30538.7680 28.4005 99.7475
TCL: Running FEP window  20: Lambda1 0.9500000000000003 Lambda2 1.0    [dLambda 0.04999999999999971]
TCL: Setting parameter firsttimestep to 0
TCL: Setting parameter alchLambda to 0.9500000000000003
Info: NONBONDED TABLE R-SQUARED SPACING: 0.0625
Info: NONBONDED TABLE SIZE: 705 POINTS
TCL: Setting parameter alchLambda2 to 1.0
Info: NONBONDED TABLE R-SQUARED SPACING: 0.0625
Info: NONBONDED TABLE SIZE: 705 POINTS
TCL: Running for 1500000 steps
ETITLE: TS BOND ANGLE DIHED IMPRP ELECT VDW BOUNDARY MISC KINETIC TOTAL TEMP POTENTIAL TOTALAVG TEMPAVG PRESSURE GPRESSURE VOLUME PRESSAVG GPRESSAVG
ENERGY: 0 0.9951 0.9977 0.0000 0.0000 -10510.4360 1350.1569 0.0000 0.0000 1741.5559 -7416.7304 301.7355 -9158.2862 -7416.7304 301.7355 -941.3641 -853.4614 30538.7680 -941.3641 -853.4614
ENERGY: 300000 1.0630 0.8233 0.0000 0.0000 -10499.5272 1378.7965 0.0000 0.0000 1712.5883 -7406.2560 296.7167 -9118.8444 -7415.8822 297.6907 -287.7052 -163.6814 29849.6055 -270.1323 -202.0153
ENERGY: 600000 0.7104 2.6366 0.0000 0.0000 -10571.2178 1483.4173 0.0000 0.0000 1716.4898 -7367.9637 297.3927 -9084.4535 -7404.7804 298.7174 436.6193 555.9498 30159.1547 -119.5820 -34.5285
ENERGY: 900000 0.5228 0.3101 0.0000 0.0000 -10525.3837 1426.0388 0.0000 0.0000 1668.8157 -7429.6963 289.1328 -9098.5120 -7411.2275 298.4069 201.6067 292.3836 29688.5971 -115.2742 -31.1662
ENERGY: 1200000 0.9178 1.8675 0.0000 0.0000 -10674.1768 1488.6289 0.0000 0.0000 1668.4312 -7514.3315 289.0662 -9182.7626 -7412.3031 298.1948 144.6369 194.5119 30225.5102 -128.4351 -50.2124
ENERGY: 1500000 0.4954 0.5770 0.0000 0.0000 -10476.3646 1347.2622 0.0000 0.0000 1741.8317 -7386.1983 301.7833 -9128.0300 -7409.3850 298.9928 -356.4001 -280.9568 29612.8029 -162.4635 -85.9238
TCL: Exiting due to exit command.
