Info: SIMULATION PARAMETERS:
Info: TIMESTEP               2
Info: NUMBER OF STEPS        0
Info: STEPS PER CYCLE        10
Info: PERIODIC CELL BASIS 1  35.89 0 0
Info: PERIODIC CELL BASIS 2  0 35.779 0
Info: PERIODIC CELL BASIS 3  0 0 34.68
Info: PERIODIC CELL CENTER   0 0 0
Info: WRAPPING WATERS AROUND PERIODIC BOUNDARIES ON OUTPUT.
Info: WRAPPING ALL CLUSTERS AROUND PERIODIC BOUNDARIES ON OUTPUT.
Info: FIRST LDB TIMESTEP     50
Info: LAST LDB TIMESTEP     -1
Info: HOM BACKGROUND SCALING 1
Info: PME BACKGROUND SCALING 1
Info: MIN ATOMS PER PATCH    40
Info: EMPTY PATCH LOAD       40 ATOMS
Info: INITIAL TEMPERATURE    300
Info: CENTER OF MASS MOVING INITIALLY? NO
Info: DIELECTRIC             1
Info: EXCLUDE                SCALED ONE-FOUR
Info: 1-4 ELECTROSTATICS SCALED BY 0.833333
Info: MODIFIED 1-4 VDW PARAMETERS WILL BE USED
Info: DCD FILENAME           mobley_9209581_equil.dcd
Info: DCD FREQUENCY          100000
Info: DCD FIRST STEP         100000
Info: DCD FILE WILL CONTAIN UNIT CELL DATA
Info: XST FILENAME           mobley_9209581_equil.xst
Info: XST FREQUENCY          100000
Info: NO VELOCITY DCD OUTPUT
Info: NO FORCE DCD OUTPUT
Info: OUTPUT FILENAME        mobley_9209581_equil
Info: BINARY OUTPUT FILES WILL BE USED
Info: RESTART FILENAME       mobley_9209581_equil.restart
Info: RESTART FREQUENCY      100000
Info: BINARY RESTART FILES WILL BE USED
Info: CUTOFF                 9
Info: PAIRLIST DISTANCE      11
Info: PAIRLIST SHRINK RATE   0.01
Info: PAIRLIST GROW RATE     0.01
Info: PAIRLIST TRIGGER       0.3
Info: PAIRLISTS PER CYCLE    2
Info: PAIRLISTS ENABLED
Info: MARGIN                 8
Info: HYDROGEN GROUP CUTOFF  2.5
Info: PATCH DIMENSION        21.5
Info: ENERGY OUTPUT STEPS    100000
Info: ENERGY EVALUATION STEPS    100000
Info: OUTPUT ENERGY PRECISION 4
Info: CROSSTERM ENERGY INCLUDED IN DIHEDRAL
Info: TIMING OUTPUT STEPS    1000000
Info: PRESSURE OUTPUT STEPS  100000
Info: LANGEVIN DYNAMICS ACTIVE
Info: LANGEVIN TEMPERATURE   30
Info: LANGEVIN USING BBK INTEGRATOR
Info: LANGEVIN DAMPING COEFFICIENT IS 1 INVERSE PS
Info: LANGEVIN DYNAMICS APPLIED TO HYDROGENS
Info: LANGEVIN PISTON PRESSURE CONTROL ACTIVE
Info:        TARGET PRESSURE IS 1.01325 BAR
Info:     OSCILLATION PERIOD IS 50 FS
Info:             DECAY TIME IS 25 FS
Info:     PISTON TEMPERATURE IS 300 K
Info:       PRESSURE CONTROL IS GROUP-BASED
Info:    INITIAL STRAIN RATE IS 0 0 0
Info:       CELL FLUCTUATION IS ISOTROPIC
Info: PARTICLE MESH EWALD (PME) ACTIVE
Info: PME TOLERANCE               1e-06
Info: PME EWALD COEFFICIENT       0.348832
Info: PME INTERPOLATION ORDER     4
Info: PME GRID DIMENSIONS         36 36 36
Info: PME MAXIMUM GRID SPACING    1
Info: FULL ELECTROSTATIC EVALUATION FREQUENCY      2
Info: USING VERLET I (r-RESPA) MTS SCHEME.
Info: C1 SPLITTING OF LONG RANGE ELECTROSTATICS
Info: PLACING ATOMS IN PATCHES BY HYDROGEN GROUPS
Info: RIGID BONDS TO HYDROGEN : ALL
Info:         ERROR TOLERANCE : 1e-08
Info:          MAX ITERATIONS : 100
Info: RIGID WATER USING SETTLE ALGORITHM
Info: RANDOM NUMBER SEED     1743208916
Info: USE HYDROGEN BONDS?    NO
Info: Using AMBER format force field!
Info: AMBER PARM FILE        mobley_9209581.prmtop
Info: COORDINATE PDB         mobley_9209581.pdb
Info: Exclusions will be read from PARM file!
Info: SCNB (VDW SCALING)     2
Info: USING ARITHMETIC MEAN TO COMBINE L-J SIGMA PARAMETERS
Info: BINARY COORDINATES     mobley_9209581_min.coor
Info: SUMMARY OF PARAMETERS:
Info: 4 BONDS
Info: 3 ANGLES
Info:   3 HARMONIC
Info:   0 COSINE-BASED
Info: 1 DIHEDRAL
Info: 0 IMPROPER
Info: 0 CROSSTERM
Info: 0 VDW
Info: 15 VDW_PAIRS
Info: 0 NBTHOLE_PAIRS
Info: STRUCTURE SUMMARY:
Info: 2920 ATOMS
Info: 2919 BONDS
Info: 21 ANGLES
Info: 18 DIHEDRALS
Info: 0 IMPROPERS
Info: 0 CROSSTERMS
Info: 2958 EXCLUSIONS
Info: 2916 RIGID BONDS
Info: 5844 DEGREES OF FREEDOM
Info: 973 HYDROGEN GROUPS
Info: 4 ATOMS IN LARGEST HYDROGEN GROUP
Info: 973 MIGRATION GROUPS
Info: 4 ATOMS IN LARGEST MIGRATION GROUP
Info: TOTAL MASS = 17516.6 amu
Info: TOTAL CHARGE = 0.000399988 e
Info: MASS DENSITY = 0.653174 g/cm^3
Info: ATOM DENSITY = 0.0655695 atoms/A^3
Info: ADDED 0 IMPLICIT EXCLUSIONS
Info: NONBONDED TABLE R-SQUARED SPACING: 0.0625
Info: NONBONDED TABLE SIZE: 705 POINTS
Info: REMOVING COM VELOCITY -0.0705367 0.109875 0.0520518
TCL: Running for 100000 steps
ETITLE: TS BOND ANGLE DIHED IMPRP ELECT VDW BOUNDARY MISC KINETIC TOTAL TEMP POTENTIAL TOTAL3 TEMPAVG PRESSURE GPRESSURE VOLUME PRESSAVG GPRESSAVG
ENERGY: 0 0.1264 0.0907 0.1386 0.0000 -13497.5533 2400.0822 0.0000 0.0000 1706.5048 -9390.6105 293.8920 -11097.1154 -9390.2555 293.8920 588.5663 622.3077 44532.8762 588.5663 622.3077
ENERGY: 100000 0.0844 0.5817 0.2454 0.0000 -13961.0399 2371.6495 0.0000 0.0000 177.2071 -11411.2719 30.5184 -11588.4789 -11410.4607 30.9409 -478.3781 -428.0642 28667.0357 3.1674 3.1511
TCL: Running 100000 steps at 60 kelvin.
TCL: Setting parameter langevinTemp to 60
TCL: Running for 100000 steps
ETITLE: TS BOND ANGLE DIHED IMPRP ELECT VDW BOUNDARY MISC KINETIC TOTAL TEMP POTENTIAL TOTAL3 TEMPAVG PRESSURE GPRESSURE VOLUME PRESSAVG GPRESSAVG
ENERGY: 100000 0.0844 0.5817 0.2454 0.0000 -13961.0399 2371.6495 0.0000 0.0000 177.1203 -11411.3586 30.5034 -11588.4789 -11410.9664 30.5034 -479.4877 -427.8151 28667.0357 -479.4877 -427.8151
ENERGY: 200000 0.7256 0.5437 0.2284 0.0000 -13844.1857 2312.7607 0.0000 0.0000 351.2650 -11178.6622 60.4944 -11529.9272 -11177.9429 59.8766 -926.4520 -879.5308 28684.5456 3.4969 3.5670
TCL: Running 100000 steps at 90 kelvin.
TCL: Setting parameter langevinTemp to 90
TCL: Running for 100000 steps
ETITLE: TS BOND ANGLE DIHED IMPRP ELECT VDW BOUNDARY MISC KINETIC TOTAL TEMP POTENTIAL TOTAL3 TEMPAVG PRESSURE GPRESSURE VOLUME PRESSAVG GPRESSAVG
ENERGY: 200000 0.7256 0.5437 0.2284 0.0000 -13844.1857 2312.7607 0.0000 0.0000 351.0910 -11178.8362 60.4644 -11529.9272 -11178.1407 60.4644 -933.8144 -879.4922 28684.5456 -933.8144 -879.4922
ENERGY: 300000 0.1575 1.4420 0.3014 0.0000 -13880.1114 2399.4674 0.0000 0.0000 525.5935 -10953.1495 90.5170 -11478.7431 -10951.3327 90.0013 66.3156 142.0029 28474.8826 4.6553 4.7612
TCL: Running 100000 steps at 120 kelvin.
TCL: Setting parameter langevinTemp to 120
TCL: Running for 100000 steps
ETITLE: TS BOND ANGLE DIHED IMPRP ELECT VDW BOUNDARY MISC KINETIC TOTAL TEMP POTENTIAL TOTAL3 TEMPAVG PRESSURE GPRESSURE VOLUME PRESSAVG GPRESSAVG
ENERGY: 300000 0.1575 1.4420 0.3014 0.0000 -13880.1114 2399.4674 0.0000 0.0000 525.3302 -10953.4129 90.4717 -11478.7431 -10952.5846 90.4717 99.4676 142.5721 28474.8826 99.4676 142.5721
ENERGY: 400000 0.2230 2.1649 0.3665 0.0000 -13672.8026 2322.8589 0.0000 0.0000 703.1970 -10643.9923 121.1036 -11347.1893 -10641.7164 119.9470 -36.0105 14.4995 28473.2794 5.6437 5.5893
TCL: Running 100000 steps at 150 kelvin.
TCL: Setting parameter langevinTemp to 150
TCL: Running for 100000 steps
ETITLE: TS BOND ANGLE DIHED IMPRP ELECT VDW BOUNDARY MISC KINETIC TOTAL TEMP POTENTIAL TOTAL3 TEMPAVG PRESSURE GPRESSURE VOLUME PRESSAVG GPRESSAVG
ENERGY: 400000 0.2230 2.1649 0.3665 0.0000 -13672.8026 2322.8589 0.0000 0.0000 702.8516 -10644.3377 121.0442 -11347.1893 -10642.8894 121.0442 -22.4113 15.7199 28473.2794 -22.4113 15.7199
ENERGY: 500000 1.1156 2.2134 0.8433 0.0000 -13339.7171 2141.0044 0.0000 0.0000 847.5972 -10346.9432 145.9720 -11194.5404 -10345.2810 150.1647 -1093.0353 -1078.7589 28901.3001 4.5591 4.5211
TCL: Running 100000 steps at 180 kelvin.
TCL: Setting parameter langevinTemp to 180
TCL: Running for 100000 steps
ETITLE: TS BOND ANGLE DIHED IMPRP ELECT VDW BOUNDARY MISC KINETIC TOTAL TEMP POTENTIAL TOTAL3 TEMPAVG PRESSURE GPRESSURE VOLUME PRESSAVG GPRESSAVG
ENERGY: 500000 1.1156 2.2134 0.8433 0.0000 -13339.7171 2141.0044 0.0000 0.0000 847.1428 -10347.3975 145.8938 -11194.5404 -10345.7061 145.8938 -1132.4097 -1079.7951 28901.3001 -1132.4097 -1079.7951
ENERGY: 600000 0.0999 2.1468 0.3931 0.0000 -12895.8884 2021.7518 0.0000 0.0000 1055.3974 -9816.0994 181.7591 -10871.4968 -9812.8287 180.0230 -893.4786 -795.2534 28789.3913 3.1096 3.2040
TCL: Running 100000 steps at 210 kelvin.
TCL: Setting parameter langevinTemp to 210
TCL: Running for 100000 steps
ETITLE: TS BOND ANGLE DIHED IMPRP ELECT VDW BOUNDARY MISC KINETIC TOTAL TEMP POTENTIAL TOTAL3 TEMPAVG PRESSURE GPRESSURE VOLUME PRESSAVG GPRESSAVG
ENERGY: 600000 0.0999 2.1468 0.3931 0.0000 -12895.8884 2021.7518 0.0000 0.0000 1054.8767 -9816.6202 181.6694 -10871.4968 -9814.0351 181.6694 -842.7925 -795.7846 28789.3913 -842.7925 -795.7846
ENERGY: 700000 3.3773 3.3658 1.4865 0.0000 -12308.2083 1915.0005 0.0000 0.0000 1263.4654 -9121.5127 217.5923 -10384.9781 -9119.6095 210.2165 454.4291 506.6828 28237.0278 4.0037 4.0345
TCL: Running 100000 steps at 240 kelvin.
TCL: Setting parameter langevinTemp to 240
TCL: Running for 100000 steps
ETITLE: TS BOND ANGLE DIHED IMPRP ELECT VDW BOUNDARY MISC KINETIC TOTAL TEMP POTENTIAL TOTAL3 TEMPAVG PRESSURE GPRESSURE VOLUME PRESSAVG GPRESSAVG
ENERGY: 700000 3.3773 3.3658 1.4865 0.0000 -12308.2083 1915.0005 0.0000 0.0000 1262.8599 -9122.1183 217.4880 -10384.9781 -9120.4134 217.4880 436.3722 506.5740 28237.0278 436.3722 506.5740
ENERGY: 800000 0.4317 2.6083 0.2590 0.0000 -11673.1718 1714.9925 0.0000 0.0000 1364.2549 -8590.6253 234.9501 -9954.8802 -8588.9317 240.3831 -4.2687 112.8137 28827.7859 3.0502 2.8371
TCL: Running 100000 steps at 270 kelvin.
TCL: Setting parameter langevinTemp to 270
TCL: Running for 100000 steps
ETITLE: TS BOND ANGLE DIHED IMPRP ELECT VDW BOUNDARY MISC KINETIC TOTAL TEMP POTENTIAL TOTAL3 TEMPAVG PRESSURE GPRESSURE VOLUME PRESSAVG GPRESSAVG
ENERGY: 800000 0.4317 2.6083 0.2590 0.0000 -11673.1718 1714.9925 0.0000 0.0000 1363.5420 -8591.3383 234.8274 -9954.8803 -8589.3964 234.8274 10.1823 111.0130 28827.7859 10.1823 111.0130
ENERGY: 900000 0.0192 4.1129 0.4807 0.0000 -11047.5627 1567.6709 0.0000 0.0000 1569.6813 -7905.5977 270.3284 -9475.2790 -7904.0339 269.9268 617.0683 684.5787 28985.9221 2.0345 2.2560
TCL: Running 1000000 steps at 300 kelvin.
TCL: Setting parameter langevinTemp to 300
TCL: Running for 1000000 steps
ETITLE: TS BOND ANGLE DIHED IMPRP ELECT VDW BOUNDARY MISC KINETIC TOTAL TEMP POTENTIAL TOTAL3 TEMPAVG PRESSURE GPRESSURE VOLUME PRESSAVG GPRESSAVG
ENERGY: 900000 0.0192 4.1129 0.4807 0.0000 -11047.5627 1567.6709 0.0000 0.0000 1568.8841 -7906.3950 270.1911 -9475.2790 -7904.4450 270.1911 602.3563 684.3125 28985.9221 602.3563 684.3125
ENERGY: 1100000 0.3130 3.1260 0.5105 0.0000 -10624.0361 1442.9430 0.0000 0.0000 1763.1767 -7413.9670 303.6519 -9177.1436 -7410.9174 300.5311 -79.8043 -33.0169 30566.2772 3.1293 3.0818
ENERGY: 1300000 0.5918 8.0931 1.7782 0.0000 -10565.5594 1442.0938 0.0000 0.0000 1796.9664 -7316.0361 309.4711 -9113.0025 -7309.4168 300.2546 261.4991 311.2565 29999.4223 2.9129 2.8993
ENERGY: 1500000 1.2726 7.6352 1.0157 0.0000 -10544.1196 1418.2607 0.0000 0.0000 1738.7173 -7377.2181 299.4395 -9115.9355 -7375.1608 300.5033 12.2502 121.6822 29996.7517 3.4831 3.6033
ENERGY: 1700000 1.0307 3.9033 0.8967 0.0000 -10546.3042 1363.4860 0.0000 0.0000 1682.1403 -7494.8472 289.6959 -9176.9876 -7488.3416 300.0443 -900.3493 -796.2325 30512.7896 1.8300 1.6623
ENERGY: 1900000 1.6845 4.5817 0.4226 0.0000 -10700.4472 1477.7303 0.0000 0.0000 1742.9331 -7473.0949 300.1656 -9216.0281 -7468.5646 300.0139 169.5862 229.4108 29878.6756 3.2352 3.1959
TCL: Exiting due to exit command.
