Info: SIMULATION PARAMETERS:
Info: TIMESTEP               2
Info: NUMBER OF STEPS        0
Info: STEPS PER CYCLE        10
Info: PERIODIC CELL BASIS 1  36.281 0 0
Info: PERIODIC CELL BASIS 2  0 35.779 0
Info: PERIODIC CELL BASIS 3  0 0 34.68
Info: PERIODIC CELL CENTER   0 0 0
Info: WRAPPING WATERS AROUND PERIODIC BOUNDARIES ON OUTPUT.
Info: WRAPPING ALL CLUSTERS AROUND PERIODIC BOUNDARIES ON OUTPUT.
Info: FIRST LDB TIMESTEP     50
Info: LAST LDB TIMESTEP     -1
Info: HOM BACKGROUND SCALING 1
Info: PME BACKGROUND SCALING 1
Info: MIN ATOMS PER PATCH    40
Info: EMPTY PATCH LOAD       40 ATOMS
Info: INITIAL TEMPERATURE    300
Info: CENTER OF MASS MOVING INITIALLY? NO
Info: DIELECTRIC             1
Info: EXCLUDE                SCALED ONE-FOUR
Info: 1-4 ELECTROSTATICS SCALED BY 0.833333
Info: MODIFIED 1-4 VDW PARAMETERS WILL BE USED
Info: DCD FILENAME           mobley_8011706_equil.dcd
Info: DCD FREQUENCY          100000
Info: DCD FIRST STEP         100000
Info: DCD FILE WILL CONTAIN UNIT CELL DATA
Info: XST FILENAME           mobley_8011706_equil.xst
Info: XST FREQUENCY          100000
Info: NO VELOCITY DCD OUTPUT
Info: NO FORCE DCD OUTPUT
Info: OUTPUT FILENAME        mobley_8011706_equil
Info: BINARY OUTPUT FILES WILL BE USED
Info: RESTART FILENAME       mobley_8011706_equil.restart
Info: RESTART FREQUENCY      100000
Info: BINARY RESTART FILES WILL BE USED
Info: CUTOFF                 9
Info: PAIRLIST DISTANCE      11
Info: PAIRLIST SHRINK RATE   0.01
Info: PAIRLIST GROW RATE     0.01
Info: PAIRLIST TRIGGER       0.3
Info: PAIRLISTS PER CYCLE    2
Info: PAIRLISTS ENABLED
Info: MARGIN                 8
Info: HYDROGEN GROUP CUTOFF  2.5
Info: PATCH DIMENSION        21.5
Info: ENERGY OUTPUT STEPS    100000
Info: ENERGY EVALUATION STEPS    100000
Info: OUTPUT ENERGY PRECISION 4
Info: CROSSTERM ENERGY INCLUDED IN DIHEDRAL
Info: TIMING OUTPUT STEPS    1000000
Info: PRESSURE OUTPUT STEPS  100000
Info: LANGEVIN DYNAMICS ACTIVE
Info: LANGEVIN TEMPERATURE   30
Info: LANGEVIN USING BBK INTEGRATOR
Info: LANGEVIN DAMPING COEFFICIENT IS 1 INVERSE PS
Info: LANGEVIN DYNAMICS APPLIED TO HYDROGENS
Info: LANGEVIN PISTON PRESSURE CONTROL ACTIVE
Info:        TARGET PRESSURE IS 1.01325 BAR
Info:     OSCILLATION PERIOD IS 50 FS
Info:             DECAY TIME IS 25 FS
Info:     PISTON TEMPERATURE IS 300 K
Info:       PRESSURE CONTROL IS GROUP-BASED
Info:    INITIAL STRAIN RATE IS 0 0 0
Info:       CELL FLUCTUATION IS ISOTROPIC
Info: PARTICLE MESH EWALD (PME) ACTIVE
Info: PME TOLERANCE               1e-06
Info: PME EWALD COEFFICIENT       0.348832
Info: PME INTERPOLATION ORDER     4
Info: PME GRID DIMENSIONS         40 36 36
Info: PME MAXIMUM GRID SPACING    1
Info: FULL ELECTROSTATIC EVALUATION FREQUENCY      2
Info: USING VERLET I (r-RESPA) MTS SCHEME.
Info: C1 SPLITTING OF LONG RANGE ELECTROSTATICS
Info: PLACING ATOMS IN PATCHES BY HYDROGEN GROUPS
Info: RIGID BONDS TO HYDROGEN : ALL
Info:         ERROR TOLERANCE : 1e-08
Info:          MAX ITERATIONS : 100
Info: RIGID WATER USING SETTLE ALGORITHM
Info: RANDOM NUMBER SEED     1743226366
Info: USE HYDROGEN BONDS?    NO
Info: Using AMBER format force field!
Info: AMBER PARM FILE        mobley_8011706.prmtop
Info: COORDINATE PDB         mobley_8011706.pdb
Info: Exclusions will be read from PARM file!
Info: SCNB (VDW SCALING)     2
Info: USING ARITHMETIC MEAN TO COMBINE L-J SIGMA PARAMETERS
Info: BINARY COORDINATES     mobley_8011706_min.coor
Info: SUMMARY OF PARAMETERS:
Info: 7 BONDS
Info: 7 ANGLES
Info:   7 HARMONIC
Info:   0 COSINE-BASED
Info: 4 DIHEDRAL
Info: 0 IMPROPER
Info: 0 CROSSTERM
Info: 0 VDW
Info: 36 VDW_PAIRS
Info: 0 NBTHOLE_PAIRS
Info: STRUCTURE SUMMARY:
Info: 2949 ATOMS
Info: 2948 BONDS
Info: 18 ANGLES
Info: 18 DIHEDRALS
Info: 0 IMPROPERS
Info: 0 CROSSTERMS
Info: 2982 EXCLUSIONS
Info: 2944 RIGID BONDS
Info: 5903 DEGREES OF FREEDOM
Info: 984 HYDROGEN GROUPS
Info: 4 ATOMS IN LARGEST HYDROGEN GROUP
Info: 984 MIGRATION GROUPS
Info: 4 ATOMS IN LARGEST MIGRATION GROUP
Info: TOTAL MASS = 17710.8 amu
Info: TOTAL CHARGE = -0.000200003 e
Info: MASS DENSITY = 0.653296 g/cm^3
Info: ATOM DENSITY = 0.0655071 atoms/A^3
Info: ADDED 0 IMPLICIT EXCLUSIONS
Info: NONBONDED TABLE R-SQUARED SPACING: 0.0625
Info: NONBONDED TABLE SIZE: 705 POINTS
Info: REMOVING COM VELOCITY -0.261933 -0.0553964 0.143328
TCL: Running for 100000 steps
ETITLE: TS BOND ANGLE DIHED IMPRP ELECT VDW BOUNDARY MISC KINETIC TOTAL TEMP POTENTIAL TOTAL3 TEMPAVG PRESSURE GPRESSURE VOLUME PRESSAVG GPRESSAVG
ENERGY: 0 0.1014 0.2856 0.0043 0.0000 -13664.7356 2414.5214 0.0000 0.0000 1788.2036 -9461.6192 304.8839 -11249.8228 -9461.2538 304.8839 503.0120 531.4443 45018.0351 503.0120 531.4443
ENERGY: 100000 0.1289 0.7822 0.0404 0.0000 -14086.8254 2317.7322 0.0000 0.0000 174.5346 -11593.6071 29.7577 -11768.1417 -11593.1780 30.9313 -1205.8030 -1155.0781 28463.1647 3.4482 3.4159
TCL: Running 100000 steps at 60 kelvin.
TCL: Setting parameter langevinTemp to 60
TCL: Running for 100000 steps
ETITLE: TS BOND ANGLE DIHED IMPRP ELECT VDW BOUNDARY MISC KINETIC TOTAL TEMP POTENTIAL TOTAL3 TEMPAVG PRESSURE GPRESSURE VOLUME PRESSAVG GPRESSAVG
ENERGY: 100000 0.1289 0.7822 0.0404 0.0000 -14086.8254 2317.7322 0.0000 0.0000 174.4488 -11593.6929 29.7431 -11768.1417 -11593.3256 29.7431 -1194.9050 -1155.0184 28463.1647 -1194.9050 -1155.0184
ENERGY: 200000 0.2045 0.9097 0.4516 0.0000 -14261.9428 2557.6521 0.0000 0.0000 342.5693 -11360.1556 58.4072 -11702.7249 -11359.1515 60.1008 1201.3661 1249.5070 28169.0974 4.9306 5.0030
TCL: Running 100000 steps at 90 kelvin.
TCL: Setting parameter langevinTemp to 90
TCL: Running for 100000 steps
ETITLE: TS BOND ANGLE DIHED IMPRP ELECT VDW BOUNDARY MISC KINETIC TOTAL TEMP POTENTIAL TOTAL3 TEMPAVG PRESSURE GPRESSURE VOLUME PRESSAVG GPRESSAVG
ENERGY: 200000 0.2045 0.9097 0.4516 0.0000 -14261.9428 2557.6521 0.0000 0.0000 342.3998 -11360.3251 58.3782 -11702.7249 -11359.5821 58.3782 1201.4319 1249.4035 28169.0974 1201.4319 1249.4035
ENERGY: 300000 0.4087 1.3389 0.4659 0.0000 -14025.9782 2433.0341 0.0000 0.0000 538.4693 -11052.2612 91.8076 -11590.7306 -11049.8929 89.9134 569.2079 585.4935 28261.2112 2.9806 3.0272
TCL: Running 100000 steps at 120 kelvin.
TCL: Setting parameter langevinTemp to 120
TCL: Running for 100000 steps
ETITLE: TS BOND ANGLE DIHED IMPRP ELECT VDW BOUNDARY MISC KINETIC TOTAL TEMP POTENTIAL TOTAL3 TEMPAVG PRESSURE GPRESSURE VOLUME PRESSAVG GPRESSAVG
ENERGY: 300000 0.4087 1.3389 0.4659 0.0000 -14025.9782 2433.0341 0.0000 0.0000 538.1983 -11052.5323 91.7614 -11590.7306 -11051.4459 91.7614 539.3797 586.1323 28261.2112 539.3797 586.1323
ENERGY: 400000 1.3177 2.3549 0.1730 0.0000 -13839.0899 2357.2839 0.0000 0.0000 689.4107 -10788.5498 117.5427 -11477.9605 -10786.0847 120.0052 125.6005 130.8162 28806.8692 4.1448 4.2581
TCL: Running 100000 steps at 150 kelvin.
TCL: Setting parameter langevinTemp to 150
TCL: Running for 100000 steps
ETITLE: TS BOND ANGLE DIHED IMPRP ELECT VDW BOUNDARY MISC KINETIC TOTAL TEMP POTENTIAL TOTAL3 TEMPAVG PRESSURE GPRESSURE VOLUME PRESSAVG GPRESSAVG
ENERGY: 400000 1.3177 2.3549 0.1730 0.0000 -13839.0899 2357.2839 0.0000 0.0000 689.0733 -10788.8872 117.4852 -11477.9605 -10787.6614 117.4852 85.9738 132.1639 28806.8692 85.9738 132.1639
ENERGY: 500000 0.6141 2.2326 0.2352 0.0000 -13574.1457 2282.7444 0.0000 0.0000 890.3276 -10397.9918 151.7985 -11288.3194 -10396.6094 150.0176 59.7526 107.3072 28998.1730 5.2340 5.1371
TCL: Running 100000 steps at 180 kelvin.
TCL: Setting parameter langevinTemp to 180
TCL: Running for 100000 steps
ETITLE: TS BOND ANGLE DIHED IMPRP ELECT VDW BOUNDARY MISC KINETIC TOTAL TEMP POTENTIAL TOTAL3 TEMPAVG PRESSURE GPRESSURE VOLUME PRESSAVG GPRESSAVG
ENERGY: 500000 0.6141 2.2326 0.2352 0.0000 -13574.1457 2282.7444 0.0000 0.0000 889.8952 -10398.4242 151.7248 -11288.3194 -10397.4412 151.7248 50.9498 107.1824 28998.1730 50.9498 107.1824
ENERGY: 600000 0.6249 4.6263 0.5379 0.0000 -13027.4621 2073.0998 0.0000 0.0000 1064.5372 -9884.0361 181.5008 -10948.5732 -9879.8214 179.8754 -411.3740 -394.6427 29189.7246 4.7885 4.7410
TCL: Running 100000 steps at 210 kelvin.
TCL: Setting parameter langevinTemp to 210
TCL: Running for 100000 steps
ETITLE: TS BOND ANGLE DIHED IMPRP ELECT VDW BOUNDARY MISC KINETIC TOTAL TEMP POTENTIAL TOTAL3 TEMPAVG PRESSURE GPRESSURE VOLUME PRESSAVG GPRESSAVG
ENERGY: 600000 0.6249 4.6263 0.5379 0.0000 -13027.4621 2073.0998 0.0000 0.0000 1064.0056 -9884.5676 181.4101 -10948.5732 -9882.3600 181.4101 -441.5062 -394.0257 29189.7246 -441.5062 -394.0257
ENERGY: 700000 1.1900 3.4712 0.8637 0.0000 -12412.6633 1869.4021 0.0000 0.0000 1252.3754 -9285.3609 213.5267 -10537.7363 -9280.7457 209.9907 -435.3770 -359.2831 28991.1160 5.0967 5.1576
TCL: Running 100000 steps at 240 kelvin.
TCL: Setting parameter langevinTemp to 240
TCL: Running for 100000 steps
ETITLE: TS BOND ANGLE DIHED IMPRP ELECT VDW BOUNDARY MISC KINETIC TOTAL TEMP POTENTIAL TOTAL3 TEMPAVG PRESSURE GPRESSURE VOLUME PRESSAVG GPRESSAVG
ENERGY: 700000 1.1900 3.4712 0.8637 0.0000 -12412.6633 1869.4021 0.0000 0.0000 1251.7634 -9285.9730 213.4223 -10537.7363 -9283.5507 213.4223 -433.9747 -357.4516 28991.1160 -433.9747 -357.4516
ENERGY: 800000 0.8256 3.3453 0.1375 0.0000 -11877.8479 1685.3074 0.0000 0.0000 1383.9801 -8804.2520 235.9649 -10188.2320 -8802.3231 239.8417 -453.7023 -344.9196 28832.0213 4.0822 4.0098
TCL: Running 100000 steps at 270 kelvin.
TCL: Setting parameter langevinTemp to 270
TCL: Running for 100000 steps
ETITLE: TS BOND ANGLE DIHED IMPRP ELECT VDW BOUNDARY MISC KINETIC TOTAL TEMP POTENTIAL TOTAL3 TEMPAVG PRESSURE GPRESSURE VOLUME PRESSAVG GPRESSAVG
ENERGY: 800000 0.8256 3.3453 0.1375 0.0000 -11877.8479 1685.3074 0.0000 0.0000 1383.2383 -8804.9937 235.8385 -10188.2320 -8802.7449 235.8385 -444.9755 -346.8319 28832.0213 -444.9755 -346.8319
ENERGY: 900000 1.2452 3.4325 0.6241 0.0000 -11265.5974 1591.3736 0.0000 0.0000 1567.5193 -8101.4027 267.2579 -9668.9219 -8097.2364 269.7329 253.3571 365.5710 29370.5788 4.0085 4.1134
TCL: Running 1000000 steps at 300 kelvin.
TCL: Setting parameter langevinTemp to 300
TCL: Running for 1000000 steps
ETITLE: TS BOND ANGLE DIHED IMPRP ELECT VDW BOUNDARY MISC KINETIC TOTAL TEMP POTENTIAL TOTAL3 TEMPAVG PRESSURE GPRESSURE VOLUME PRESSAVG GPRESSAVG
ENERGY: 900000 1.2452 3.4325 0.6241 0.0000 -11265.5974 1591.3736 0.0000 0.0000 1566.7453 -8102.1766 267.1259 -9668.9219 -8099.8379 267.1259 299.3695 365.9378 29370.5788 299.3695 365.9378
ENERGY: 1100000 2.2525 4.1768 1.1843 0.0000 -10759.0069 1414.7021 0.0000 0.0000 1817.2578 -7519.4333 309.8376 -9336.6912 -7513.6431 300.1519 -361.0616 -344.5765 30172.0537 5.3845 5.3409
ENERGY: 1300000 0.6913 7.8535 0.4925 0.0000 -10699.7089 1414.3942 0.0000 0.0000 1783.8465 -7492.4309 304.1411 -9276.2774 -7489.1683 300.4351 -400.0123 -340.2277 30896.4912 3.3521 3.5519
ENERGY: 1500000 2.3276 3.9778 0.8015 0.0000 -10580.3500 1313.9042 0.0000 0.0000 1701.9523 -7557.3866 290.1783 -9259.3389 -7555.4068 300.2601 -1104.6303 -1019.3310 30458.5639 3.6871 3.9876
ENERGY: 1700000 1.5813 5.2338 0.9295 0.0000 -10856.5098 1474.3137 0.0000 0.0000 1729.4357 -7645.0158 294.8642 -9374.4514 -7642.2155 299.5331 30.3291 78.3947 30166.7341 3.3296 3.4582
ENERGY: 1900000 0.5614 5.4532 0.9599 0.0000 -10702.3254 1442.9527 0.0000 0.0000 1752.5225 -7499.8759 298.8004 -9252.3984 -7495.6975 299.7220 85.3011 105.9747 30369.7992 3.0845 3.0840
TCL: Exiting due to exit command.
