Info: SIMULATION PARAMETERS:
Info: TIMESTEP               2
Info: NUMBER OF STEPS        0
Info: STEPS PER CYCLE        10
Info: PERIODIC CELL BASIS 1  30.9665 0 0
Info: PERIODIC CELL BASIS 2  0 31.6683 0
Info: PERIODIC CELL BASIS 3  0 0 30.9195
Info: PERIODIC CELL CENTER   0 0 0
Info: WRAPPING WATERS AROUND PERIODIC BOUNDARIES ON OUTPUT.
Info: WRAPPING ALL CLUSTERS AROUND PERIODIC BOUNDARIES ON OUTPUT.
Info: FIRST LDB TIMESTEP     50
Info: LAST LDB TIMESTEP     -1
Info: HOM BACKGROUND SCALING 1
Info: PME BACKGROUND SCALING 1
Info: MIN ATOMS PER PATCH    40
Info: EMPTY PATCH LOAD       40 ATOMS
Info: VELOCITY FILE          mobley_525934_equil.vel
Info: CENTER OF MASS MOVING INITIALLY? NO
Info: DIELECTRIC             1
Info: EXCLUDE                SCALED ONE-FOUR
Info: 1-4 ELECTROSTATICS SCALED BY 0.833333
Info: MODIFIED 1-4 VDW PARAMETERS WILL BE USED
Info: DCD FILENAME           mobley_525934_prod.dcd
Info: DCD FREQUENCY          100000
Info: DCD FIRST STEP         100000
Info: DCD FILE WILL CONTAIN UNIT CELL DATA
Info: XST FILENAME           mobley_525934_prod.xst
Info: XST FREQUENCY          100000
Info: NO VELOCITY DCD OUTPUT
Info: NO FORCE DCD OUTPUT
Info: OUTPUT FILENAME        mobley_525934_prod
Info: BINARY OUTPUT FILES WILL BE USED
Info: RESTART FILENAME       mobley_525934_prod.restart
Info: RESTART FREQUENCY      100000
Info: BINARY RESTART FILES WILL BE USED
Info: CUTOFF                 9
Info: PAIRLIST DISTANCE      11
Info: PAIRLIST SHRINK RATE   0.01
Info: PAIRLIST GROW RATE     0.01
Info: PAIRLIST TRIGGER       0.3
Info: PAIRLISTS PER CYCLE    2
Info: PAIRLISTS ENABLED
Info: MARGIN                 2
Info: HYDROGEN GROUP CUTOFF  2.5
Info: PATCH DIMENSION        15.5
Info: ENERGY OUTPUT STEPS    100000
Info: ENERGY EVALUATION STEPS    100000
Info: OUTPUT ENERGY PRECISION 4
Info: CROSSTERM ENERGY INCLUDED IN DIHEDRAL
Info: TIMING OUTPUT STEPS    1000000
Info: PRESSURE OUTPUT STEPS  100000
Info: ALCHEMICAL FEP ON
Info: FEP CURRENT LAMBDA VALUE     0
Info: FEP COMPARISON LAMBDA VALUE  0.05
Info: FEP INTRA-ALCHEMICAL NON-BONDED INTERACTIONS WILL BE RETAINED
Info: FEP INTRA-ALCHEMICAL BONDED INTERACTIONS WILL BE RETAINED
Info: FEP VDW SHIFTING COEFFICIENT 5
Info: FEP ELEC. ACTIVE FOR ANNIHILATED PARTICLES BETWEEN LAMBDA = 0 AND LAMBDA = 0.5
Info: FEP ELEC. ACTIVE FOR EXNIHILATED PARTICLES BETWEEN LAMBDA = 0.5 AND LAMBDA = 1
Info: FEP VDW ACTIVE FOR ANNIHILATED PARTICLES BETWEEN LAMBDA = 0 AND LAMBDA = 1
Info: FEP VDW ACTIVE FOR EXNIHILATED PARTICLES BETWEEN LAMBDA = 0 AND LAMBDA = 1
Info: FEP BOND ACTIVE FOR ANNIHILATED PARTICLES BETWEEN LAMBDA = 1 AND LAMBDA = 1
Info: FEP BOND ACTIVE FOR EXNIHILATED PARTICLES BETWEEN LAMBDA = 0 AND LAMBDA = 0
Info: LANGEVIN DYNAMICS ACTIVE
Info: LANGEVIN TEMPERATURE   300
Info: LANGEVIN USING BBK INTEGRATOR
Info: LANGEVIN DAMPING COEFFICIENT IS 1 INVERSE PS
Info: LANGEVIN DYNAMICS APPLIED TO HYDROGENS
Info: LANGEVIN PISTON PRESSURE CONTROL ACTIVE
Info:        TARGET PRESSURE IS 1.01325 BAR
Info:     OSCILLATION PERIOD IS 50 FS
Info:             DECAY TIME IS 25 FS
Info:     PISTON TEMPERATURE IS 300 K
Info:       PRESSURE CONTROL IS GROUP-BASED
Info:    INITIAL STRAIN RATE IS -0.000410069 -0.000410069 -0.000410069
Info:       CELL FLUCTUATION IS ISOTROPIC
Info: PARTICLE MESH EWALD (PME) ACTIVE
Info: PME TOLERANCE               1e-06
Info: PME EWALD COEFFICIENT       0.348832
Info: PME INTERPOLATION ORDER     4
Info: PME GRID DIMENSIONS         32 32 32
Info: PME MAXIMUM GRID SPACING    1
Info: PME CALCULATION WILL BE PERFORMED ON GPU
Info: FULL ELECTROSTATIC EVALUATION FREQUENCY      2
Info: USING VERLET I (r-RESPA) MTS SCHEME.
Info: C1 SPLITTING OF LONG RANGE ELECTROSTATICS
Info: PLACING ATOMS IN PATCHES BY HYDROGEN GROUPS
Info: RIGID BONDS TO HYDROGEN : ALL
Info:         ERROR TOLERANCE : 1e-08
Info:          MAX ITERATIONS : 100
Info: RIGID WATER USING SETTLE ALGORITHM
Info: RANDOM NUMBER SEED     1743470826
Info: USE HYDROGEN BONDS?    NO
Info: Using AMBER format force field!
Info: AMBER PARM FILE        mobley_525934.prmtop
Info: COORDINATE PDB         mobley_525934.pdb
Info: Exclusions will be read from PARM file!
Info: SCNB (VDW SCALING)     2
Info: USING ARITHMETIC MEAN TO COMBINE L-J SIGMA PARAMETERS
Info: BINARY COORDINATES     mobley_525934_equil.coor
Info: SUMMARY OF PARAMETERS:
Info: 5 BONDS
Info: 3 ANGLES
Info:   3 HARMONIC
Info:   0 COSINE-BASED
Info: 1 DIHEDRAL
Info: 0 IMPROPER
Info: 0 CROSSTERM
Info: 0 VDW
Info: 21 VDW_PAIRS
Info: 0 NBTHOLE_PAIRS
Info: To read alchdata from file: mobley_525934.pdb
Info: To read alchflag data from column: 5
Info: STRUCTURE SUMMARY:
Info: 2904 ATOMS
Info: 2903 BONDS
Info: 7 ANGLES
Info: 3 DIHEDRALS
Info: 0 IMPROPERS
Info: 0 CROSSTERMS
Info: 2913 EXCLUSIONS
Info: 2902 RIGID BONDS
Info: ALCH: 0 ATOMS TO DISAPPEAR IN FINAL STATE
Info: ALCH: 6 ATOMS TO APPEAR IN FINAL STATE
Info: 5810 DEGREES OF FREEDOM
Info: 968 HYDROGEN GROUPS
Info: 4 ATOMS IN LARGEST HYDROGEN GROUP
Info: 968 MIGRATION GROUPS
Info: 4 ATOMS IN LARGEST MIGRATION GROUP
Info: TOTAL MASS = 17451.6 amu
Info: TOTAL CHARGE = 1.86265e-08 e
Info: MASS DENSITY = 0.955748 g/cm^3
Info: ATOM DENSITY = 0.0957738 atoms/A^3
Info: ADDED 0 IMPLICIT EXCLUSIONS
Info: NONBONDED TABLE R-SQUARED SPACING: 0.0625
Info: NONBONDED TABLE SIZE: 705 POINTS
Info: REMOVING COM VELOCITY -0.16299 -0.14203 -0.0855277
Info: Use 3D box decompostion in PME FFT.
Info: Updated CUDA force table with 4096 elements.
Info: Updated CUDA LJ table with 6 x 6 elements.
Info: Found 9 unique exclusion lists needing 12 bytes
TCL: Running for 1500000 steps
ETITLE: TS BOND ANGLE DIHED IMPRP ELECT VDW BOUNDARY MISC KINETIC TOTAL TEMP POTENTIAL TOTALAVG TEMPAVG PRESSURE GPRESSURE VOLUME PRESSAVG GPRESSAVG
ENERGY: 0 0.3864 1.9339 0.1452 0.0000 -10577.0199 1398.4558 0.0000 0.0000 1709.5667 -7466.5319 296.1422 -9176.0986 -7466.5319 296.1422 -649.0337 -577.9242 30321.4512 -649.0337 -577.9242
ENERGY: 300000 0.0027 3.2188 1.4608 0.0000 -10643.8377 1454.1568 0.0000 0.0000 1708.7454 -7476.2532 295.9999 -9184.9986 -7437.9157 298.3785 309.2850 309.5002 29740.4517 -165.4150 -105.6887
ENERGY: 600000 0.3033 2.3502 0.5086 0.0000 -10664.3857 1491.2643 0.0000 0.0000 1742.4190 -7427.5403 301.8331 -9169.9593 -7417.7138 301.1255 299.1364 371.3097 29681.9228 -120.4782 -59.0459
ENERGY: 900000 0.0260 0.7720 0.0066 0.0000 -10622.2632 1494.4452 0.0000 0.0000 1731.5861 -7395.4272 299.9565 -9127.0133 -7390.6756 301.7032 639.6959 715.6559 29614.3276 50.0868 115.8419
ENERGY: 1200000 0.0007 2.3111 0.0236 0.0000 -10535.9907 1373.4629 0.0000 0.0000 1726.5960 -7433.5965 299.0921 -9160.1925 -7390.6192 301.3450 -739.9111 -663.2435 30353.0677 -39.5590 31.7493
ENERGY: 1500000 0.0376 2.4557 0.0654 0.0000 -10575.6446 1447.8789 0.0000 0.0000 1668.1658 -7457.0412 288.9705 -9125.2070 -7393.9148 300.8475 62.7361 39.8507 29962.2951 82.2027 146.9784
TCL: Running FEP window   2: Lambda1 0.05   Lambda2 0.1    [dLambda 0.05  ]
TCL: Setting parameter firsttimestep to 0
TCL: Setting parameter alchLambda to 0.05
Info: NONBONDED TABLE R-SQUARED SPACING: 0.0625
Info: NONBONDED TABLE SIZE: 705 POINTS
TCL: Setting parameter alchLambda2 to 0.1
Info: NONBONDED TABLE R-SQUARED SPACING: 0.0625
Info: NONBONDED TABLE SIZE: 705 POINTS
TCL: Running for 1500000 steps
ETITLE: TS BOND ANGLE DIHED IMPRP ELECT VDW BOUNDARY MISC KINETIC TOTAL TEMP POTENTIAL TOTALAVG TEMPAVG PRESSURE GPRESSURE VOLUME PRESSAVG GPRESSAVG
ENERGY: 0 0.0376 2.4557 0.0654 0.0000 -10575.6434 1449.2812 0.0000 0.0000 1667.2955 -7456.5080 288.8197 -9123.8035 -7456.5080 288.8197 -27.5404 45.3820 29962.2951 -27.5404 45.3820
ENERGY: 300000 0.0396 0.8819 0.8869 0.0000 -10469.8632 1421.0243 0.0000 0.0000 1727.9828 -7319.0477 299.3324 -9047.0304 -7394.4100 297.1596 52.6305 192.0755 30014.4929 -120.8739 -33.8890
ENERGY: 600000 0.8072 1.7901 0.0211 0.0000 -10377.7495 1289.6882 0.0000 0.0000 1741.7392 -7343.7036 301.7153 -9085.4428 -7378.2602 300.3553 -1379.6286 -1267.0336 30546.6462 -250.3929 -166.3644
ENERGY: 900000 0.4736 1.9955 0.0927 0.0000 -10547.3886 1418.4274 0.0000 0.0000 1749.0800 -7377.3192 302.9870 -9126.3993 -7385.4146 299.5124 18.9813 43.5783 29886.0513 -131.6572 -49.2704
ENERGY: 1200000 0.2554 1.4655 0.7001 0.0000 -10704.3477 1531.6928 0.0000 0.0000 1693.2293 -7477.0047 293.3121 -9170.2340 -7399.7079 298.5694 640.3295 699.9003 29923.3434 -81.9869 -0.3530
ENERGY: 1500000 0.1092 2.3118 0.2013 0.0000 -10518.6417 1412.8628 0.0000 0.0000 1762.7080 -7340.4485 305.3477 -9103.1566 -7394.0303 298.1510 157.9670 259.6246 29560.2796 -79.0231 -0.8526
TCL: Running FEP window   3: Lambda1 0.1    Lambda2 0.15000000000000002 [dLambda 0.05000000000000002]
TCL: Setting parameter firsttimestep to 0
TCL: Setting parameter alchLambda to 0.1
Info: NONBONDED TABLE R-SQUARED SPACING: 0.0625
Info: NONBONDED TABLE SIZE: 705 POINTS
TCL: Setting parameter alchLambda2 to 0.15000000000000002
Info: NONBONDED TABLE R-SQUARED SPACING: 0.0625
Info: NONBONDED TABLE SIZE: 705 POINTS
TCL: Running for 1500000 steps
ETITLE: TS BOND ANGLE DIHED IMPRP ELECT VDW BOUNDARY MISC KINETIC TOTAL TEMP POTENTIAL TOTALAVG TEMPAVG PRESSURE GPRESSURE VOLUME PRESSAVG GPRESSAVG
ENERGY: 0 0.1092 2.3118 0.2013 0.0000 -10518.6437 1412.6718 0.0000 0.0000 1761.8568 -7341.4928 305.2002 -9103.3496 -7341.4928 305.2002 170.4745 259.2921 29560.2796 170.4745 259.2921
ENERGY: 300000 0.0118 2.5222 0.0594 0.0000 -10530.1654 1417.9425 0.0000 0.0000 1699.4548 -7410.1747 294.3906 -9109.6295 -7356.5369 301.3672 -527.8372 -446.9415 30790.9409 95.6107 168.2071
ENERGY: 600000 0.1141 0.7769 0.3794 0.0000 -10597.1372 1494.0765 0.0000 0.0000 1762.4976 -7339.2927 305.3112 -9101.7903 -7349.5860 301.6696 592.9660 663.6986 29835.7638 68.9936 140.2286
ENERGY: 900000 0.1181 2.9006 0.0446 0.0000 -10544.7132 1390.3310 0.0000 0.0000 1744.7995 -7406.5194 302.2454 -9151.3188 -7372.3058 302.1434 -60.3299 -53.6142 29477.2545 152.2398 212.5972
ENERGY: 1200000 0.3943 1.4496 1.0991 0.0000 -10503.4084 1392.5930 0.0000 0.0000 1796.4790 -7311.3933 311.1977 -9107.8724 -7370.6195 301.8086 -308.6313 -301.2241 30174.7116 -5.3619 44.1213
ENERGY: 1500000 0.0001 1.6354 0.0178 0.0000 -10490.8967 1398.5250 0.0000 0.0000 1742.1389 -7348.5796 301.7846 -9090.7185 -7369.4103 302.6599 -166.5840 -112.5554 29947.0907 7.3749 56.4469
TCL: Running FEP window   4: Lambda1 0.15000000000000002 Lambda2 0.2    [dLambda 0.04999999999999999]
TCL: Setting parameter firsttimestep to 0
TCL: Setting parameter alchLambda to 0.15000000000000002
Info: NONBONDED TABLE R-SQUARED SPACING: 0.0625
Info: NONBONDED TABLE SIZE: 705 POINTS
TCL: Setting parameter alchLambda2 to 0.2
Info: NONBONDED TABLE R-SQUARED SPACING: 0.0625
Info: NONBONDED TABLE SIZE: 705 POINTS
TCL: Running for 1500000 steps
ETITLE: TS BOND ANGLE DIHED IMPRP ELECT VDW BOUNDARY MISC KINETIC TOTAL TEMP POTENTIAL TOTALAVG TEMPAVG PRESSURE GPRESSURE VOLUME PRESSAVG GPRESSAVG
ENERGY: 0 0.0001 1.6354 0.0178 0.0000 -10490.8963 1399.8528 0.0000 0.0000 1741.2800 -7348.1101 301.6358 -9089.3902 -7348.1101 301.6358 -185.4126 -105.5498 29947.0907 -185.4126 -105.5498
ENERGY: 300000 0.8573 0.7157 1.0232 0.0000 -10606.3516 1400.2672 0.0000 0.0000 1743.6699 -7459.8182 302.0498 -9203.4881 -7366.7044 302.2840 -312.9879 -228.3215 29469.5768 -369.0477 -295.0052
ENERGY: 600000 0.4853 1.1676 0.0503 0.0000 -10417.6365 1366.3472 0.0000 0.0000 1723.9532 -7325.6329 298.6343 -9049.5861 -7355.9650 302.4934 -433.7610 -320.5509 30143.0199 -183.4537 -109.8249
ENERGY: 900000 0.1957 1.6018 1.2648 0.0000 -10639.4865 1500.3699 0.0000 0.0000 1766.3587 -7369.6955 305.9801 -9136.0542 -7372.6992 301.2705 569.8376 637.4937 29995.6151 -104.4193 -29.5855
ENERGY: 1200000 1.1341 1.2127 0.5571 0.0000 -10519.0793 1409.2640 0.0000 0.0000 1725.5675 -7381.3438 298.9140 -9106.9114 -7369.2367 301.5961 -39.5513 51.7696 30003.9273 -0.3867 76.1471
ENERGY: 1500000 0.1095 0.7945 0.0109 0.0000 -10552.0640 1445.3537 0.0000 0.0000 1723.4733 -7382.3222 298.5512 -9105.7955 -7369.4048 302.1286 296.7339 363.3679 29812.6210 -16.6714 51.3151
TCL: Running FEP window   5: Lambda1 0.2    Lambda2 0.25   [dLambda 0.04999999999999999]
TCL: Setting parameter firsttimestep to 0
TCL: Setting parameter alchLambda to 0.2
Info: NONBONDED TABLE R-SQUARED SPACING: 0.0625
Info: NONBONDED TABLE SIZE: 705 POINTS
TCL: Setting parameter alchLambda2 to 0.25
Info: NONBONDED TABLE R-SQUARED SPACING: 0.0625
Info: NONBONDED TABLE SIZE: 705 POINTS
TCL: Running for 1500000 steps
ETITLE: TS BOND ANGLE DIHED IMPRP ELECT VDW BOUNDARY MISC KINETIC TOTAL TEMP POTENTIAL TOTALAVG TEMPAVG PRESSURE GPRESSURE VOLUME PRESSAVG GPRESSAVG
ENERGY: 0 0.1095 0.7945 0.0109 0.0000 -10552.0649 1445.1933 0.0000 0.0000 1722.6112 -7383.3456 298.4019 -9105.9568 -7383.3456 298.4019 280.5007 365.0510 29812.6210 280.5007 365.0510
ENERGY: 300000 0.0022 0.8226 1.4490 0.0000 -10472.6539 1384.3967 0.0000 0.0000 1704.9462 -7381.0371 295.3418 -9085.9833 -7398.2614 298.1301 -253.6163 -202.4307 29754.0352 -64.7680 1.0704
ENERGY: 600000 1.0530 1.1400 1.1997 0.0000 -10608.6092 1398.3027 0.0000 0.0000 1743.4036 -7463.5102 302.0036 -9206.9138 -7397.2216 299.6846 -396.8877 -332.4971 29956.0221 102.3642 180.3285
ENERGY: 900000 1.0007 0.9782 0.0699 0.0000 -10457.7051 1344.8533 0.0000 0.0000 1742.6051 -7368.1978 301.8653 -9110.8030 -7372.9146 300.8163 -688.2611 -625.5161 30291.3289 -80.3026 -1.0025
ENERGY: 1200000 0.2313 0.9057 1.4975 0.0000 -10483.9938 1413.7927 0.0000 0.0000 1678.7651 -7388.8015 290.8065 -9067.5666 -7367.0551 299.7848 31.5478 115.2577 29640.0008 -38.6263 33.4583
ENERGY: 1500000 0.1051 1.5669 0.0308 0.0000 -10483.8879 1335.6771 0.0000 0.0000 1756.1092 -7390.3987 304.2046 -9146.5079 -7370.6822 300.9744 -1042.4629 -928.5097 30353.4877 -120.6598 -44.6075
TCL: Running FEP window   6: Lambda1 0.25   Lambda2 0.3    [dLambda 0.04999999999999999]
TCL: Setting parameter firsttimestep to 0
TCL: Setting parameter alchLambda to 0.25
Info: NONBONDED TABLE R-SQUARED SPACING: 0.0625
Info: NONBONDED TABLE SIZE: 705 POINTS
TCL: Setting parameter alchLambda2 to 0.3
Info: NONBONDED TABLE R-SQUARED SPACING: 0.0625
Info: NONBONDED TABLE SIZE: 705 POINTS
TCL: Running for 1500000 steps
ETITLE: TS BOND ANGLE DIHED IMPRP ELECT VDW BOUNDARY MISC KINETIC TOTAL TEMP POTENTIAL TOTALAVG TEMPAVG PRESSURE GPRESSURE VOLUME PRESSAVG GPRESSAVG
ENERGY: 0 0.1051 1.5669 0.0308 0.0000 -10483.8887 1336.0042 0.0000 0.0000 1755.2396 -7390.9420 304.0540 -9146.1816 -7390.9420 304.0540 -1004.6221 -926.1944 30353.4877 -1004.6221 -926.1944
ENERGY: 300000 0.0050 3.6280 0.0033 0.0000 -10580.9853 1460.3669 0.0000 0.0000 1754.4156 -7362.5666 303.9112 -9116.9821 -7393.9035 301.6421 215.4868 273.7927 30271.5209 -132.0274 -62.2867
ENERGY: 600000 0.4559 0.6865 0.5730 0.0000 -10559.2803 1398.8704 0.0000 0.0000 1673.0354 -7485.6590 289.8140 -9158.6945 -7409.7343 300.2372 -409.1022 -300.7205 29791.8362 -296.1838 -226.6385
ENERGY: 900000 1.1617 2.2434 1.2747 0.0000 -10676.2817 1528.8978 0.0000 0.0000 1781.9648 -7360.7393 308.6835 -9142.7041 -7400.9247 300.1325 855.1214 893.4594 29844.9174 -118.2310 -45.4587
ENERGY: 1200000 0.0535 4.5588 0.2734 0.0000 -10367.7883 1335.7034 0.0000 0.0000 1748.1054 -7279.0939 302.8181 -9027.1993 -7387.0028 299.7710 -218.9919 -173.3976 29635.9891 -29.6199 35.9929
ENERGY: 1500000 0.1250 0.8042 0.7407 0.0000 -10522.7465 1408.2878 0.0000 0.0000 1734.5456 -7378.2433 300.4692 -9112.7888 -7384.7681 299.6347 -258.7693 -134.9443 30185.7683 -102.1381 -31.3132
TCL: Running FEP window   7: Lambda1 0.3    Lambda2 0.35   [dLambda 0.04999999999999999]
TCL: Setting parameter firsttimestep to 0
TCL: Setting parameter alchLambda to 0.3
Info: NONBONDED TABLE R-SQUARED SPACING: 0.0625
Info: NONBONDED TABLE SIZE: 705 POINTS
TCL: Setting parameter alchLambda2 to 0.35
Info: NONBONDED TABLE R-SQUARED SPACING: 0.0625
Info: NONBONDED TABLE SIZE: 705 POINTS
TCL: Running for 1500000 steps
ETITLE: TS BOND ANGLE DIHED IMPRP ELECT VDW BOUNDARY MISC KINETIC TOTAL TEMP POTENTIAL TOTALAVG TEMPAVG PRESSURE GPRESSURE VOLUME PRESSAVG GPRESSAVG
ENERGY: 0 0.1250 0.8042 0.7407 0.0000 -10522.7463 1408.3412 0.0000 0.0000 1733.6971 -7379.0381 300.3222 -9112.7352 -7379.0381 300.3222 -218.5989 -131.4180 30185.7683 -218.5989 -131.4180
ENERGY: 300000 0.0169 1.0120 0.1400 0.0000 -10426.9733 1357.9715 0.0000 0.0000 1724.8516 -7342.9813 298.7900 -9067.8329 -7371.6159 299.0876 -625.5136 -568.0038 30400.3739 -233.2596 -175.2165
ENERGY: 600000 0.3623 4.1534 0.7177 0.0000 -10653.9037 1427.4336 0.0000 0.0000 1690.8273 -7530.4096 292.8960 -9221.2368 -7405.7617 298.5282 -224.4482 -154.6869 29558.3189 -192.5021 -116.1660
ENERGY: 900000 0.2552 0.7682 1.3121 0.0000 -10525.4659 1410.0534 0.0000 0.0000 1745.3455 -7367.7315 302.3400 -9113.0770 -7380.3063 300.4098 40.9454 84.3321 30004.4622 -341.5916 -269.2874
ENERGY: 1200000 0.0030 0.8453 0.0159 0.0000 -10574.4265 1440.7065 0.0000 0.0000 1759.2042 -7373.6515 304.7407 -9132.8557 -7375.6011 300.6068 365.6333 432.7399 29161.8459 -225.8200 -156.6784
ENERGY: 1500000 0.0472 3.8884 0.3082 0.0000 -10413.9935 1306.6007 0.0000 0.0000 1723.1432 -7380.0058 298.4940 -9103.1490 -7376.2427 300.8119 -978.8449 -978.5614 30170.1793 -312.0320 -246.6569
TCL: Running FEP window   8: Lambda1 0.35   Lambda2 0.39999999999999997 [dLambda 0.04999999999999999]
TCL: Setting parameter firsttimestep to 0
TCL: Setting parameter alchLambda to 0.35
Info: NONBONDED TABLE R-SQUARED SPACING: 0.0625
Info: NONBONDED TABLE SIZE: 705 POINTS
TCL: Setting parameter alchLambda2 to 0.39999999999999997
Info: NONBONDED TABLE R-SQUARED SPACING: 0.0625
Info: NONBONDED TABLE SIZE: 705 POINTS
TCL: Running for 1500000 steps
ETITLE: TS BOND ANGLE DIHED IMPRP ELECT VDW BOUNDARY MISC KINETIC TOTAL TEMP POTENTIAL TOTALAVG TEMPAVG PRESSURE GPRESSURE VOLUME PRESSAVG GPRESSAVG
ENERGY: 0 0.0472 3.8884 0.3082 0.0000 -10413.9938 1307.0082 0.0000 0.0000 1722.2815 -7380.4602 298.3447 -9102.7417 -7380.4602 298.3447 -1042.8682 -974.1040 30170.1793 -1042.8682 -974.1040
ENERGY: 300000 0.0008 2.8824 0.0375 0.0000 -10570.5039 1446.5019 0.0000 0.0000 1652.1240 -7468.9572 286.1916 -9121.0812 -7392.4114 298.2341 144.6873 201.5710 29813.9375 -569.0080 -495.5041
ENERGY: 600000 0.0705 2.4190 0.0148 0.0000 -10476.8826 1329.3114 0.0000 0.0000 1704.6406 -7440.4263 295.2889 -9145.0669 -7394.8555 298.7030 -921.8513 -881.5720 30012.4193 -373.2907 -295.8638
ENERGY: 900000 0.0224 1.6897 0.4362 0.0000 -10591.3200 1412.8321 0.0000 0.0000 1737.4331 -7438.9066 300.9694 -9176.3396 -7402.7271 299.5346 -78.5275 -45.2060 29750.6758 -293.7651 -222.8074
ENERGY: 1200000 0.6520 3.2433 0.5014 0.0000 -10504.5206 1393.7418 0.0000 0.0000 1659.3504 -7447.0315 287.4434 -9106.3820 -7399.5399 299.1711 -486.2515 -482.0233 30545.2617 -220.2485 -153.7131
ENERGY: 1500000 0.0066 1.4042 0.0209 0.0000 -10631.0710 1474.9135 0.0000 0.0000 1746.3558 -7408.3699 302.5150 -9154.7257 -7403.3297 299.7741 62.5778 126.9245 30382.5072 -220.5144 -154.2967
TCL: Running FEP window   9: Lambda1 0.39999999999999997 Lambda2 0.44999999999999996 [dLambda 0.04999999999999999]
TCL: Setting parameter firsttimestep to 0
TCL: Setting parameter alchLambda to 0.39999999999999997
Info: NONBONDED TABLE R-SQUARED SPACING: 0.0625
Info: NONBONDED TABLE SIZE: 705 POINTS
TCL: Setting parameter alchLambda2 to 0.44999999999999996
Info: NONBONDED TABLE R-SQUARED SPACING: 0.0625
Info: NONBONDED TABLE SIZE: 705 POINTS
TCL: Running for 1500000 steps
ETITLE: TS BOND ANGLE DIHED IMPRP ELECT VDW BOUNDARY MISC KINETIC TOTAL TEMP POTENTIAL TOTALAVG TEMPAVG PRESSURE GPRESSURE VOLUME PRESSAVG GPRESSAVG
ENERGY: 0 0.0066 1.4042 0.0209 0.0000 -10631.0716 1475.4420 0.0000 0.0000 1745.4984 -7408.6994 302.3665 -9154.1978 -7408.6994 302.3665 50.1547 130.3104 30382.5072 50.1547 130.3104
ENERGY: 300000 0.0837 1.3143 0.1495 0.0000 -10403.0698 1349.5683 0.0000 0.0000 1671.2444 -7380.7096 289.5038 -9051.9539 -7448.8161 297.2524 -432.4592 -394.1722 30005.8793 -204.7507 -131.8115
ENERGY: 600000 0.0590 0.8001 1.3245 0.0000 -10480.8250 1394.5045 0.0000 0.0000 1743.1303 -7341.0065 301.9563 -9084.1369 -7409.9719 299.9151 78.7121 134.3284 29754.6048 -61.3269 -6.5219
ENERGY: 900000 0.2166 3.0017 0.2752 0.0000 -10530.6354 1388.7586 0.0000 0.0000 1729.7574 -7408.6258 299.6398 -9138.3832 -7395.6872 300.1236 -325.6316 -228.2956 30000.2074 8.1801 62.6562
ENERGY: 1200000 0.0217 0.9336 0.1288 0.0000 -10552.8871 1337.9474 0.0000 0.0000 1742.1322 -7471.7234 301.7834 -9213.8556 -7398.0916 300.9198 -859.8754 -834.7509 29872.5094 -76.3839 -23.7333
ENERGY: 1500000 0.0871 1.5033 0.0633 0.0000 -10354.9893 1325.9159 0.0000 0.0000 1704.9463 -7322.4735 295.3418 -9027.4198 -7389.6272 300.9599 -643.6217 -609.4151 30447.9787 -114.9594 -60.1966
TCL: Running FEP window  10: Lambda1 0.44999999999999996 Lambda2 0.49999999999999994 [dLambda 0.04999999999999999]
TCL: Setting parameter firsttimestep to 0
TCL: Setting parameter alchLambda to 0.44999999999999996
Info: NONBONDED TABLE R-SQUARED SPACING: 0.0625
Info: NONBONDED TABLE SIZE: 705 POINTS
TCL: Setting parameter alchLambda2 to 0.49999999999999994
Info: NONBONDED TABLE R-SQUARED SPACING: 0.0625
Info: NONBONDED TABLE SIZE: 705 POINTS
TCL: Running for 1500000 steps
ETITLE: TS BOND ANGLE DIHED IMPRP ELECT VDW BOUNDARY MISC KINETIC TOTAL TEMP POTENTIAL TOTALAVG TEMPAVG PRESSURE GPRESSURE VOLUME PRESSAVG GPRESSAVG
ENERGY: 0 0.0871 1.5033 0.0633 0.0000 -10354.9892 1325.9272 0.0000 0.0000 1704.0662 -7323.3422 295.1894 -9027.4084 -7323.3422 295.1894 -692.4667 -606.4840 30447.9787 -692.4667 -606.4840
ENERGY: 300000 0.1404 2.6292 0.2536 0.0000 -10582.1620 1432.6614 0.0000 0.0000 1738.3175 -7408.1599 301.1226 -9146.4774 -7376.7325 299.1286 33.7926 54.2748 29959.3583 -294.9413 -253.9462
ENERGY: 600000 0.2265 2.4449 0.3730 0.0000 -10427.9203 1369.5538 0.0000 0.0000 1747.6129 -7307.7091 302.7328 -9055.3220 -7371.3156 299.1902 -420.6050 -336.9164 30440.8187 -187.3106 -134.4195
ENERGY: 900000 0.2319 1.9737 0.0958 0.0000 -10509.2798 1399.6528 0.0000 0.0000 1764.3406 -7342.9851 305.6305 -9107.3257 -7377.1304 299.3909 -258.9330 -224.7845 30238.9281 -139.7083 -87.1516
ENERGY: 1200000 1.2099 2.8111 1.0693 0.0000 -10447.2900 1361.1317 0.0000 0.0000 1691.6089 -7389.4590 293.0314 -9081.0679 -7378.4405 298.7699 -459.4717 -363.9796 30083.0558 -156.5601 -96.9503
ENERGY: 1500000 0.2413 0.9499 1.2474 0.0000 -10548.4076 1388.1564 0.0000 0.0000 1722.8075 -7435.0051 298.4359 -9157.8126 -7389.5079 298.3658 -511.7052 -397.3032 30084.2072 -160.2055 -97.7716
TCL: Running FEP window  11: Lambda1 0.49999999999999994 Lambda2 0.5499999999999999 [dLambda 0.04999999999999999]
TCL: Setting parameter firsttimestep to 0
TCL: Setting parameter alchLambda to 0.49999999999999994
Info: NONBONDED TABLE R-SQUARED SPACING: 0.0625
Info: NONBONDED TABLE SIZE: 705 POINTS
TCL: Setting parameter alchLambda2 to 0.5499999999999999
Info: NONBONDED TABLE R-SQUARED SPACING: 0.0625
Info: NONBONDED TABLE SIZE: 705 POINTS
TCL: Running for 1500000 steps
ETITLE: TS BOND ANGLE DIHED IMPRP ELECT VDW BOUNDARY MISC KINETIC TOTAL TEMP POTENTIAL TOTALAVG TEMPAVG PRESSURE GPRESSURE VOLUME PRESSAVG GPRESSAVG
ENERGY: 0 0.2413 0.9499 1.2474 0.0000 -10548.4064 1387.9546 0.0000 0.0000 1721.9570 -7436.0563 298.2885 -9158.0132 -7436.0563 298.2885 -473.2195 -397.1010 30084.2072 -473.2195 -397.1010
ENERGY: 300000 1.1210 0.8541 0.0146 0.0000 -10621.6861 1484.1187 0.0000 0.0000 1713.9855 -7421.5921 296.9077 -9135.5776 -7388.9760 299.4213 355.7807 408.7791 29837.6472 -107.0275 -52.1557
ENERGY: 600000 0.1608 1.8068 0.0236 0.0000 -10517.9952 1420.0164 0.0000 0.0000 1780.2497 -7315.7378 308.3864 -9095.9876 -7390.7594 299.2929 -60.0443 40.7568 30188.6972 -135.9101 -72.3643
ENERGY: 900000 0.4895 1.0596 0.2518 0.0000 -10696.2949 1471.1715 0.0000 0.0000 1746.7061 -7476.6166 302.5757 -9223.3227 -7396.0734 300.2842 245.8020 314.2692 29341.3329 -108.9697 -36.1238
ENERGY: 1200000 0.0657 0.9456 0.0855 0.0000 -10509.8431 1418.5804 0.0000 0.0000 1795.0152 -7295.1506 310.9441 -9090.1658 -7392.7010 300.6789 355.5711 384.5064 29572.5225 -59.4044 7.8713
ENERGY: 1500000 0.1327 0.8695 0.0726 0.0000 -10516.9146 1400.9110 0.0000 0.0000 1736.1280 -7378.8008 300.7433 -9114.9288 -7397.7387 299.7892 51.9815 92.1167 29722.9439 -64.8087 -2.5204
TCL: Running FEP window  12: Lambda1 0.5499999999999999 Lambda2 0.6    [dLambda 0.050000000000000044]
TCL: Setting parameter firsttimestep to 0
TCL: Setting parameter alchLambda to 0.5499999999999999
Info: NONBONDED TABLE R-SQUARED SPACING: 0.0625
Info: NONBONDED TABLE SIZE: 705 POINTS
TCL: Setting parameter alchLambda2 to 0.6
Info: NONBONDED TABLE R-SQUARED SPACING: 0.0625
Info: NONBONDED TABLE SIZE: 705 POINTS
TCL: Running for 1500000 steps
ETITLE: TS BOND ANGLE DIHED IMPRP ELECT VDW BOUNDARY MISC KINETIC TOTAL TEMP POTENTIAL TOTALAVG TEMPAVG PRESSURE GPRESSURE VOLUME PRESSAVG GPRESSAVG
ENERGY: 0 0.1327 0.8695 0.0726 0.0000 -10517.0745 1400.8210 0.0000 0.0000 1735.2358 -7379.9429 300.5888 -9115.1787 -7379.9429 300.5888 13.6858 93.7964 29722.9439 13.6858 93.7964
ENERGY: 300000 0.3048 0.7239 1.2655 0.0000 -10475.2251 1383.1248 0.0000 0.0000 1722.9198 -7366.8864 298.4553 -9089.8062 -7410.2267 299.1589 -256.6452 -208.8329 30173.4978 -454.5612 -390.8119
ENERGY: 600000 0.0009 1.7916 0.9689 0.0000 -10490.6164 1399.9382 0.0000 0.0000 1771.1275 -7316.7892 306.8062 -9087.9167 -7404.7370 301.2035 -71.1182 22.6355 29879.1705 -220.7567 -152.8340
ENERGY: 900000 0.1887 1.3528 0.0171 0.0000 -10401.4184 1328.8373 0.0000 0.0000 1728.7763 -7342.2462 299.4698 -9071.0225 -7396.2366 301.5879 -778.8176 -637.0407 30315.9586 -254.7031 -181.7148
ENERGY: 1200000 0.9418 1.4100 0.0848 0.0000 -10658.8791 1491.4149 0.0000 0.0000 1709.5633 -7455.4643 296.1416 -9165.0276 -7398.7902 301.2355 733.0576 791.9635 29098.2373 -147.1115 -74.7101
ENERGY: 1500000 0.0021 2.8500 0.2971 0.0000 -10559.9542 1433.4440 0.0000 0.0000 1681.3844 -7441.9767 291.2603 -9123.3611 -7399.3233 301.1743 -44.4745 19.2430 30124.0885 -113.5414 -46.0934
TCL: Running FEP window  13: Lambda1 0.6    Lambda2 0.65   [dLambda 0.050000000000000044]
TCL: Setting parameter firsttimestep to 0
TCL: Setting parameter alchLambda to 0.6
Info: NONBONDED TABLE R-SQUARED SPACING: 0.0625
Info: NONBONDED TABLE SIZE: 705 POINTS
TCL: Setting parameter alchLambda2 to 0.65
Info: NONBONDED TABLE R-SQUARED SPACING: 0.0625
Info: NONBONDED TABLE SIZE: 705 POINTS
TCL: Running for 1500000 steps
ETITLE: TS BOND ANGLE DIHED IMPRP ELECT VDW BOUNDARY MISC KINETIC TOTAL TEMP POTENTIAL TOTALAVG TEMPAVG PRESSURE GPRESSURE VOLUME PRESSAVG GPRESSAVG
ENERGY: 0 0.0021 2.8500 0.2971 0.0000 -10559.8145 1433.3641 0.0000 0.0000 1680.5172 -7442.7842 291.1101 -9123.3014 -7442.7842 291.1101 -76.5896 22.7970 30124.0885 -76.5896 22.7970
ENERGY: 300000 0.3698 1.2899 0.0258 0.0000 -10583.1773 1401.5503 0.0000 0.0000 1709.4822 -7470.4591 296.1276 -9179.9414 -7443.2665 296.0854 -418.8483 -328.4521 29669.5884 -159.5071 -65.9781
ENERGY: 600000 0.1166 2.4506 0.2498 0.0000 -10517.7127 1380.9393 0.0000 0.0000 1753.7186 -7380.2378 303.7905 -9133.9565 -7418.2426 298.5491 -332.2240 -228.5387 29881.6048 -229.2922 -145.6116
ENERGY: 900000 0.0227 1.5779 0.0189 0.0000 -10580.5942 1393.0510 0.0000 0.0000 1733.0185 -7452.9052 300.2047 -9185.9237 -7426.4987 299.3801 -120.3874 -61.4632 29571.4360 -178.3588 -88.5772
ENERGY: 1200000 0.0850 0.6496 1.1229 0.0000 -10564.6956 1416.5464 0.0000 0.0000 1723.4329 -7422.8588 298.5442 -9146.2917 -7427.3881 298.5806 271.8291 295.5463 29138.6210 -137.6991 -53.5039
ENERGY: 1500000 0.0726 1.2283 0.9130 0.0000 -10704.4867 1508.9327 0.0000 0.0000 1756.2587 -7437.0814 304.2305 -9193.3401 -7426.8783 299.0980 666.5805 731.2304 29741.6571 -32.2052 47.9317
TCL: Running FEP window  14: Lambda1 0.65   Lambda2 0.7000000000000001 [dLambda 0.050000000000000044]
TCL: Setting parameter firsttimestep to 0
TCL: Setting parameter alchLambda to 0.65
Info: NONBONDED TABLE R-SQUARED SPACING: 0.0625
Info: NONBONDED TABLE SIZE: 705 POINTS
TCL: Setting parameter alchLambda2 to 0.7000000000000001
Info: NONBONDED TABLE R-SQUARED SPACING: 0.0625
Info: NONBONDED TABLE SIZE: 705 POINTS
TCL: Running for 1500000 steps
ETITLE: TS BOND ANGLE DIHED IMPRP ELECT VDW BOUNDARY MISC KINETIC TOTAL TEMP POTENTIAL TOTALAVG TEMPAVG PRESSURE GPRESSURE VOLUME PRESSAVG GPRESSAVG
ENERGY: 0 0.0726 1.2283 0.9130 0.0000 -10704.6849 1509.0622 0.0000 0.0000 1755.3930 -7438.0158 304.0805 -9193.4088 -7438.0158 304.0805 660.9395 736.8473 29741.6571 660.9395 736.8473
ENERGY: 300000 0.2659 1.5635 0.5454 0.0000 -10490.8724 1362.0571 0.0000 0.0000 1710.8801 -7415.5604 296.3697 -9126.4405 -7412.2471 302.0979 -637.8290 -670.2274 30381.9695 135.5941 158.8242
ENERGY: 600000 0.0183 2.8340 0.7001 0.0000 -10653.1942 1413.2707 0.0000 0.0000 1696.4868 -7539.8844 293.8764 -9236.3712 -7425.8323 300.5898 -226.2058 -186.0081 29236.0057 -107.9106 -69.2561
ENERGY: 900000 0.1275 2.1793 0.0973 0.0000 -10482.2809 1418.0107 0.0000 0.0000 1761.8112 -7300.0548 305.1923 -9061.8661 -7406.8460 300.7892 370.1130 356.9208 29702.4858 0.8320 41.2110
ENERGY: 1200000 0.1895 0.8557 0.0037 0.0000 -10562.9654 1383.4865 0.0000 0.0000 1715.8449 -7462.5852 297.2297 -9178.4301 -7413.6269 300.1154 -347.3605 -276.9223 29559.8811 -35.1557 12.2184
ENERGY: 1500000 0.4991 3.7765 0.6188 0.0000 -10529.8708 1424.2588 0.0000 0.0000 1737.0985 -7363.6192 300.9114 -9100.7177 -7403.1907 300.5343 -171.3638 -33.8316 30255.9067 -27.5158 28.8313
TCL: Running FEP window  15: Lambda1 0.7000000000000001 Lambda2 0.7500000000000001 [dLambda 0.050000000000000044]
TCL: Setting parameter firsttimestep to 0
TCL: Setting parameter alchLambda to 0.7000000000000001
Info: NONBONDED TABLE R-SQUARED SPACING: 0.0625
Info: NONBONDED TABLE SIZE: 705 POINTS
TCL: Setting parameter alchLambda2 to 0.7500000000000001
Info: NONBONDED TABLE R-SQUARED SPACING: 0.0625
Info: NONBONDED TABLE SIZE: 705 POINTS
TCL: Running for 1500000 steps
ETITLE: TS BOND ANGLE DIHED IMPRP ELECT VDW BOUNDARY MISC KINETIC TOTAL TEMP POTENTIAL TOTALAVG TEMPAVG PRESSURE GPRESSURE VOLUME PRESSAVG GPRESSAVG
ENERGY: 0 0.4991 3.7765 0.6188 0.0000 -10530.0544 1424.2876 0.0000 0.0000 1736.2786 -7364.5938 300.7694 -9100.8724 -7364.5938 300.7694 -110.5475 -29.9744 30255.9067 -110.5475 -29.9744
ENERGY: 300000 0.5931 2.5806 0.4051 0.0000 -10542.4489 1387.6873 0.0000 0.0000 1745.9142 -7405.2685 302.4386 -9151.1827 -7383.7373 299.7938 -364.6606 -245.1599 29903.5475 -162.0244 -106.7634
ENERGY: 600000 0.3352 1.7194 0.2001 0.0000 -10589.3529 1479.7478 0.0000 0.0000 1773.7479 -7333.6025 307.2601 -9107.3504 -7385.1681 300.5161 671.8399 663.9234 29830.8940 135.3823 178.1717
ENERGY: 900000 0.0697 1.8918 0.6434 0.0000 -10515.1469 1417.4619 0.0000 0.0000 1782.1429 -7312.9371 308.7143 -9095.0800 -7380.6368 302.3257 231.0094 316.8971 29508.2130 252.5453 300.4675
ENERGY: 1200000 0.0234 0.5304 0.0384 0.0000 -10725.9928 1530.1618 0.0000 0.0000 1724.5330 -7470.7058 298.7348 -9195.2388 -7389.4448 301.8347 795.2000 840.9167 29468.4542 234.7735 292.4028
ENERGY: 1500000 0.0007 3.4830 0.0190 0.0000 -10582.3078 1477.2916 0.0000 0.0000 1719.0912 -7382.4223 297.7921 -9101.5135 -7391.4799 301.6747 665.9500 687.5714 29727.2386 197.4251 247.2794
TCL: Running FEP window  16: Lambda1 0.7500000000000001 Lambda2 0.8000000000000002 [dLambda 0.050000000000000044]
TCL: Setting parameter firsttimestep to 0
TCL: Setting parameter alchLambda to 0.7500000000000001
Info: NONBONDED TABLE R-SQUARED SPACING: 0.0625
Info: NONBONDED TABLE SIZE: 705 POINTS
TCL: Setting parameter alchLambda2 to 0.8000000000000002
Info: NONBONDED TABLE R-SQUARED SPACING: 0.0625
Info: NONBONDED TABLE SIZE: 705 POINTS
TCL: Running for 1500000 steps
ETITLE: TS BOND ANGLE DIHED IMPRP ELECT VDW BOUNDARY MISC KINETIC TOTAL TEMP POTENTIAL TOTALAVG TEMPAVG PRESSURE GPRESSURE VOLUME PRESSAVG GPRESSAVG
ENERGY: 0 0.0007 3.4830 0.0190 0.0000 -10582.8676 1478.1881 0.0000 0.0000 1718.2604 -7382.9164 297.6482 -9101.1768 -7382.9164 297.6482 612.6194 700.4797 29727.2386 612.6194 700.4797
ENERGY: 300000 0.0410 1.7978 0.0080 0.0000 -10587.5703 1434.2177 0.0000 0.0000 1749.0506 -7402.4552 302.9819 -9151.5058 -7407.6520 297.9376 -268.0437 -232.7948 30528.1499 -235.5152 -168.5613
ENERGY: 600000 0.0598 2.0975 0.0022 0.0000 -10623.2100 1469.8237 0.0000 0.0000 1779.1647 -7372.0621 308.1984 -9151.2268 -7394.1674 300.9639 322.7160 407.1015 29899.3662 -132.4721 -61.7439
ENERGY: 900000 0.0978 0.8395 0.0444 0.0000 -10694.2775 1499.6765 0.0000 0.0000 1703.5338 -7490.0854 295.0971 -9193.6192 -7408.5143 299.3888 584.7717 659.1619 29616.8095 -59.3505 5.5924
ENERGY: 1200000 0.1575 1.4314 0.0144 0.0000 -10394.3497 1322.5631 0.0000 0.0000 1746.4896 -7323.6938 302.5382 -9070.1834 -7406.1223 298.9378 -562.4883 -506.2773 29855.9258 -203.3088 -144.0291
ENERGY: 1500000 0.0032 1.1017 0.2066 0.0000 -10660.9998 1497.8748 0.0000 0.0000 1677.0353 -7484.7782 290.5069 -9161.8135 -7411.2980 298.4603 638.9508 718.2171 29527.0659 -89.3471 -29.5360
TCL: Running FEP window  17: Lambda1 0.8000000000000002 Lambda2 0.8500000000000002 [dLambda 0.050000000000000044]
TCL: Setting parameter firsttimestep to 0
TCL: Setting parameter alchLambda to 0.8000000000000002
Info: NONBONDED TABLE R-SQUARED SPACING: 0.0625
Info: NONBONDED TABLE SIZE: 705 POINTS
TCL: Setting parameter alchLambda2 to 0.8500000000000002
Info: NONBONDED TABLE R-SQUARED SPACING: 0.0625
Info: NONBONDED TABLE SIZE: 705 POINTS
TCL: Running for 1500000 steps
ETITLE: TS BOND ANGLE DIHED IMPRP ELECT VDW BOUNDARY MISC KINETIC TOTAL TEMP POTENTIAL TOTALAVG TEMPAVG PRESSURE GPRESSURE VOLUME PRESSAVG GPRESSAVG
ENERGY: 0 0.0032 1.1017 0.2066 0.0000 -10661.0082 1497.8092 0.0000 0.0000 1676.1441 -7485.7434 290.3525 -9161.8875 -7485.7434 290.3525 641.7449 725.3453 29527.0659 641.7449 725.3453
ENERGY: 300000 0.1052 1.2451 0.0141 0.0000 -10570.1098 1442.7848 0.0000 0.0000 1668.8988 -7457.0618 289.0974 -9125.9606 -7420.1580 292.9352 233.9730 299.9453 29892.1283 -2.6928 48.0135
ENERGY: 600000 0.2527 1.4343 0.1955 0.0000 -10438.7633 1321.9432 0.0000 0.0000 1702.9733 -7411.9642 295.0001 -9114.9375 -7402.9417 295.8286 -851.5050 -706.3156 30031.7119 -109.5731 -59.9371
ENERGY: 900000 1.2019 0.8554 0.4574 0.0000 -10681.7577 1529.6730 0.0000 0.0000 1708.4984 -7441.0717 295.9571 -9149.5700 -7402.6771 297.5714 781.9332 857.1994 29982.8117 37.5961 84.4630
ENERGY: 1200000 0.1921 1.0192 1.3952 0.0000 -10659.5419 1473.4610 0.0000 0.0000 1701.8116 -7481.6627 294.7988 -9183.4743 -7410.7882 297.4209 525.0590 567.5179 29478.1106 -19.2094 26.8310
ENERGY: 1500000 0.0369 1.6386 0.0095 0.0000 -10612.0761 1492.7789 0.0000 0.0000 1752.9345 -7364.6778 303.6547 -9117.6123 -7402.8597 298.9808 734.9442 774.3503 29755.1478 8.9937 61.0407
TCL: Running FEP window  18: Lambda1 0.8500000000000002 Lambda2 0.9000000000000002 [dLambda 0.050000000000000044]
TCL: Setting parameter firsttimestep to 0
TCL: Setting parameter alchLambda to 0.8500000000000002
Info: NONBONDED TABLE R-SQUARED SPACING: 0.0625
Info: NONBONDED TABLE SIZE: 705 POINTS
TCL: Setting parameter alchLambda2 to 0.9000000000000002
Info: NONBONDED TABLE R-SQUARED SPACING: 0.0625
Info: NONBONDED TABLE SIZE: 705 POINTS
TCL: Running for 1500000 steps
ETITLE: TS BOND ANGLE DIHED IMPRP ELECT VDW BOUNDARY MISC KINETIC TOTAL TEMP POTENTIAL TOTALAVG TEMPAVG PRESSURE GPRESSURE VOLUME PRESSAVG GPRESSAVG
ENERGY: 0 0.0369 1.6386 0.0095 0.0000 -10612.4900 1492.8384 0.0000 0.0000 1752.1024 -7365.8642 303.5105 -9117.9666 -7365.8642 303.5105 706.0320 775.8046 29755.1478 706.0320 775.8046
ENERGY: 300000 0.4328 3.0042 1.2744 0.0000 -10602.6129 1421.1509 0.0000 0.0000 1721.3145 -7455.4360 298.1772 -9176.7506 -7408.4814 299.9588 36.3167 187.7243 29595.1099 418.4771 485.4716
ENERGY: 600000 0.1515 1.5036 1.3518 0.0000 -10478.5731 1440.3789 0.0000 0.0000 1711.6707 -7323.5166 296.5067 -9035.1873 -7398.7864 301.0283 288.9696 294.1313 30301.2290 216.8676 264.8063
ENERGY: 900000 0.2149 2.1022 0.0302 0.0000 -10445.8594 1404.1816 0.0000 0.0000 1711.0069 -7328.3236 296.3917 -9039.3305 -7387.3892 301.4791 -32.9716 24.0978 30336.3931 185.3757 234.4671
ENERGY: 1200000 0.0063 2.3389 0.0246 0.0000 -10698.7389 1489.1344 0.0000 0.0000 1735.6091 -7471.6257 300.6534 -9207.2348 -7397.2523 300.7609 183.9615 247.0092 29980.2092 196.6808 242.2488
ENERGY: 1500000 0.2437 2.2400 0.4821 0.0000 -10493.5856 1332.2314 0.0000 0.0000 1673.4561 -7484.9322 289.8869 -9158.3884 -7399.1683 299.7148 -713.0411 -710.2366 30128.3173 59.5606 106.9418
TCL: Running FEP window  19: Lambda1 0.9000000000000002 Lambda2 0.9500000000000003 [dLambda 0.050000000000000044]
TCL: Setting parameter firsttimestep to 0
TCL: Setting parameter alchLambda to 0.9000000000000002
Info: NONBONDED TABLE R-SQUARED SPACING: 0.0625
Info: NONBONDED TABLE SIZE: 705 POINTS
TCL: Setting parameter alchLambda2 to 0.9500000000000003
Info: NONBONDED TABLE R-SQUARED SPACING: 0.0625
Info: NONBONDED TABLE SIZE: 705 POINTS
TCL: Running for 1500000 steps
ETITLE: TS BOND ANGLE DIHED IMPRP ELECT VDW BOUNDARY MISC KINETIC TOTAL TEMP POTENTIAL TOTALAVG TEMPAVG PRESSURE GPRESSURE VOLUME PRESSAVG GPRESSAVG
ENERGY: 0 0.2437 2.2400 0.4821 0.0000 -10494.1400 1332.9130 0.0000 0.0000 1672.6000 -7485.6612 289.7386 -9158.2612 -7485.6612 289.7386 -784.0182 -699.9176 30128.3173 -784.0182 -699.9176
ENERGY: 300000 0.1256 1.0366 0.0485 0.0000 -10532.8700 1434.9930 0.0000 0.0000 1722.5775 -7374.0888 298.3960 -9096.6663 -7413.1668 298.6967 142.4393 195.8465 30006.4017 207.3366 247.7493
ENERGY: 600000 0.0273 4.8567 0.2021 0.0000 -10548.5786 1389.6880 0.0000 0.0000 1719.9751 -7433.8293 297.9452 -9153.8044 -7415.1798 300.5077 -345.4028 -281.2066 29984.6689 -50.0821 -8.6988
ENERGY: 900000 0.1055 1.2655 0.7674 0.0000 -10582.8189 1427.8512 0.0000 0.0000 1694.8690 -7457.9603 293.5962 -9152.8293 -7431.4304 298.9738 -50.9533 66.5023 29751.8920 47.4183 98.7672
ENERGY: 1200000 1.5145 0.8244 0.1574 0.0000 -10487.4723 1319.9408 0.0000 0.0000 1679.9535 -7485.0818 291.0124 -9165.0353 -7431.8198 298.1699 -1086.3309 -997.1959 30067.1959 -102.6480 -46.9176
ENERGY: 1500000 0.0070 1.6780 1.4901 0.0000 -10514.5141 1382.8327 0.0000 0.0000 1733.4975 -7395.0087 300.2877 -9128.5062 -7418.9673 298.1012 -345.8967 -311.5050 29982.9187 -146.8764 -92.9476
TCL: Running FEP window  20: Lambda1 0.9500000000000003 Lambda2 1.0    [dLambda 0.04999999999999971]
TCL: Setting parameter firsttimestep to 0
TCL: Setting parameter alchLambda to 0.9500000000000003
Info: NONBONDED TABLE R-SQUARED SPACING: 0.0625
Info: NONBONDED TABLE SIZE: 705 POINTS
TCL: Setting parameter alchLambda2 to 1.0
Info: NONBONDED TABLE R-SQUARED SPACING: 0.0625
Info: NONBONDED TABLE SIZE: 705 POINTS
TCL: Running for 1500000 steps
ETITLE: TS BOND ANGLE DIHED IMPRP ELECT VDW BOUNDARY MISC KINETIC TOTAL TEMP POTENTIAL TOTALAVG TEMPAVG PRESSURE GPRESSURE VOLUME PRESSAVG GPRESSAVG
ENERGY: 0 0.0070 1.6780 1.4901 0.0000 -10514.8209 1383.0352 0.0000 0.0000 1732.6517 -7395.9590 300.1411 -9128.6107 -7395.9590 300.1411 -390.2088 -302.4879 29982.9187 -390.2088 -302.4879
ENERGY: 300000 0.8778 2.0890 0.6582 0.0000 -10627.0925 1381.5181 0.0000 0.0000 1802.7021 -7439.2473 312.2757 -9241.9495 -7413.1728 306.5663 -517.6603 -460.3960 29841.4945 -102.4269 -40.8944
ENERGY: 600000 0.1937 3.2426 0.2343 0.0000 -10648.0384 1512.4124 0.0000 0.0000 1710.9281 -7421.0273 296.3780 -9131.9554 -7406.4967 303.4461 607.1916 626.7668 29979.8352 -134.9533 -78.0864
ENERGY: 900000 0.2172 0.3581 0.7959 0.0000 -10633.4224 1442.7674 0.0000 0.0000 1799.4997 -7389.7842 311.7210 -9189.2839 -7408.3287 303.0137 -177.3278 -49.5883 30280.2106 18.9088 86.3488
ENERGY: 1200000 2.8130 2.0010 0.3066 0.0000 -10447.5506 1357.6260 0.0000 0.0000 1713.6496 -7371.1545 296.8495 -9084.8041 -7400.9079 302.8507 -571.3072 -499.3519 30445.9844 7.4507 76.0657
ENERGY: 1500000 1.0900 1.7742 0.0320 0.0000 -10523.8515 1390.8447 0.0000 0.0000 1765.5495 -7364.5611 305.8399 -9130.1106 -7396.7270 303.0536 -33.2770 111.4602 29402.0262 22.7350 94.5216
TCL: Exiting due to exit command.
