Info: SIMULATION PARAMETERS:
Info: TIMESTEP               2
Info: NUMBER OF STEPS        0
Info: STEPS PER CYCLE        10
Info: PERIODIC CELL BASIS 1  36.281 0 0
Info: PERIODIC CELL BASIS 2  0 34.1 0
Info: PERIODIC CELL BASIS 3  0 0 35.856
Info: PERIODIC CELL CENTER   0 0 0
Info: WRAPPING WATERS AROUND PERIODIC BOUNDARIES ON OUTPUT.
Info: WRAPPING ALL CLUSTERS AROUND PERIODIC BOUNDARIES ON OUTPUT.
Info: FIRST LDB TIMESTEP     50
Info: LAST LDB TIMESTEP     -1
Info: HOM BACKGROUND SCALING 1
Info: PME BACKGROUND SCALING 1
Info: MIN ATOMS PER PATCH    40
Info: EMPTY PATCH LOAD       40 ATOMS
Info: INITIAL TEMPERATURE    300
Info: CENTER OF MASS MOVING INITIALLY? NO
Info: DIELECTRIC             1
Info: EXCLUDE                SCALED ONE-FOUR
Info: 1-4 ELECTROSTATICS SCALED BY 0.833333
Info: MODIFIED 1-4 VDW PARAMETERS WILL BE USED
Info: DCD FILENAME           mobley_5977084_equil.dcd
Info: DCD FREQUENCY          100000
Info: DCD FIRST STEP         100000
Info: DCD FILE WILL CONTAIN UNIT CELL DATA
Info: XST FILENAME           mobley_5977084_equil.xst
Info: XST FREQUENCY          100000
Info: NO VELOCITY DCD OUTPUT
Info: NO FORCE DCD OUTPUT
Info: OUTPUT FILENAME        mobley_5977084_equil
Info: BINARY OUTPUT FILES WILL BE USED
Info: RESTART FILENAME       mobley_5977084_equil.restart
Info: RESTART FREQUENCY      100000
Info: BINARY RESTART FILES WILL BE USED
Info: CUTOFF                 9
Info: PAIRLIST DISTANCE      11
Info: PAIRLIST SHRINK RATE   0.01
Info: PAIRLIST GROW RATE     0.01
Info: PAIRLIST TRIGGER       0.3
Info: PAIRLISTS PER CYCLE    2
Info: PAIRLISTS ENABLED
Info: MARGIN                 8
Info: HYDROGEN GROUP CUTOFF  2.5
Info: PATCH DIMENSION        21.5
Info: ENERGY OUTPUT STEPS    100000
Info: ENERGY EVALUATION STEPS    100000
Info: OUTPUT ENERGY PRECISION 4
Info: CROSSTERM ENERGY INCLUDED IN DIHEDRAL
Info: TIMING OUTPUT STEPS    1000000
Info: PRESSURE OUTPUT STEPS  100000
Info: LANGEVIN DYNAMICS ACTIVE
Info: LANGEVIN TEMPERATURE   30
Info: LANGEVIN USING BBK INTEGRATOR
Info: LANGEVIN DAMPING COEFFICIENT IS 1 INVERSE PS
Info: LANGEVIN DYNAMICS APPLIED TO HYDROGENS
Info: LANGEVIN PISTON PRESSURE CONTROL ACTIVE
Info:        TARGET PRESSURE IS 1.01325 BAR
Info:     OSCILLATION PERIOD IS 50 FS
Info:             DECAY TIME IS 25 FS
Info:     PISTON TEMPERATURE IS 300 K
Info:       PRESSURE CONTROL IS GROUP-BASED
Info:    INITIAL STRAIN RATE IS 0 0 0
Info:       CELL FLUCTUATION IS ISOTROPIC
Info: PARTICLE MESH EWALD (PME) ACTIVE
Info: PME TOLERANCE               1e-06
Info: PME EWALD COEFFICIENT       0.348832
Info: PME INTERPOLATION ORDER     4
Info: PME GRID DIMENSIONS         40 36 36
Info: PME MAXIMUM GRID SPACING    1
Info: FULL ELECTROSTATIC EVALUATION FREQUENCY      2
Info: USING VERLET I (r-RESPA) MTS SCHEME.
Info: C1 SPLITTING OF LONG RANGE ELECTROSTATICS
Info: PLACING ATOMS IN PATCHES BY HYDROGEN GROUPS
Info: RIGID BONDS TO HYDROGEN : ALL
Info:         ERROR TOLERANCE : 1e-08
Info:          MAX ITERATIONS : 100
Info: RIGID WATER USING SETTLE ALGORITHM
Info: RANDOM NUMBER SEED     1743210751
Info: USE HYDROGEN BONDS?    NO
Info: Using AMBER format force field!
Info: AMBER PARM FILE        mobley_5977084.prmtop
Info: COORDINATE PDB         mobley_5977084.pdb
Info: Exclusions will be read from PARM file!
Info: SCNB (VDW SCALING)     2
Info: USING ARITHMETIC MEAN TO COMBINE L-J SIGMA PARAMETERS
Info: BINARY COORDINATES     mobley_5977084_min.coor
Info: SUMMARY OF PARAMETERS:
Info: 8 BONDS
Info: 9 ANGLES
Info:   9 HARMONIC
Info:   0 COSINE-BASED
Info: 4 DIHEDRAL
Info: 0 IMPROPER
Info: 0 CROSSTERM
Info: 0 VDW
Info: 36 VDW_PAIRS
Info: 0 NBTHOLE_PAIRS
Info: STRUCTURE SUMMARY:
Info: 2927 ATOMS
Info: 2927 BONDS
Info: 22 ANGLES
Info: 31 DIHEDRALS
Info: 0 IMPROPERS
Info: 0 CROSSTERMS
Info: 2972 EXCLUSIONS
Info: 2920 RIGID BONDS
Info: 5861 DEGREES OF FREEDOM
Info: 978 HYDROGEN GROUPS
Info: 4 ATOMS IN LARGEST HYDROGEN GROUP
Info: 978 MIGRATION GROUPS
Info: 4 ATOMS IN LARGEST MIGRATION GROUP
Info: TOTAL MASS = 17586.7 amu
Info: TOTAL CHARGE = 0.000100007 e
Info: MASS DENSITY = 0.658335 g/cm^3
Info: ATOM DENSITY = 0.0659823 atoms/A^3
Info: ADDED 0 IMPLICIT EXCLUSIONS
Info: NONBONDED TABLE R-SQUARED SPACING: 0.0625
Info: NONBONDED TABLE SIZE: 705 POINTS
Info: REMOVING COM VELOCITY 0.0301766 -0.0535931 0.0610793
TCL: Running for 100000 steps
ETITLE: TS BOND ANGLE DIHED IMPRP ELECT VDW BOUNDARY MISC KINETIC TOTAL TEMP POTENTIAL TOTAL3 TEMPAVG PRESSURE GPRESSURE VOLUME PRESSAVG GPRESSAVG
ENERGY: 0 0.2133 0.2066 0.0094 0.0000 -13546.7208 2381.1282 0.0000 0.0000 1779.5302 -9385.6331 305.5794 -11165.1633 -9385.2435 305.5794 336.0273 365.9702 44360.4014 336.0273 365.9702
ENERGY: 100000 0.9805 0.9377 0.3135 0.0000 -14079.0305 2439.7512 0.0000 0.0000 175.2206 -11461.8269 30.0887 -11637.0476 -11461.4208 30.9173 -295.1033 -271.9882 28996.7703 3.3291 3.3459
TCL: Running 100000 steps at 60 kelvin.
TCL: Setting parameter langevinTemp to 60
TCL: Running for 100000 steps
ETITLE: TS BOND ANGLE DIHED IMPRP ELECT VDW BOUNDARY MISC KINETIC TOTAL TEMP POTENTIAL TOTAL3 TEMPAVG PRESSURE GPRESSURE VOLUME PRESSAVG GPRESSAVG
ENERGY: 100000 0.9805 0.9377 0.3135 0.0000 -14079.0305 2439.7512 0.0000 0.0000 175.1362 -11461.9114 30.0742 -11637.0476 -11461.6322 30.0742 -320.2836 -271.7505 28996.7703 -320.2836 -271.7505
ENERGY: 200000 0.4813 1.4805 0.3821 0.0000 -14091.4992 2504.2639 0.0000 0.0000 353.7919 -11231.0995 60.7528 -11584.8914 -11230.4622 60.0009 758.7742 842.1807 28286.9337 1.9644 1.9674
TCL: Running 100000 steps at 90 kelvin.
TCL: Setting parameter langevinTemp to 90
TCL: Running for 100000 steps
ETITLE: TS BOND ANGLE DIHED IMPRP ELECT VDW BOUNDARY MISC KINETIC TOTAL TEMP POTENTIAL TOTAL3 TEMPAVG PRESSURE GPRESSURE VOLUME PRESSAVG GPRESSAVG
ENERGY: 200000 0.4813 1.4805 0.3821 0.0000 -14091.4992 2504.2639 0.0000 0.0000 353.6308 -11231.2606 60.7252 -11584.8914 -11230.5457 60.7252 783.5262 841.7523 28286.9337 783.5262 841.7523
ENERGY: 300000 1.1627 1.4321 1.6005 0.0000 -13754.3217 2279.4609 0.0000 0.0000 534.1139 -10936.5516 91.7176 -11470.6655 -10934.8163 90.1144 -795.3421 -748.5875 28731.6740 4.2357 4.2441
TCL: Running 100000 steps at 120 kelvin.
TCL: Setting parameter langevinTemp to 120
TCL: Running for 100000 steps
ETITLE: TS BOND ANGLE DIHED IMPRP ELECT VDW BOUNDARY MISC KINETIC TOTAL TEMP POTENTIAL TOTAL3 TEMPAVG PRESSURE GPRESSURE VOLUME PRESSAVG GPRESSAVG
ENERGY: 300000 1.1627 1.4321 1.6005 0.0000 -13754.3217 2279.4609 0.0000 0.0000 533.8468 -10936.8187 91.6717 -11470.6655 -10935.6916 91.6717 -797.8331 -748.5943 28731.6740 -797.8331 -748.5943
ENERGY: 400000 0.8963 1.1021 0.4513 0.0000 -13661.4822 2300.5686 0.0000 0.0000 682.2509 -10676.2131 117.1555 -11358.4639 -10674.8776 120.1722 -71.6110 -8.6781 28608.7146 5.1135 5.1322
TCL: Running 100000 steps at 150 kelvin.
TCL: Setting parameter langevinTemp to 150
TCL: Running for 100000 steps
ETITLE: TS BOND ANGLE DIHED IMPRP ELECT VDW BOUNDARY MISC KINETIC TOTAL TEMP POTENTIAL TOTAL3 TEMPAVG PRESSURE GPRESSURE VOLUME PRESSAVG GPRESSAVG
ENERGY: 400000 0.8963 1.1021 0.4513 0.0000 -13661.4822 2300.5686 0.0000 0.0000 681.9118 -10676.5522 117.0973 -11358.4639 -10675.1945 117.0973 -53.7675 -8.5251 28608.7146 -53.7675 -8.5251
ENERGY: 500000 1.1896 3.5507 1.6453 0.0000 -13553.0189 2345.7540 0.0000 0.0000 851.0863 -10349.7930 146.1478 -11200.8793 -10347.0243 149.6509 748.7886 794.4549 28440.6496 4.9448 4.8646
TCL: Running 100000 steps at 180 kelvin.
TCL: Setting parameter langevinTemp to 180
TCL: Running for 100000 steps
ETITLE: TS BOND ANGLE DIHED IMPRP ELECT VDW BOUNDARY MISC KINETIC TOTAL TEMP POTENTIAL TOTAL3 TEMPAVG PRESSURE GPRESSURE VOLUME PRESSAVG GPRESSAVG
ENERGY: 500000 1.1896 3.5507 1.6453 0.0000 -13553.0189 2345.7540 0.0000 0.0000 850.6278 -10350.2515 146.0691 -11200.8793 -10348.9643 146.0691 743.5384 795.1877 28440.6496 743.5384 795.1877
ENERGY: 600000 1.2136 1.8527 0.7281 0.0000 -13067.1920 2160.7781 0.0000 0.0000 1050.4670 -9852.1524 180.3853 -10902.6195 -9849.5745 180.2425 310.2727 323.6170 28781.0788 2.0002 1.9792
TCL: Running 100000 steps at 210 kelvin.
TCL: Setting parameter langevinTemp to 210
TCL: Running for 100000 steps
ETITLE: TS BOND ANGLE DIHED IMPRP ELECT VDW BOUNDARY MISC KINETIC TOTAL TEMP POTENTIAL TOTAL3 TEMPAVG PRESSURE GPRESSURE VOLUME PRESSAVG GPRESSAVG
ENERGY: 600000 1.2136 1.8527 0.7281 0.0000 -13067.1920 2160.7781 0.0000 0.0000 1049.9587 -9852.6608 180.2980 -10902.6195 -9850.4698 180.2980 270.5624 323.5636 28781.0788 270.5624 323.5636
ENERGY: 700000 2.9664 3.7480 2.3463 0.0000 -12351.1654 1849.5217 0.0000 0.0000 1250.9313 -9241.6516 214.8088 -10492.5830 -9237.6398 209.9428 -534.4113 -453.6620 28601.4728 3.7299 3.6246
TCL: Running 100000 steps at 240 kelvin.
TCL: Setting parameter langevinTemp to 240
TCL: Running for 100000 steps
ETITLE: TS BOND ANGLE DIHED IMPRP ELECT VDW BOUNDARY MISC KINETIC TOTAL TEMP POTENTIAL TOTAL3 TEMPAVG PRESSURE GPRESSURE VOLUME PRESSAVG GPRESSAVG
ENERGY: 700000 2.9664 3.7480 2.3463 0.0000 -12351.1654 1849.5217 0.0000 0.0000 1250.3145 -9242.2685 214.7029 -10492.5830 -9240.1153 214.7029 -520.3106 -451.6577 28601.4728 -520.3106 -451.6577
ENERGY: 800000 0.8447 5.1037 5.0449 0.0000 -11748.7046 1699.3469 0.0000 0.0000 1389.5661 -8648.7983 238.6151 -10038.3644 -8643.8454 239.0724 -443.9958 -284.6545 28949.3521 3.3538 3.2636
TCL: Running 100000 steps at 270 kelvin.
TCL: Setting parameter langevinTemp to 270
TCL: Running for 100000 steps
ETITLE: TS BOND ANGLE DIHED IMPRP ELECT VDW BOUNDARY MISC KINETIC TOTAL TEMP POTENTIAL TOTAL3 TEMPAVG PRESSURE GPRESSURE VOLUME PRESSAVG GPRESSAVG
ENERGY: 800000 0.8447 5.1037 5.0449 0.0000 -11748.7046 1699.3469 0.0000 0.0000 1388.8574 -8649.5070 238.4934 -10038.3644 -8647.6046 238.4934 -372.4674 -282.3106 28949.3521 -372.4674 -282.3106
ENERGY: 900000 2.6249 3.7465 1.5800 0.0000 -11169.0469 1522.2309 0.0000 0.0000 1538.8617 -8100.0029 264.2520 -9638.8646 -8095.2132 269.5990 -713.3759 -601.7299 29700.9807 3.4985 3.4898
TCL: Running 1000000 steps at 300 kelvin.
TCL: Setting parameter langevinTemp to 300
TCL: Running for 1000000 steps
ETITLE: TS BOND ANGLE DIHED IMPRP ELECT VDW BOUNDARY MISC KINETIC TOTAL TEMP POTENTIAL TOTAL3 TEMPAVG PRESSURE GPRESSURE VOLUME PRESSAVG GPRESSAVG
ENERGY: 900000 2.6249 3.7465 1.5800 0.0000 -11169.0469 1522.2309 0.0000 0.0000 1538.0775 -8100.7871 264.1173 -9638.8646 -8097.6734 264.1173 -691.7308 -600.1285 29700.9807 -691.7308 -600.1285
ENERGY: 1100000 1.8267 3.6394 2.9424 0.0000 -10547.6623 1425.0212 0.0000 0.0000 1701.7928 -7412.4399 292.2304 -9114.2327 -7407.6715 300.2695 93.7516 164.4222 30300.0779 4.0196 3.9182
ENERGY: 1300000 2.2454 10.1329 0.7397 0.0000 -10710.1756 1516.3997 0.0000 0.0000 1723.8017 -7456.8562 296.0097 -9180.6579 -7452.8793 300.2948 576.7379 679.9566 30143.1138 3.1287 3.2649
ENERGY: 1500000 1.8229 1.0619 0.8855 0.0000 -10435.0926 1318.2677 0.0000 0.0000 1790.8290 -7322.2256 307.5196 -9113.0546 -7318.6786 300.9331 -610.3659 -534.3921 30260.9360 2.5173 2.5034
ENERGY: 1700000 0.9818 3.3258 1.3772 0.0000 -10680.2615 1477.3885 0.0000 0.0000 1714.8412 -7482.3470 294.4710 -9197.1882 -7478.8809 300.1002 283.3072 331.4451 30320.4153 1.9233 1.9017
ENERGY: 1900000 3.0993 5.0136 3.6591 0.0000 -10583.1304 1389.1787 0.0000 0.0000 1740.8096 -7441.3702 298.9303 -9182.1798 -7437.3834 299.5445 -15.8399 58.6721 29714.1847 3.2989 3.5100
TCL: Exiting due to exit command.
