Info: SIMULATION PARAMETERS:
Info: TIMESTEP               2
Info: NUMBER OF STEPS        0
Info: STEPS PER CYCLE        10
Info: PERIODIC CELL BASIS 1  38.861 0 0
Info: PERIODIC CELL BASIS 2  0 34.1 0
Info: PERIODIC CELL BASIS 3  0 0 33.876
Info: PERIODIC CELL CENTER   0 0 0
Info: WRAPPING WATERS AROUND PERIODIC BOUNDARIES ON OUTPUT.
Info: WRAPPING ALL CLUSTERS AROUND PERIODIC BOUNDARIES ON OUTPUT.
Info: FIRST LDB TIMESTEP     50
Info: LAST LDB TIMESTEP     -1
Info: HOM BACKGROUND SCALING 1
Info: PME BACKGROUND SCALING 1
Info: MIN ATOMS PER PATCH    40
Info: EMPTY PATCH LOAD       40 ATOMS
Info: INITIAL TEMPERATURE    300
Info: CENTER OF MASS MOVING INITIALLY? NO
Info: DIELECTRIC             1
Info: EXCLUDE                SCALED ONE-FOUR
Info: 1-4 ELECTROSTATICS SCALED BY 0.833333
Info: MODIFIED 1-4 VDW PARAMETERS WILL BE USED
Info: DCD FILENAME           mobley_1235151_equil.dcd
Info: DCD FREQUENCY          100000
Info: DCD FIRST STEP         100000
Info: DCD FILE WILL CONTAIN UNIT CELL DATA
Info: XST FILENAME           mobley_1235151_equil.xst
Info: XST FREQUENCY          100000
Info: NO VELOCITY DCD OUTPUT
Info: NO FORCE DCD OUTPUT
Info: OUTPUT FILENAME        mobley_1235151_equil
Info: BINARY OUTPUT FILES WILL BE USED
Info: RESTART FILENAME       mobley_1235151_equil.restart
Info: RESTART FREQUENCY      100000
Info: BINARY RESTART FILES WILL BE USED
Info: CUTOFF                 9
Info: PAIRLIST DISTANCE      11
Info: PAIRLIST SHRINK RATE   0.01
Info: PAIRLIST GROW RATE     0.01
Info: PAIRLIST TRIGGER       0.3
Info: PAIRLISTS PER CYCLE    2
Info: PAIRLISTS ENABLED
Info: MARGIN                 8
Info: HYDROGEN GROUP CUTOFF  2.5
Info: PATCH DIMENSION        21.5
Info: ENERGY OUTPUT STEPS    100000
Info: ENERGY EVALUATION STEPS    100000
Info: OUTPUT ENERGY PRECISION 4
Info: CROSSTERM ENERGY INCLUDED IN DIHEDRAL
Info: TIMING OUTPUT STEPS    1000000
Info: PRESSURE OUTPUT STEPS  100000
Info: LANGEVIN DYNAMICS ACTIVE
Info: LANGEVIN TEMPERATURE   30
Info: LANGEVIN USING BBK INTEGRATOR
Info: LANGEVIN DAMPING COEFFICIENT IS 1 INVERSE PS
Info: LANGEVIN DYNAMICS APPLIED TO HYDROGENS
Info: LANGEVIN PISTON PRESSURE CONTROL ACTIVE
Info:        TARGET PRESSURE IS 1.01325 BAR
Info:     OSCILLATION PERIOD IS 50 FS
Info:             DECAY TIME IS 25 FS
Info:     PISTON TEMPERATURE IS 300 K
Info:       PRESSURE CONTROL IS GROUP-BASED
Info:    INITIAL STRAIN RATE IS 0 0 0
Info:       CELL FLUCTUATION IS ISOTROPIC
Info: PARTICLE MESH EWALD (PME) ACTIVE
Info: PME TOLERANCE               1e-06
Info: PME EWALD COEFFICIENT       0.348832
Info: PME INTERPOLATION ORDER     4
Info: PME GRID DIMENSIONS         40 36 36
Info: PME MAXIMUM GRID SPACING    1
Info: FULL ELECTROSTATIC EVALUATION FREQUENCY      2
Info: USING VERLET I (r-RESPA) MTS SCHEME.
Info: C1 SPLITTING OF LONG RANGE ELECTROSTATICS
Info: PLACING ATOMS IN PATCHES BY HYDROGEN GROUPS
Info: RIGID BONDS TO HYDROGEN : ALL
Info:         ERROR TOLERANCE : 1e-08
Info:          MAX ITERATIONS : 100
Info: RIGID WATER USING SETTLE ALGORITHM
Info: RANDOM NUMBER SEED     1743253465
Info: USE HYDROGEN BONDS?    NO
Info: Using AMBER format force field!
Info: AMBER PARM FILE        mobley_1235151.prmtop
Info: COORDINATE PDB         mobley_1235151.pdb
Info: Exclusions will be read from PARM file!
Info: SCNB (VDW SCALING)     2
Info: USING ARITHMETIC MEAN TO COMBINE L-J SIGMA PARAMETERS
Info: BINARY COORDINATES     mobley_1235151_min.coor
Info: SUMMARY OF PARAMETERS:
Info: 7 BONDS
Info: 9 ANGLES
Info: 7 DIHEDRAL
Info: 0 IMPROPER
Info: 0 CROSSTERM
Info: 0 VDW
Info: 28 VDW_PAIRS
Info: 0 NBTHOLE_PAIRS
Info: STRUCTURE SUMMARY:
Info: 2929 ATOMS
Info: 2928 BONDS
Info: 33 ANGLES
Info: 46 DIHEDRALS
Info: 0 IMPROPERS
Info: 0 CROSSTERMS
Info: 3003 EXCLUSIONS
Info: 2921 RIGID BONDS
Info: 5866 DEGREES OF FREEDOM
Info: 978 HYDROGEN GROUPS
Info: 4 ATOMS IN LARGEST HYDROGEN GROUP
Info: 978 MIGRATION GROUPS
Info: 4 ATOMS IN LARGEST MIGRATION GROUP
Info: TOTAL MASS = 17592.7 amu
Info: TOTAL CHARGE = -9.99942e-05 e
Info: MASS DENSITY = 0.650774 g/cm^3
Info: ATOM DENSITY = 0.0652468 atoms/A^3
Info: ADDED 0 IMPLICIT EXCLUSIONS
Info: NONBONDED TABLE R-SQUARED SPACING: 0.0625
Info: NONBONDED TABLE SIZE: 705 POINTS
Info: REMOVING COM VELOCITY 0.108341 -0.0493205 0.213712
TCL: Running for 100000 steps
ETITLE: TS BOND ANGLE DIHED IMPRP ELECT VDW BOUNDARY MISC KINETIC TOTAL TEMP POTENTIAL TOTAL3 TEMPAVG PRESSURE GPRESSURE VOLUME PRESSAVG GPRESSAVG
ENERGY: 0 0.0304 0.2952 0.8186 0.0000 -13518.4832 2399.7028 0.0000 0.0000 1717.5258 -9400.1104 294.6806 -11117.6362 -9399.7737 294.6806 559.1144 593.9025 44891.1235 559.1144 593.9025
ENERGY: 100000 0.3180 0.7888 1.2304 0.0000 -13959.6993 2333.3213 0.0000 0.0000 169.5069 -11454.5339 29.0828 -11624.0408 -11453.8351 30.9396 -925.1334 -846.7030 28912.2238 5.2118 5.1939
TCL: Running 100000 steps at 60 kelvin.
TCL: Setting parameter langevinTemp to 60
TCL: Running for 100000 steps
ETITLE: TS BOND ANGLE DIHED IMPRP ELECT VDW BOUNDARY MISC KINETIC TOTAL TEMP POTENTIAL TOTAL3 TEMPAVG PRESSURE GPRESSURE VOLUME PRESSAVG GPRESSAVG
ENERGY: 100000 0.3180 0.7888 1.2304 0.0000 -13959.6993 2333.3213 0.0000 0.0000 169.4181 -11454.6227 29.0675 -11624.0408 -11454.1486 29.0675 -909.7449 -846.6696 28912.2238 -909.7449 -846.6696
ENERGY: 200000 0.4389 2.0401 0.8917 0.0000 -13939.6692 2339.7614 0.0000 0.0000 360.2890 -11236.2481 61.8158 -11596.5372 -11235.2433 60.0661 -766.6757 -711.1869 28681.3957 3.6351 3.6819
TCL: Running 100000 steps at 90 kelvin.
TCL: Setting parameter langevinTemp to 90
TCL: Running for 100000 steps
ETITLE: TS BOND ANGLE DIHED IMPRP ELECT VDW BOUNDARY MISC KINETIC TOTAL TEMP POTENTIAL TOTAL3 TEMPAVG PRESSURE GPRESSURE VOLUME PRESSAVG GPRESSAVG
ENERGY: 200000 0.4389 2.0401 0.8917 0.0000 -13939.6692 2339.7614 0.0000 0.0000 360.1152 -11236.4219 61.7860 -11596.5372 -11235.4501 61.7860 -766.2187 -711.4944 28681.3957 -766.2187 -711.4944
ENERGY: 300000 0.3438 1.6064 0.9383 0.0000 -13916.9797 2424.0355 0.0000 0.0000 528.7102 -10961.3456 90.7123 -11490.0558 -10960.3573 90.1546 354.7228 401.2166 28552.8643 4.0381 3.9907
TCL: Running 100000 steps at 120 kelvin.
TCL: Setting parameter langevinTemp to 120
TCL: Running for 100000 steps
ETITLE: TS BOND ANGLE DIHED IMPRP ELECT VDW BOUNDARY MISC KINETIC TOTAL TEMP POTENTIAL TOTAL3 TEMPAVG PRESSURE GPRESSURE VOLUME PRESSAVG GPRESSAVG
ENERGY: 300000 0.3438 1.6064 0.9383 0.0000 -13916.9797 2424.0355 0.0000 0.0000 528.4562 -10961.5996 90.6687 -11490.0558 -10960.3484 90.6687 347.3867 400.8918 28552.8643 347.3867 400.8918
ENERGY: 400000 1.7955 5.7594 1.2443 0.0000 -13648.8818 2292.0961 0.0000 0.0000 705.5070 -10642.4795 121.0458 -11347.9864 -10640.9942 119.8459 -464.5618 -415.0503 28819.2687 3.5015 3.6090
TCL: Running 100000 steps at 150 kelvin.
TCL: Setting parameter langevinTemp to 150
TCL: Running for 100000 steps
ETITLE: TS BOND ANGLE DIHED IMPRP ELECT VDW BOUNDARY MISC KINETIC TOTAL TEMP POTENTIAL TOTAL3 TEMPAVG PRESSURE GPRESSURE VOLUME PRESSAVG GPRESSAVG
ENERGY: 400000 1.7955 5.7594 1.2443 0.0000 -13648.8818 2292.0961 0.0000 0.0000 705.1570 -10642.8294 120.9857 -11347.9864 -10641.4441 120.9857 -477.9680 -415.5026 28819.2687 -477.9680 -415.5026
ENERGY: 500000 1.1666 6.5240 1.2374 0.0000 -13546.5336 2344.9384 0.0000 0.0000 904.9094 -10287.7579 155.2578 -11192.6672 -10284.7735 150.1028 927.9553 927.9293 28770.2802 4.2241 4.2675
TCL: Running 100000 steps at 180 kelvin.
TCL: Setting parameter langevinTemp to 180
TCL: Running for 100000 steps
ETITLE: TS BOND ANGLE DIHED IMPRP ELECT VDW BOUNDARY MISC KINETIC TOTAL TEMP POTENTIAL TOTAL3 TEMPAVG PRESSURE GPRESSURE VOLUME PRESSAVG GPRESSAVG
ENERGY: 500000 1.1666 6.5240 1.2374 0.0000 -13546.5336 2344.9384 0.0000 0.0000 904.4765 -10288.1907 155.1835 -11192.6672 -10286.7358 155.1835 889.1947 928.5380 28770.2802 889.1947 928.5380
ENERGY: 600000 0.9335 6.5967 1.7401 0.0000 -12853.9840 2019.7328 0.0000 0.0000 1062.4115 -9762.5696 182.2809 -10824.9811 -9760.4921 179.8406 -548.3267 -529.9504 29070.0757 3.9516 4.1549
TCL: Running 100000 steps at 210 kelvin.
TCL: Setting parameter langevinTemp to 210
TCL: Running for 100000 steps
ETITLE: TS BOND ANGLE DIHED IMPRP ELECT VDW BOUNDARY MISC KINETIC TOTAL TEMP POTENTIAL TOTAL3 TEMPAVG PRESSURE GPRESSURE VOLUME PRESSAVG GPRESSAVG
ENERGY: 600000 0.9335 6.5967 1.7401 0.0000 -12853.9840 2019.7328 0.0000 0.0000 1061.9030 -9763.0781 182.1936 -10824.9811 -9760.7702 182.1936 -578.3443 -530.0413 29070.0757 -578.3443 -530.0413
ENERGY: 700000 0.9903 3.5942 1.5508 0.0000 -12172.9308 1792.1925 0.0000 0.0000 1246.7665 -9127.8364 213.9112 -10374.6029 -9123.7283 210.2231 -530.3789 -462.2777 28660.9786 4.5653 4.6081
TCL: Running 100000 steps at 240 kelvin.
TCL: Setting parameter langevinTemp to 240
TCL: Running for 100000 steps
ETITLE: TS BOND ANGLE DIHED IMPRP ELECT VDW BOUNDARY MISC KINETIC TOTAL TEMP POTENTIAL TOTAL3 TEMPAVG PRESSURE GPRESSURE VOLUME PRESSAVG GPRESSAVG
ENERGY: 700000 0.9903 3.5942 1.5508 0.0000 -12172.9308 1792.1925 0.0000 0.0000 1246.1449 -9128.4581 213.8045 -10374.6029 -9126.1860 213.8045 -525.0094 -462.0985 28660.9786 -525.0094 -462.0985
ENERGY: 800000 3.5230 3.3278 1.3789 0.0000 -11669.6106 1714.0417 0.0000 0.0000 1428.9825 -8518.3568 245.1745 -9947.3393 -8515.6788 239.8603 727.7181 779.1250 28465.5188 2.3155 2.4730
TCL: Running 100000 steps at 270 kelvin.
TCL: Setting parameter langevinTemp to 270
TCL: Running for 100000 steps
ETITLE: TS BOND ANGLE DIHED IMPRP ELECT VDW BOUNDARY MISC KINETIC TOTAL TEMP POTENTIAL TOTAL3 TEMPAVG PRESSURE GPRESSURE VOLUME PRESSAVG GPRESSAVG
ENERGY: 800000 3.5230 3.3278 1.3789 0.0000 -11669.6106 1714.0417 0.0000 0.0000 1428.2843 -8519.0550 245.0547 -9947.3393 -8516.8679 245.0547 710.0556 777.5247 28465.5188 710.0556 777.5247
ENERGY: 900000 1.1003 9.4600 2.0198 0.0000 -11017.9842 1474.5871 0.0000 0.0000 1552.5543 -7978.2627 266.3760 -9530.8169 -7975.4829 270.3758 -429.9564 -344.6552 29219.1093 2.8021 2.7573
TCL: Running 1000000 steps at 300 kelvin.
TCL: Setting parameter langevinTemp to 300
TCL: Running for 1000000 steps
ETITLE: TS BOND ANGLE DIHED IMPRP ELECT VDW BOUNDARY MISC KINETIC TOTAL TEMP POTENTIAL TOTAL3 TEMPAVG PRESSURE GPRESSURE VOLUME PRESSAVG GPRESSAVG
ENERGY: 900000 1.1003 9.4600 2.0198 0.0000 -11017.9842 1474.5871 0.0000 0.0000 1551.7626 -7979.0544 266.2402 -9530.8169 -7976.3758 266.2402 -434.6212 -344.5784 29219.1093 -434.6212 -344.5784
ENERGY: 1100000 2.0207 7.9874 2.4957 0.0000 -10661.2986 1445.5629 0.0000 0.0000 1790.8502 -7412.3817 307.2611 -9203.2319 -7409.8552 300.6602 -12.7939 70.9175 30219.7058 2.8734 2.8479
ENERGY: 1300000 6.3289 6.5595 2.1594 0.0000 -10701.2010 1484.6701 0.0000 0.0000 1749.8914 -7451.5917 300.2337 -9201.4831 -7449.1256 300.4130 440.8893 435.7965 29701.2798 1.7473 1.8788
ENERGY: 1500000 3.5731 8.6142 1.3396 0.0000 -10477.5610 1380.4278 0.0000 0.0000 1752.4125 -7331.1938 300.6662 -9083.6063 -7324.9968 300.2091 -429.0043 -239.7656 30381.6555 3.4573 3.6809
ENERGY: 1700000 2.7171 9.2229 1.6505 0.0000 -10608.6478 1462.4822 0.0000 0.0000 1776.7507 -7355.8242 304.8420 -9132.5749 -7353.2085 299.8193 475.7201 503.0026 30241.4004 3.7133 3.5193
ENERGY: 1900000 2.4547 5.8917 3.3092 0.0000 -10568.1012 1404.9455 0.0000 0.0000 1792.2747 -7359.2255 307.5055 -9151.5002 -7356.6610 299.5660 -18.2021 19.9962 30008.9600 2.2326 2.1557
TCL: Exiting due to exit command.
