Info: SIMULATION PARAMETERS:
Info: TIMESTEP               2
Info: NUMBER OF STEPS        0
Info: STEPS PER CYCLE        10
Info: PERIODIC CELL BASIS 1  35.89 0 0
Info: PERIODIC CELL BASIS 2  0 34.26 0
Info: PERIODIC CELL BASIS 3  0 0 35.856
Info: PERIODIC CELL CENTER   0 0 0
Info: WRAPPING WATERS AROUND PERIODIC BOUNDARIES ON OUTPUT.
Info: WRAPPING ALL CLUSTERS AROUND PERIODIC BOUNDARIES ON OUTPUT.
Info: FIRST LDB TIMESTEP     50
Info: LAST LDB TIMESTEP     -1
Info: HOM BACKGROUND SCALING 1
Info: PME BACKGROUND SCALING 1
Info: MIN ATOMS PER PATCH    40
Info: EMPTY PATCH LOAD       40 ATOMS
Info: INITIAL TEMPERATURE    300
Info: CENTER OF MASS MOVING INITIALLY? NO
Info: DIELECTRIC             1
Info: EXCLUDE                SCALED ONE-FOUR
Info: 1-4 ELECTROSTATICS SCALED BY 0.833333
Info: MODIFIED 1-4 VDW PARAMETERS WILL BE USED
Info: DCD FILENAME           mobley_8746821_equil.dcd
Info: DCD FREQUENCY          100000
Info: DCD FIRST STEP         100000
Info: DCD FILE WILL CONTAIN UNIT CELL DATA
Info: XST FILENAME           mobley_8746821_equil.xst
Info: XST FREQUENCY          100000
Info: NO VELOCITY DCD OUTPUT
Info: NO FORCE DCD OUTPUT
Info: OUTPUT FILENAME        mobley_8746821_equil
Info: BINARY OUTPUT FILES WILL BE USED
Info: RESTART FILENAME       mobley_8746821_equil.restart
Info: RESTART FREQUENCY      100000
Info: BINARY RESTART FILES WILL BE USED
Info: CUTOFF                 9
Info: PAIRLIST DISTANCE      11
Info: PAIRLIST SHRINK RATE   0.01
Info: PAIRLIST GROW RATE     0.01
Info: PAIRLIST TRIGGER       0.3
Info: PAIRLISTS PER CYCLE    2
Info: PAIRLISTS ENABLED
Info: MARGIN                 8
Info: HYDROGEN GROUP CUTOFF  2.5
Info: PATCH DIMENSION        21.5
Info: ENERGY OUTPUT STEPS    100000
Info: ENERGY EVALUATION STEPS    100000
Info: OUTPUT ENERGY PRECISION 4
Info: CROSSTERM ENERGY INCLUDED IN DIHEDRAL
Info: TIMING OUTPUT STEPS    1000000
Info: PRESSURE OUTPUT STEPS  100000
Info: LANGEVIN DYNAMICS ACTIVE
Info: LANGEVIN TEMPERATURE   30
Info: LANGEVIN USING BBK INTEGRATOR
Info: LANGEVIN DAMPING COEFFICIENT IS 1 INVERSE PS
Info: LANGEVIN DYNAMICS APPLIED TO HYDROGENS
Info: LANGEVIN PISTON PRESSURE CONTROL ACTIVE
Info:        TARGET PRESSURE IS 1.01325 BAR
Info:     OSCILLATION PERIOD IS 50 FS
Info:             DECAY TIME IS 25 FS
Info:     PISTON TEMPERATURE IS 300 K
Info:       PRESSURE CONTROL IS GROUP-BASED
Info:    INITIAL STRAIN RATE IS 0 0 0
Info:       CELL FLUCTUATION IS ISOTROPIC
Info: PARTICLE MESH EWALD (PME) ACTIVE
Info: PME TOLERANCE               1e-06
Info: PME EWALD COEFFICIENT       0.348832
Info: PME INTERPOLATION ORDER     4
Info: PME GRID DIMENSIONS         36 36 36
Info: PME MAXIMUM GRID SPACING    1
Info: FULL ELECTROSTATIC EVALUATION FREQUENCY      2
Info: USING VERLET I (r-RESPA) MTS SCHEME.
Info: C1 SPLITTING OF LONG RANGE ELECTROSTATICS
Info: PLACING ATOMS IN PATCHES BY HYDROGEN GROUPS
Info: RIGID BONDS TO HYDROGEN : ALL
Info:         ERROR TOLERANCE : 1e-08
Info:          MAX ITERATIONS : 100
Info: RIGID WATER USING SETTLE ALGORITHM
Info: RANDOM NUMBER SEED     1743214817
Info: USE HYDROGEN BONDS?    NO
Info: Using AMBER format force field!
Info: AMBER PARM FILE        mobley_8746821.prmtop
Info: COORDINATE PDB         mobley_8746821.pdb
Info: Exclusions will be read from PARM file!
Info: SCNB (VDW SCALING)     2
Info: USING ARITHMETIC MEAN TO COMBINE L-J SIGMA PARAMETERS
Info: BINARY COORDINATES     mobley_8746821_min.coor
Info: SUMMARY OF PARAMETERS:
Info: 8 BONDS
Info: 10 ANGLES
Info:   10 HARMONIC
Info:   0 COSINE-BASED
Info: 4 DIHEDRAL
Info: 0 IMPROPER
Info: 0 CROSSTERM
Info: 0 VDW
Info: 36 VDW_PAIRS
Info: 0 NBTHOLE_PAIRS
Info: STRUCTURE SUMMARY:
Info: 2924 ATOMS
Info: 2924 BONDS
Info: 28 ANGLES
Info: 37 DIHEDRALS
Info: 0 IMPROPERS
Info: 0 CROSSTERMS
Info: 2981 EXCLUSIONS
Info: 2916 RIGID BONDS
Info: 5856 DEGREES OF FREEDOM
Info: 977 HYDROGEN GROUPS
Info: 4 ATOMS IN LARGEST HYDROGEN GROUP
Info: 977 MIGRATION GROUPS
Info: 4 ATOMS IN LARGEST MIGRATION GROUP
Info: TOTAL MASS = 17564.7 amu
Info: TOTAL CHARGE = 0.000100052 e
Info: MASS DENSITY = 0.661571 g/cm^3
Info: ATOM DENSITY = 0.0663216 atoms/A^3
Info: ADDED 0 IMPLICIT EXCLUSIONS
Info: NONBONDED TABLE R-SQUARED SPACING: 0.0625
Info: NONBONDED TABLE SIZE: 705 POINTS
Info: REMOVING COM VELOCITY -0.1393 -0.0628437 0.0327619
TCL: Running for 100000 steps
ETITLE: TS BOND ANGLE DIHED IMPRP ELECT VDW BOUNDARY MISC KINETIC TOTAL TEMP POTENTIAL TOTAL3 TEMPAVG PRESSURE GPRESSURE VOLUME PRESSAVG GPRESSAVG
ENERGY: 0 0.2681 0.3599 0.0307 0.0000 -13554.8817 2387.2959 0.0000 0.0000 1737.6497 -9429.2775 298.6424 -11166.9271 -9428.9525 298.6424 344.2281 376.2165 44088.2292 344.2281 376.2165
ENERGY: 100000 0.4118 0.8630 0.3305 0.0000 -14118.0004 2459.2297 0.0000 0.0000 175.5757 -11481.5898 30.1754 -11657.1655 -11480.9753 30.8971 24.5105 88.2938 28566.9523 4.5785 4.6673
TCL: Running 100000 steps at 60 kelvin.
TCL: Setting parameter langevinTemp to 60
TCL: Running for 100000 steps
ETITLE: TS BOND ANGLE DIHED IMPRP ELECT VDW BOUNDARY MISC KINETIC TOTAL TEMP POTENTIAL TOTAL3 TEMPAVG PRESSURE GPRESSURE VOLUME PRESSAVG GPRESSAVG
ENERGY: 100000 0.4118 0.8630 0.3305 0.0000 -14118.0004 2459.2297 0.0000 0.0000 175.4916 -11481.6738 30.1610 -11657.1655 -11481.3222 30.1610 30.4750 88.4422 28566.9523 30.4750 88.4422
ENERGY: 200000 1.0143 2.3173 0.5014 0.0000 -14011.1110 2451.4598 0.0000 0.0000 344.2035 -11211.6146 59.1568 -11555.8181 -11210.7999 59.9541 431.5800 505.5372 28271.3128 5.0417 5.0049
TCL: Running 100000 steps at 90 kelvin.
TCL: Setting parameter langevinTemp to 90
TCL: Running for 100000 steps
ETITLE: TS BOND ANGLE DIHED IMPRP ELECT VDW BOUNDARY MISC KINETIC TOTAL TEMP POTENTIAL TOTAL3 TEMPAVG PRESSURE GPRESSURE VOLUME PRESSAVG GPRESSAVG
ENERGY: 200000 1.0143 2.3173 0.5014 0.0000 -14011.1110 2451.4598 0.0000 0.0000 344.0301 -11211.7880 59.1270 -11555.8181 -11211.1398 59.1270 458.2393 505.7522 28271.3128 458.2393 505.7522
ENERGY: 300000 1.2927 1.0078 0.4616 0.0000 -13843.5507 2380.6676 0.0000 0.0000 522.2256 -10937.8953 89.7527 -11460.1209 -10937.0823 89.8879 73.8798 135.0578 28411.2698 3.8935 3.8948
TCL: Running 100000 steps at 120 kelvin.
TCL: Setting parameter langevinTemp to 120
TCL: Running for 100000 steps
ETITLE: TS BOND ANGLE DIHED IMPRP ELECT VDW BOUNDARY MISC KINETIC TOTAL TEMP POTENTIAL TOTAL3 TEMPAVG PRESSURE GPRESSURE VOLUME PRESSAVG GPRESSAVG
ENERGY: 300000 1.2927 1.0078 0.4616 0.0000 -13843.5507 2380.6676 0.0000 0.0000 521.9697 -10938.1512 89.7087 -11460.1209 -10937.1467 89.7087 78.1640 134.5517 28411.2698 78.1640 134.5517
ENERGY: 400000 0.3715 3.1287 1.2924 0.0000 -13823.3492 2468.8726 0.0000 0.0000 733.7713 -10615.9126 126.1102 -11349.6840 -10614.1474 120.0093 1502.6850 1521.3432 28184.8134 4.8923 4.8565
TCL: Running 100000 steps at 150 kelvin.
TCL: Setting parameter langevinTemp to 150
TCL: Running for 100000 steps
ETITLE: TS BOND ANGLE DIHED IMPRP ELECT VDW BOUNDARY MISC KINETIC TOTAL TEMP POTENTIAL TOTAL3 TEMPAVG PRESSURE GPRESSURE VOLUME PRESSAVG GPRESSAVG
ENERGY: 400000 0.3715 3.1287 1.2924 0.0000 -13823.3492 2468.8726 0.0000 0.0000 733.4308 -10616.2532 126.0516 -11349.6840 -10614.9479 126.0516 1461.5404 1521.6519 28184.8134 1461.5404 1521.6519
ENERGY: 500000 2.0166 3.7927 2.9466 0.0000 -13437.4582 2247.2469 0.0000 0.0000 909.5199 -10271.9355 156.3153 -11181.4555 -10269.6603 149.8992 -52.5170 -6.6648 28820.5408 4.3055 4.2608
TCL: Running 100000 steps at 180 kelvin.
TCL: Setting parameter langevinTemp to 180
TCL: Running for 100000 steps
ETITLE: TS BOND ANGLE DIHED IMPRP ELECT VDW BOUNDARY MISC KINETIC TOTAL TEMP POTENTIAL TOTAL3 TEMPAVG PRESSURE GPRESSURE VOLUME PRESSAVG GPRESSAVG
ENERGY: 500000 2.0166 3.7927 2.9466 0.0000 -13437.4582 2247.2469 0.0000 0.0000 909.0750 -10272.3805 156.2388 -11181.4555 -10271.2703 156.2388 -76.7471 -5.9341 28820.5408 -76.7471 -5.9341
ENERGY: 600000 2.1884 3.0268 1.1068 0.0000 -12955.7288 2052.0394 0.0000 0.0000 1048.5913 -9848.7761 180.2169 -10897.3674 -9846.5715 180.1515 -290.3503 -228.1424 28476.0913 3.6965 3.5533
TCL: Running 100000 steps at 210 kelvin.
TCL: Setting parameter langevinTemp to 210
TCL: Running for 100000 steps
ETITLE: TS BOND ANGLE DIHED IMPRP ELECT VDW BOUNDARY MISC KINETIC TOTAL TEMP POTENTIAL TOTAL3 TEMPAVG PRESSURE GPRESSURE VOLUME PRESSAVG GPRESSAVG
ENERGY: 600000 2.1884 3.0268 1.1068 0.0000 -12955.7288 2052.0394 0.0000 0.0000 1048.0829 -9849.2844 180.1295 -10897.3674 -9846.7245 180.1295 -298.7379 -229.9954 28476.0913 -298.7379 -229.9954
ENERGY: 700000 1.2991 4.2788 1.2399 0.0000 -12335.7298 1872.5638 0.0000 0.0000 1189.4245 -9266.9237 204.4213 -10456.3482 -9265.2961 209.7128 -201.0635 -86.2110 28339.1882 4.0556 4.0144
TCL: Running 100000 steps at 240 kelvin.
TCL: Setting parameter langevinTemp to 240
TCL: Running for 100000 steps
ETITLE: TS BOND ANGLE DIHED IMPRP ELECT VDW BOUNDARY MISC KINETIC TOTAL TEMP POTENTIAL TOTAL3 TEMPAVG PRESSURE GPRESSURE VOLUME PRESSAVG GPRESSAVG
ENERGY: 700000 1.2991 4.2788 1.2399 0.0000 -12335.7298 1872.5638 0.0000 0.0000 1188.7824 -9267.5658 204.3110 -10456.3482 -9265.1613 204.3110 -170.8878 -87.4574 28339.1882 -170.8878 -87.4574
ENERGY: 800000 2.5123 3.6834 1.1352 0.0000 -11834.8262 1747.8092 0.0000 0.0000 1391.5268 -8688.1593 239.1558 -10079.6861 -8685.9596 239.8822 98.1954 153.2611 28566.8816 4.4711 4.4690
TCL: Running 100000 steps at 270 kelvin.
TCL: Setting parameter langevinTemp to 270
TCL: Running for 100000 steps
ETITLE: TS BOND ANGLE DIHED IMPRP ELECT VDW BOUNDARY MISC KINETIC TOTAL TEMP POTENTIAL TOTAL3 TEMPAVG PRESSURE GPRESSURE VOLUME PRESSAVG GPRESSAVG
ENERGY: 800000 2.5123 3.6834 1.1352 0.0000 -11834.8262 1747.8092 0.0000 0.0000 1390.8302 -8688.8560 239.0361 -10079.6861 -8686.3645 239.0361 80.1244 152.7723 28566.8816 80.1244 152.7723
ENERGY: 900000 3.8720 3.1299 1.4002 0.0000 -11121.1310 1519.1974 0.0000 0.0000 1544.2364 -8049.2950 265.4013 -9593.5314 -8044.1218 269.9812 -470.7519 -426.6880 29414.2947 4.6054 4.2377
TCL: Running 1000000 steps at 300 kelvin.
TCL: Setting parameter langevinTemp to 300
TCL: Running for 1000000 steps
ETITLE: TS BOND ANGLE DIHED IMPRP ELECT VDW BOUNDARY MISC KINETIC TOTAL TEMP POTENTIAL TOTAL3 TEMPAVG PRESSURE GPRESSURE VOLUME PRESSAVG GPRESSAVG
ENERGY: 900000 3.8720 3.1299 1.4002 0.0000 -11121.1310 1519.1974 0.0000 0.0000 1543.4229 -8050.1085 265.2615 -9593.5314 -8047.4897 265.2615 -507.5132 -425.3754 29414.2947 -507.5132 -425.3754
ENERGY: 1100000 2.8604 8.1899 1.3498 0.0000 -10384.4963 1273.1442 0.0000 0.0000 1745.2229 -7353.7292 299.9440 -9098.9521 -7349.4983 299.8173 -1371.1952 -1377.2452 30922.3267 3.2265 3.2672
ENERGY: 1300000 4.0848 7.8943 1.9185 0.0000 -10614.9874 1446.4243 0.0000 0.0000 1729.4020 -7425.2634 297.2250 -9154.6655 -7423.4588 300.1440 216.0371 243.3296 30071.0253 2.4290 2.4527
ENERGY: 1500000 4.0683 6.4793 2.0392 0.0000 -10652.6818 1397.7797 0.0000 0.0000 1743.1771 -7499.1381 299.5924 -9242.3152 -7496.2133 300.4672 -405.9205 -329.2300 29968.3374 2.9727 3.0019
ENERGY: 1700000 4.9255 4.7925 1.4357 0.0000 -10374.7442 1325.2362 0.0000 0.0000 1743.9932 -7294.3611 299.7327 -9038.3543 -7290.2784 300.0174 -723.5372 -700.2232 30813.2598 2.1683 1.9992
ENERGY: 1900000 2.9475 6.5816 3.4292 0.0000 -10631.2186 1369.6973 0.0000 0.0000 1693.2557 -7555.3073 291.0126 -9248.5630 -7551.0569 300.1816 -435.9887 -391.4325 29790.9738 3.3824 3.4794
TCL: Exiting due to exit command.
