Info: SIMULATION PARAMETERS:
Info: TIMESTEP               2
Info: NUMBER OF STEPS        0
Info: STEPS PER CYCLE        10
Info: PERIODIC CELL BASIS 1  31.7121 0 0
Info: PERIODIC CELL BASIS 2  0 31.5729 0
Info: PERIODIC CELL BASIS 3  0 0 30.5451
Info: PERIODIC CELL CENTER   0 0 0
Info: WRAPPING WATERS AROUND PERIODIC BOUNDARIES ON OUTPUT.
Info: WRAPPING ALL CLUSTERS AROUND PERIODIC BOUNDARIES ON OUTPUT.
Info: FIRST LDB TIMESTEP     50
Info: LAST LDB TIMESTEP     -1
Info: HOM BACKGROUND SCALING 1
Info: PME BACKGROUND SCALING 1
Info: MIN ATOMS PER PATCH    40
Info: EMPTY PATCH LOAD       40 ATOMS
Info: VELOCITY FILE          mobley_2493732_equil.vel
Info: CENTER OF MASS MOVING INITIALLY? NO
Info: DIELECTRIC             1
Info: EXCLUDE                SCALED ONE-FOUR
Info: 1-4 ELECTROSTATICS SCALED BY 0.833333
Info: MODIFIED 1-4 VDW PARAMETERS WILL BE USED
Info: DCD FILENAME           mobley_2493732_prod.dcd
Info: DCD FREQUENCY          100000
Info: DCD FIRST STEP         100000
Info: DCD FILE WILL CONTAIN UNIT CELL DATA
Info: XST FILENAME           mobley_2493732_prod.xst
Info: XST FREQUENCY          100000
Info: NO VELOCITY DCD OUTPUT
Info: NO FORCE DCD OUTPUT
Info: OUTPUT FILENAME        mobley_2493732_prod
Info: BINARY OUTPUT FILES WILL BE USED
Info: RESTART FILENAME       mobley_2493732_prod.restart
Info: RESTART FREQUENCY      100000
Info: BINARY RESTART FILES WILL BE USED
Info: CUTOFF                 9
Info: PAIRLIST DISTANCE      11
Info: PAIRLIST SHRINK RATE   0.01
Info: PAIRLIST GROW RATE     0.01
Info: PAIRLIST TRIGGER       0.3
Info: PAIRLISTS PER CYCLE    2
Info: PAIRLISTS ENABLED
Info: MARGIN                 2
Info: HYDROGEN GROUP CUTOFF  2.5
Info: PATCH DIMENSION        15.5
Info: ENERGY OUTPUT STEPS    100000
Info: ENERGY EVALUATION STEPS    100000
Info: OUTPUT ENERGY PRECISION 4
Info: CROSSTERM ENERGY INCLUDED IN DIHEDRAL
Info: TIMING OUTPUT STEPS    1000000
Info: PRESSURE OUTPUT STEPS  100000
Info: ALCHEMICAL FEP ON
Info: FEP CURRENT LAMBDA VALUE     0
Info: FEP COMPARISON LAMBDA VALUE  0.05
Info: FEP INTRA-ALCHEMICAL NON-BONDED INTERACTIONS WILL BE RETAINED
Info: FEP INTRA-ALCHEMICAL BONDED INTERACTIONS WILL BE RETAINED
Info: FEP VDW SHIFTING COEFFICIENT 5
Info: FEP ELEC. ACTIVE FOR ANNIHILATED PARTICLES BETWEEN LAMBDA = 0 AND LAMBDA = 0.5
Info: FEP ELEC. ACTIVE FOR EXNIHILATED PARTICLES BETWEEN LAMBDA = 0.5 AND LAMBDA = 1
Info: FEP VDW ACTIVE FOR ANNIHILATED PARTICLES BETWEEN LAMBDA = 0 AND LAMBDA = 1
Info: FEP VDW ACTIVE FOR EXNIHILATED PARTICLES BETWEEN LAMBDA = 0 AND LAMBDA = 1
Info: FEP BOND ACTIVE FOR ANNIHILATED PARTICLES BETWEEN LAMBDA = 1 AND LAMBDA = 1
Info: FEP BOND ACTIVE FOR EXNIHILATED PARTICLES BETWEEN LAMBDA = 0 AND LAMBDA = 0
Info: LANGEVIN DYNAMICS ACTIVE
Info: LANGEVIN TEMPERATURE   300
Info: LANGEVIN USING BBK INTEGRATOR
Info: LANGEVIN DAMPING COEFFICIENT IS 1 INVERSE PS
Info: LANGEVIN DYNAMICS APPLIED TO HYDROGENS
Info: LANGEVIN PISTON PRESSURE CONTROL ACTIVE
Info:        TARGET PRESSURE IS 1.01325 BAR
Info:     OSCILLATION PERIOD IS 50 FS
Info:             DECAY TIME IS 25 FS
Info:     PISTON TEMPERATURE IS 300 K
Info:       PRESSURE CONTROL IS GROUP-BASED
Info:    INITIAL STRAIN RATE IS 0.000152889 0.000152889 0.000152889
Info:       CELL FLUCTUATION IS ISOTROPIC
Info: PARTICLE MESH EWALD (PME) ACTIVE
Info: PME TOLERANCE               1e-06
Info: PME EWALD COEFFICIENT       0.348832
Info: PME INTERPOLATION ORDER     4
Info: PME GRID DIMENSIONS         32 32 32
Info: PME MAXIMUM GRID SPACING    1
Info: PME CALCULATION WILL BE PERFORMED ON GPU
Info: FULL ELECTROSTATIC EVALUATION FREQUENCY      2
Info: USING VERLET I (r-RESPA) MTS SCHEME.
Info: C1 SPLITTING OF LONG RANGE ELECTROSTATICS
Info: PLACING ATOMS IN PATCHES BY HYDROGEN GROUPS
Info: RIGID BONDS TO HYDROGEN : ALL
Info:         ERROR TOLERANCE : 1e-08
Info:          MAX ITERATIONS : 100
Info: RIGID WATER USING SETTLE ALGORITHM
Info: RANDOM NUMBER SEED     1743466686
Info: USE HYDROGEN BONDS?    NO
Info: Using AMBER format force field!
Info: AMBER PARM FILE        mobley_2493732.prmtop
Info: COORDINATE PDB         mobley_2493732.pdb
Info: Exclusions will be read from PARM file!
Info: SCNB (VDW SCALING)     2
Info: USING ARITHMETIC MEAN TO COMBINE L-J SIGMA PARAMETERS
Info: BINARY COORDINATES     mobley_2493732_equil.coor
Info: SUMMARY OF PARAMETERS:
Info: 5 BONDS
Info: 4 ANGLES
Info:   4 HARMONIC
Info:   0 COSINE-BASED
Info: 2 DIHEDRAL
Info: 0 IMPROPER
Info: 0 CROSSTERM
Info: 0 VDW
Info: 15 VDW_PAIRS
Info: 0 NBTHOLE_PAIRS
Info: To read alchdata from file: mobley_2493732.pdb
Info: To read alchflag data from column: 5
Info: STRUCTURE SUMMARY:
Info: 2940 ATOMS
Info: 2939 BONDS
Info: 6 ANGLES
Info: 6 DIHEDRALS
Info: 0 IMPROPERS
Info: 0 CROSSTERMS
Info: 2949 EXCLUSIONS
Info: 2936 RIGID BONDS
Info: ALCH: 0 ATOMS TO DISAPPEAR IN FINAL STATE
Info: ALCH: 6 ATOMS TO APPEAR IN FINAL STATE
Info: 5884 DEGREES OF FREEDOM
Info: 982 HYDROGEN GROUPS
Info: 3 ATOMS IN LARGEST HYDROGEN GROUP
Info: 982 MIGRATION GROUPS
Info: 3 ATOMS IN LARGEST MIGRATION GROUP
Info: TOTAL MASS = 17716.6 amu
Info: TOTAL CHARGE = 0.000100017 e
Info: MASS DENSITY = 0.961961 g/cm^3
Info: ATOM DENSITY = 0.0961315 atoms/A^3
Info: ADDED 0 IMPLICIT EXCLUSIONS
Info: NONBONDED TABLE R-SQUARED SPACING: 0.0625
Info: NONBONDED TABLE SIZE: 705 POINTS
Info: REDUCING NUMBER OF PATCHES TO IMPROVE LOAD BALANCE
Info: REMOVING COM VELOCITY -0.12391 0.102671 -0.0549985
Info: Use 3D box decompostion in PME FFT.
Info: Updated CUDA force table with 4096 elements.
Info: Updated CUDA LJ table with 5 x 5 elements.
Info: Found 9 unique exclusion lists needing 12 bytes
TCL: Running for 1500000 steps
ETITLE: TS BOND ANGLE DIHED IMPRP ELECT VDW BOUNDARY MISC KINETIC TOTAL TEMP POTENTIAL TOTALAVG TEMPAVG PRESSURE GPRESSURE VOLUME PRESSAVG GPRESSAVG
ENERGY: 0 1.4279 0.3894 0.3999 0.0000 -10592.6610 1398.8598 0.0000 0.0000 1727.0249 -7464.5591 295.4040 -9191.5839 -7464.5591 295.4040 -365.8953 -286.2129 30583.1047 -365.8953 -286.2129
ENERGY: 300000 1.7369 0.5248 0.0630 0.0000 -10551.0051 1408.6406 0.0000 0.0000 1766.9415 -7373.0982 302.2316 -9140.0397 -7443.8056 302.6058 -282.4253 -189.6402 30764.0107 -207.5767 -156.6367
ENERGY: 600000 0.8526 1.6997 1.3747 0.0000 -10724.1916 1512.6558 0.0000 0.0000 1737.8715 -7469.7373 297.2592 -9207.6088 -7466.8036 302.5593 1059.3961 1106.5903 29554.6508 -79.0406 -24.2825
ENERGY: 900000 1.1044 0.4128 0.7457 0.0000 -10550.9949 1331.6034 0.0000 0.0000 1722.1427 -7494.9859 294.5689 -9217.1285 -7469.9646 300.7670 -949.8561 -878.2507 30785.0445 -242.0355 -187.2526
ENERGY: 1200000 2.4124 0.4638 1.0193 0.0000 -10813.6017 1503.5728 0.0000 0.0000 1731.7266 -7574.4068 296.2082 -9306.1334 -7480.2701 300.5868 33.6300 124.0970 30529.6430 -235.3266 -173.6287
ENERGY: 1500000 0.4362 1.4363 1.1586 0.0000 -10669.5525 1441.4977 0.0000 0.0000 1733.6142 -7491.4094 296.5311 -9225.0236 -7483.8545 300.3357 74.4487 146.9444 30009.5094 -176.2019 -118.5669
TCL: Running FEP window   2: Lambda1 0.05   Lambda2 0.1    [dLambda 0.05  ]
TCL: Setting parameter firsttimestep to 0
TCL: Setting parameter alchLambda to 0.05
Info: NONBONDED TABLE R-SQUARED SPACING: 0.0625
Info: NONBONDED TABLE SIZE: 705 POINTS
TCL: Setting parameter alchLambda2 to 0.1
Info: NONBONDED TABLE R-SQUARED SPACING: 0.0625
Info: NONBONDED TABLE SIZE: 705 POINTS
TCL: Running for 1500000 steps
ETITLE: TS BOND ANGLE DIHED IMPRP ELECT VDW BOUNDARY MISC KINETIC TOTAL TEMP POTENTIAL TOTALAVG TEMPAVG PRESSURE GPRESSURE VOLUME PRESSAVG GPRESSAVG
ENERGY: 0 0.4362 1.4363 1.1586 0.0000 -10669.5525 1444.2394 0.0000 0.0000 1732.7193 -7489.5627 296.3780 -9222.2820 -7489.5627 296.3780 44.3912 155.0424 30009.5094 44.3912 155.0424
ENERGY: 300000 0.4343 0.5744 0.2726 0.0000 -10610.8463 1412.8369 0.0000 0.0000 1772.6719 -7424.0563 303.2118 -9196.7283 -7482.7094 301.6877 78.4431 118.6884 29971.2763 90.2998 163.2363
ENERGY: 600000 0.9356 0.2679 0.5997 0.0000 -10666.5746 1480.5465 0.0000 0.0000 1783.5994 -7400.6254 305.0809 -9184.2248 -7480.5622 301.5074 406.7583 446.0526 30269.1766 -35.2794 21.2215
ENERGY: 900000 2.1345 1.7370 1.3512 0.0000 -10730.1933 1474.9819 0.0000 0.0000 1770.3621 -7479.6266 302.8167 -9249.9887 -7469.7410 302.5208 387.4454 414.5576 29853.7610 6.6141 69.0730
ENERGY: 1200000 0.4029 1.6814 0.2113 0.0000 -10604.8098 1355.9630 0.0000 0.0000 1731.3191 -7515.2321 296.1385 -9246.5511 -7482.3692 301.3721 -609.6348 -533.0305 30113.9423 -19.9068 38.4727
ENERGY: 1500000 0.6776 0.7148 1.2678 0.0000 -10609.1429 1351.5339 0.0000 0.0000 1767.8227 -7487.1262 302.3823 -9254.9489 -7482.2420 300.8190 -736.9308 -668.6917 30229.2370 -13.4776 45.0708
TCL: Running FEP window   3: Lambda1 0.1    Lambda2 0.15000000000000002 [dLambda 0.05000000000000002]
TCL: Setting parameter firsttimestep to 0
TCL: Setting parameter alchLambda to 0.1
Info: NONBONDED TABLE R-SQUARED SPACING: 0.0625
Info: NONBONDED TABLE SIZE: 705 POINTS
TCL: Setting parameter alchLambda2 to 0.15000000000000002
Info: NONBONDED TABLE R-SQUARED SPACING: 0.0625
Info: NONBONDED TABLE SIZE: 705 POINTS
TCL: Running for 1500000 steps
ETITLE: TS BOND ANGLE DIHED IMPRP ELECT VDW BOUNDARY MISC KINETIC TOTAL TEMP POTENTIAL TOTALAVG TEMPAVG PRESSURE GPRESSURE VOLUME PRESSAVG GPRESSAVG
ENERGY: 0 0.6776 0.7148 1.2678 0.0000 -10609.1431 1353.9513 0.0000 0.0000 1766.9598 -7485.5718 302.2348 -9252.5316 -7485.5718 302.2348 -740.9768 -660.7108 30229.2370 -740.9768 -660.7108
ENERGY: 300000 0.0304 1.4116 3.7932 0.0000 -10693.0614 1467.5156 0.0000 0.0000 1708.9026 -7511.4079 292.3042 -9220.3105 -7486.9734 298.3327 203.1302 266.0797 30371.6903 -120.4208 -40.4518
ENERGY: 600000 2.1429 1.9950 0.8858 0.0000 -10710.6003 1508.4258 0.0000 0.0000 1767.1493 -7430.0015 302.2672 -9197.1508 -7480.1615 299.8884 916.2040 1043.5400 29920.5004 53.7593 146.5335
ENERGY: 900000 1.6013 3.2637 0.8740 0.0000 -10593.7252 1323.5650 0.0000 0.0000 1750.7917 -7513.6295 299.4692 -9264.4212 -7490.3737 299.2806 -1068.5644 -959.8814 30305.6574 -63.3761 33.2893
ENERGY: 1200000 1.1013 1.3924 0.0428 0.0000 -10659.8027 1414.8981 0.0000 0.0000 1775.0768 -7467.2913 303.6231 -9242.3681 -7484.0234 299.2915 2.5136 27.5278 30020.0628 -155.6410 -71.2010
ENERGY: 1500000 0.3906 1.8660 1.8494 0.0000 -10669.8689 1432.3415 0.0000 0.0000 1758.8018 -7474.6195 300.8393 -9233.4213 -7477.2961 300.1283 170.1284 126.6355 30060.0006 -130.5238 -56.7461
TCL: Running FEP window   4: Lambda1 0.15000000000000002 Lambda2 0.2    [dLambda 0.04999999999999999]
TCL: Setting parameter firsttimestep to 0
TCL: Setting parameter alchLambda to 0.15000000000000002
Info: NONBONDED TABLE R-SQUARED SPACING: 0.0625
Info: NONBONDED TABLE SIZE: 705 POINTS
TCL: Setting parameter alchLambda2 to 0.2
Info: NONBONDED TABLE R-SQUARED SPACING: 0.0625
Info: NONBONDED TABLE SIZE: 705 POINTS
TCL: Running for 1500000 steps
ETITLE: TS BOND ANGLE DIHED IMPRP ELECT VDW BOUNDARY MISC KINETIC TOTAL TEMP POTENTIAL TOTALAVG TEMPAVG PRESSURE GPRESSURE VOLUME PRESSAVG GPRESSAVG
ENERGY: 0 0.3906 1.8660 1.8494 0.0000 -10669.8679 1433.1362 0.0000 0.0000 1757.9156 -7474.7099 300.6878 -9232.6255 -7474.7099 300.6878 51.6510 132.9299 30060.0006 51.6510 132.9299
ENERGY: 300000 0.0758 1.3045 2.3902 0.0000 -10731.2725 1465.3473 0.0000 0.0000 1747.2339 -7514.9209 298.8607 -9262.1548 -7487.2024 299.2135 419.3118 449.9244 29626.4075 273.1483 317.5250
ENERGY: 600000 0.4983 0.7393 0.1504 0.0000 -10734.3335 1524.3272 0.0000 0.0000 1720.4138 -7488.2045 294.2731 -9208.6183 -7500.0269 298.2673 623.7309 754.6458 30445.2260 141.1006 218.6265
ENERGY: 900000 0.6397 1.4647 0.1307 0.0000 -10761.9561 1481.1169 0.0000 0.0000 1720.8865 -7557.7176 294.3540 -9278.6041 -7506.9397 298.1255 295.2562 285.1173 30154.0866 0.8463 62.0965
ENERGY: 1200000 0.1299 0.7517 1.3737 0.0000 -10540.8599 1340.9875 0.0000 0.0000 1709.3496 -7488.2675 292.3806 -9197.6171 -7502.4095 297.6046 -632.9711 -600.9852 30312.7553 23.6856 77.2823
ENERGY: 1500000 1.4789 1.4238 1.2174 0.0000 -10609.5864 1404.0864 0.0000 0.0000 1700.7453 -7500.6346 290.9089 -9201.3799 -7509.9014 296.5504 -289.3563 -262.1828 30465.6725 -52.0535 3.8734
TCL: Running FEP window   5: Lambda1 0.2    Lambda2 0.25   [dLambda 0.04999999999999999]
TCL: Setting parameter firsttimestep to 0
TCL: Setting parameter alchLambda to 0.2
Info: NONBONDED TABLE R-SQUARED SPACING: 0.0625
Info: NONBONDED TABLE SIZE: 705 POINTS
TCL: Setting parameter alchLambda2 to 0.25
Info: NONBONDED TABLE R-SQUARED SPACING: 0.0625
Info: NONBONDED TABLE SIZE: 705 POINTS
TCL: Running for 1500000 steps
ETITLE: TS BOND ANGLE DIHED IMPRP ELECT VDW BOUNDARY MISC KINETIC TOTAL TEMP POTENTIAL TOTALAVG TEMPAVG PRESSURE GPRESSURE VOLUME PRESSAVG GPRESSAVG
ENERGY: 0 1.4789 1.4238 1.2174 0.0000 -10609.5874 1403.9290 0.0000 0.0000 1699.8463 -7501.6920 290.7551 -9201.5383 -7501.6920 290.7551 -335.6471 -261.8105 30465.6725 -335.6471 -261.8105
ENERGY: 300000 3.2778 0.2242 0.2401 0.0000 -10747.8973 1458.8000 0.0000 0.0000 1776.7564 -7508.5988 303.9104 -9285.3552 -7503.4902 300.0995 88.4471 124.9939 30480.6258 -30.6744 32.2601
ENERGY: 600000 2.8437 0.2234 0.4550 0.0000 -10672.9896 1401.1242 0.0000 0.0000 1787.6648 -7480.6785 305.7763 -9268.3433 -7487.9803 302.7369 -623.2217 -571.8166 30708.2208 -77.3557 -14.8763
ENERGY: 900000 0.1400 3.6889 0.9776 0.0000 -10737.2798 1463.8632 0.0000 0.0000 1752.9901 -7515.6200 299.8452 -9268.6101 -7492.2129 302.0563 320.4786 459.5690 29852.7877 -54.6784 17.4128
ENERGY: 1200000 0.2699 0.9630 0.8531 0.0000 -10690.8918 1446.4717 0.0000 0.0000 1735.8089 -7506.5252 296.9065 -9242.3342 -7494.9955 300.8543 158.9425 223.2384 30017.9737 -24.5146 42.6482
ENERGY: 1500000 4.6163 1.6285 1.7311 0.0000 -10556.4175 1374.2102 0.0000 0.0000 1786.1903 -7388.0411 305.5241 -9174.2314 -7488.6299 300.6788 -234.3683 -198.7527 30197.6395 -30.2242 35.3166
TCL: Running FEP window   6: Lambda1 0.25   Lambda2 0.3    [dLambda 0.04999999999999999]
TCL: Setting parameter firsttimestep to 0
TCL: Setting parameter alchLambda to 0.25
Info: NONBONDED TABLE R-SQUARED SPACING: 0.0625
Info: NONBONDED TABLE SIZE: 705 POINTS
TCL: Setting parameter alchLambda2 to 0.3
Info: NONBONDED TABLE R-SQUARED SPACING: 0.0625
Info: NONBONDED TABLE SIZE: 705 POINTS
TCL: Running for 1500000 steps
ETITLE: TS BOND ANGLE DIHED IMPRP ELECT VDW BOUNDARY MISC KINETIC TOTAL TEMP POTENTIAL TOTALAVG TEMPAVG PRESSURE GPRESSURE VOLUME PRESSAVG GPRESSAVG
ENERGY: 0 4.6163 1.6285 1.7311 0.0000 -10556.4176 1374.2196 0.0000 0.0000 1785.3349 -7388.8871 305.3778 -9174.2220 -7388.8871 305.3778 -278.8466 -197.1044 30197.6395 -278.8466 -197.1044
ENERGY: 300000 0.6286 0.5097 0.4448 0.0000 -10626.8993 1403.0908 0.0000 0.0000 1769.1778 -7453.0476 302.6141 -9222.2254 -7450.3627 302.8028 -79.3998 -47.2098 30432.2917 -41.1787 1.9263
ENERGY: 600000 0.4604 0.7194 0.2178 0.0000 -10589.4932 1318.8638 0.0000 0.0000 1742.8286 -7526.4032 298.1072 -9269.2318 -7490.3898 300.3471 -1212.8851 -1122.2557 30560.2838 -212.9322 -154.2168
ENERGY: 900000 0.0328 0.3226 0.3219 0.0000 -10658.4871 1420.8490 0.0000 0.0000 1800.3062 -7436.6545 307.9386 -9236.9608 -7480.0402 301.0410 -336.2025 -245.4728 30862.2354 -231.3283 -173.0185
ENERGY: 1200000 0.7725 0.8043 0.1191 0.0000 -10598.9010 1391.9436 0.0000 0.0000 1754.5662 -7450.6953 300.1148 -9205.2615 -7482.0724 301.1210 -438.5191 -354.6466 30769.6313 -208.8811 -148.1708
ENERGY: 1500000 0.0426 0.2192 2.5940 0.0000 -10748.2275 1466.8313 0.0000 0.0000 1771.1424 -7507.3979 302.9502 -9278.5403 -7477.2537 300.8148 -3.5323 86.4700 30265.9788 -177.7586 -116.1027
TCL: Running FEP window   7: Lambda1 0.3    Lambda2 0.35   [dLambda 0.04999999999999999]
TCL: Setting parameter firsttimestep to 0
TCL: Setting parameter alchLambda to 0.3
Info: NONBONDED TABLE R-SQUARED SPACING: 0.0625
Info: NONBONDED TABLE SIZE: 705 POINTS
TCL: Setting parameter alchLambda2 to 0.35
Info: NONBONDED TABLE R-SQUARED SPACING: 0.0625
Info: NONBONDED TABLE SIZE: 705 POINTS
TCL: Running for 1500000 steps
ETITLE: TS BOND ANGLE DIHED IMPRP ELECT VDW BOUNDARY MISC KINETIC TOTAL TEMP POTENTIAL TOTALAVG TEMPAVG PRESSURE GPRESSURE VOLUME PRESSAVG GPRESSAVG
ENERGY: 0 0.0426 0.2192 2.5940 0.0000 -10748.2271 1467.2541 0.0000 0.0000 1770.3149 -7507.8023 302.8086 -9278.1172 -7507.8023 302.8086 9.4704 94.5030 30265.9788 9.4704 94.5030
ENERGY: 300000 1.0218 2.0490 1.7666 0.0000 -10733.4670 1429.4903 0.0000 0.0000 1781.3309 -7517.8084 304.6929 -9299.1393 -7475.3443 306.1250 -208.1968 -122.1577 30154.1943 -157.5119 -85.1946
ENERGY: 600000 0.2550 1.8819 0.3836 0.0000 -10473.5265 1406.1782 0.0000 0.0000 1778.1333 -7286.6944 304.1460 -9064.8278 -7460.9810 304.5079 84.3010 162.1648 30734.0191 139.6510 201.1170
ENERGY: 900000 3.0625 2.5227 0.2482 0.0000 -10524.8382 1367.7900 0.0000 0.0000 1813.1887 -7338.0262 310.1421 -9151.2149 -7437.5654 305.0298 -255.6260 -184.9657 30106.2736 77.1341 125.9757
ENERGY: 1200000 0.7132 0.9426 0.5219 0.0000 -10701.2731 1430.9976 0.0000 0.0000 1722.6931 -7545.4047 294.6630 -9268.0978 -7450.2371 303.4248 -202.5533 -86.5879 30330.4289 30.5828 83.5046
ENERGY: 1500000 0.5203 1.2875 1.0224 0.0000 -10679.8704 1480.7695 0.0000 0.0000 1755.4558 -7440.8148 300.2670 -9196.2706 -7457.2360 302.3698 263.5871 312.3908 30522.8403 -19.3853 29.4389
TCL: Running FEP window   8: Lambda1 0.35   Lambda2 0.39999999999999997 [dLambda 0.04999999999999999]
TCL: Setting parameter firsttimestep to 0
TCL: Setting parameter alchLambda to 0.35
Info: NONBONDED TABLE R-SQUARED SPACING: 0.0625
Info: NONBONDED TABLE SIZE: 705 POINTS
TCL: Setting parameter alchLambda2 to 0.39999999999999997
Info: NONBONDED TABLE R-SQUARED SPACING: 0.0625
Info: NONBONDED TABLE SIZE: 705 POINTS
TCL: Running for 1500000 steps
ETITLE: TS BOND ANGLE DIHED IMPRP ELECT VDW BOUNDARY MISC KINETIC TOTAL TEMP POTENTIAL TOTALAVG TEMPAVG PRESSURE GPRESSURE VOLUME PRESSAVG GPRESSAVG
ENERGY: 0 0.5203 1.2875 1.0224 0.0000 -10679.8705 1480.6410 0.0000 0.0000 1754.5867 -7441.8126 300.1184 -9196.3993 -7441.8126 300.1184 237.2508 313.4428 30522.8403 237.2508 313.4428
ENERGY: 300000 1.0085 0.6633 0.9107 0.0000 -10761.5201 1465.6965 0.0000 0.0000 1708.7679 -7584.4732 292.2811 -9293.2411 -7454.6986 301.1305 91.0959 139.1937 29906.2030 112.7407 160.9308
ENERGY: 600000 0.8752 1.8877 1.3320 0.0000 -10678.0038 1408.2628 0.0000 0.0000 1744.2830 -7521.3631 298.3559 -9265.6460 -7496.6925 299.2723 99.1426 181.2908 29890.5587 53.9488 116.2575
ENERGY: 900000 0.2375 1.1023 0.1773 0.0000 -10673.1757 1454.9221 0.0000 0.0000 1758.8214 -7457.9152 300.8427 -9216.7365 -7495.1942 299.6279 167.2506 223.0079 30377.4800 80.0116 134.8148
ENERGY: 1200000 0.8438 0.1771 4.6338 0.0000 -10731.7236 1443.7147 0.0000 0.0000 1730.1699 -7552.1843 295.9419 -9282.3542 -7496.1672 299.1993 -177.4168 -137.1598 30232.0313 81.0590 138.0708
ENERGY: 1500000 1.9776 1.7105 0.5448 0.0000 -10765.0550 1499.9116 0.0000 0.0000 1747.9157 -7512.9949 298.9773 -9260.9106 -7498.4761 298.7015 519.8608 551.7711 30062.4797 55.7488 112.5063
TCL: Running FEP window   9: Lambda1 0.39999999999999997 Lambda2 0.44999999999999996 [dLambda 0.04999999999999999]
TCL: Setting parameter firsttimestep to 0
TCL: Setting parameter alchLambda to 0.39999999999999997
Info: NONBONDED TABLE R-SQUARED SPACING: 0.0625
Info: NONBONDED TABLE SIZE: 705 POINTS
TCL: Setting parameter alchLambda2 to 0.44999999999999996
Info: NONBONDED TABLE R-SQUARED SPACING: 0.0625
Info: NONBONDED TABLE SIZE: 705 POINTS
TCL: Running for 1500000 steps
ETITLE: TS BOND ANGLE DIHED IMPRP ELECT VDW BOUNDARY MISC KINETIC TOTAL TEMP POTENTIAL TOTALAVG TEMPAVG PRESSURE GPRESSURE VOLUME PRESSAVG GPRESSAVG
ENERGY: 0 1.9776 1.7105 0.5448 0.0000 -10765.0545 1500.6584 0.0000 0.0000 1747.0094 -7513.1539 298.8223 -9260.1632 -7513.1539 298.8223 479.3600 558.4597 30062.4797 479.3600 558.4597
ENERGY: 300000 0.6297 0.7093 1.3979 0.0000 -10586.9418 1426.4589 0.0000 0.0000 1747.3323 -7410.4137 298.8775 -9157.7460 -7482.3115 298.8910 7.0698 75.9684 30501.8845 171.4939 239.2053
ENERGY: 600000 0.8886 1.4180 0.1887 0.0000 -10615.9526 1342.0986 0.0000 0.0000 1793.3216 -7478.0372 306.7439 -9271.3588 -7475.9298 300.7274 -633.2077 -571.3730 29975.2960 -65.1359 -8.8656
ENERGY: 900000 0.8249 1.0411 0.8290 0.0000 -10539.8164 1408.4266 0.0000 0.0000 1820.5473 -7308.1474 311.4008 -9128.6947 -7466.5452 301.3667 -238.4845 -120.5514 30999.0671 -186.6102 -130.7329
ENERGY: 1200000 2.9788 0.6488 1.0344 0.0000 -10690.8285 1464.9638 0.0000 0.0000 1734.0277 -7487.1750 296.6018 -9221.2027 -7466.8118 301.3548 290.7853 356.8791 30412.9425 -88.4235 -30.5522
ENERGY: 1500000 0.8176 1.2986 0.9730 0.0000 -10465.6909 1334.9631 0.0000 0.0000 1685.0685 -7442.5701 288.2274 -9127.6386 -7462.2777 300.6410 -731.7006 -695.1426 31030.7154 -159.9820 -108.0094
TCL: Running FEP window  10: Lambda1 0.44999999999999996 Lambda2 0.49999999999999994 [dLambda 0.04999999999999999]
TCL: Setting parameter firsttimestep to 0
TCL: Setting parameter alchLambda to 0.44999999999999996
Info: NONBONDED TABLE R-SQUARED SPACING: 0.0625
Info: NONBONDED TABLE SIZE: 705 POINTS
TCL: Setting parameter alchLambda2 to 0.49999999999999994
Info: NONBONDED TABLE R-SQUARED SPACING: 0.0625
Info: NONBONDED TABLE SIZE: 705 POINTS
TCL: Running for 1500000 steps
ETITLE: TS BOND ANGLE DIHED IMPRP ELECT VDW BOUNDARY MISC KINETIC TOTAL TEMP POTENTIAL TOTALAVG TEMPAVG PRESSURE GPRESSURE VOLUME PRESSAVG GPRESSAVG
ENERGY: 0 0.8176 1.2986 0.9730 0.0000 -10465.6914 1334.8792 0.0000 0.0000 1684.1886 -7443.5344 288.0769 -9127.7231 -7443.5344 288.0769 -775.6727 -692.5479 31030.7154 -775.6727 -692.5479
ENERGY: 300000 0.7133 0.5152 0.3118 0.0000 -10667.1037 1403.9347 0.0000 0.0000 1738.6433 -7522.9854 297.3913 -9261.6287 -7464.0642 297.5365 -285.3338 -253.4665 30224.0960 -384.4210 -335.0208
ENERGY: 600000 1.5908 1.2975 1.0309 0.0000 -10687.9605 1467.3980 0.0000 0.0000 1750.9882 -7465.6551 299.5028 -9216.6433 -7463.5219 297.3699 289.5785 342.2162 30286.4386 -217.1455 -147.7044
ENERGY: 900000 0.4480 0.6611 1.0255 0.0000 -10687.1961 1428.6757 0.0000 0.0000 1770.9727 -7485.4132 302.9211 -9256.3859 -7462.0359 299.6282 37.1762 92.3201 30087.2659 -131.1856 -67.6930
ENERGY: 1200000 0.8833 1.2455 1.0982 0.0000 -10646.7843 1410.9320 0.0000 0.0000 1755.9483 -7476.6769 300.3513 -9232.6253 -7471.4774 300.2505 -108.4131 -39.7603 29994.2061 -79.7692 -16.4416
ENERGY: 1500000 0.6758 1.3924 1.0124 0.0000 -10719.1529 1444.0908 0.0000 0.0000 1710.1637 -7561.8178 292.5199 -9271.9814 -7492.4279 298.9018 -307.9208 -225.5080 30572.7533 -87.7916 -22.1760
TCL: Running FEP window  11: Lambda1 0.49999999999999994 Lambda2 0.5499999999999999 [dLambda 0.04999999999999999]
TCL: Setting parameter firsttimestep to 0
TCL: Setting parameter alchLambda to 0.49999999999999994
Info: NONBONDED TABLE R-SQUARED SPACING: 0.0625
Info: NONBONDED TABLE SIZE: 705 POINTS
TCL: Setting parameter alchLambda2 to 0.5499999999999999
Info: NONBONDED TABLE R-SQUARED SPACING: 0.0625
Info: NONBONDED TABLE SIZE: 705 POINTS
TCL: Running for 1500000 steps
ETITLE: TS BOND ANGLE DIHED IMPRP ELECT VDW BOUNDARY MISC KINETIC TOTAL TEMP POTENTIAL TOTALAVG TEMPAVG PRESSURE GPRESSURE VOLUME PRESSAVG GPRESSAVG
ENERGY: 0 0.6758 1.3924 1.0124 0.0000 -10719.1532 1444.0662 0.0000 0.0000 1709.3078 -7562.6985 292.3735 -9272.0063 -7562.6985 292.3735 -302.2705 -220.0689 30572.7533 -302.2705 -220.0689
ENERGY: 300000 0.3370 0.5117 1.1082 0.0000 -10646.7063 1404.0435 0.0000 0.0000 1752.3081 -7488.3979 299.7286 -9240.7059 -7504.0183 298.3579 -202.7304 -127.6454 30154.2721 -276.2528 -194.0205
ENERGY: 600000 4.4772 0.5529 0.4451 0.0000 -10535.7339 1362.3478 0.0000 0.0000 1770.3237 -7397.5873 302.8101 -9167.9110 -7494.7588 298.3820 -506.2001 -400.3880 30802.7903 -299.9548 -216.1729
ENERGY: 900000 0.6492 0.7058 0.4286 0.0000 -10622.8785 1388.3893 0.0000 0.0000 1728.1932 -7504.5124 295.6038 -9232.7057 -7499.7100 298.6015 -230.4565 -187.6861 30244.5348 -353.9653 -275.7510
ENERGY: 1200000 0.8872 3.1702 0.9549 0.0000 -10725.3728 1438.4123 0.0000 0.0000 1736.5903 -7545.3579 297.0401 -9281.9482 -7501.9239 298.8177 -361.7105 -327.5296 30621.6772 -342.8634 -272.9419
ENERGY: 1500000 2.7201 0.8118 0.4324 0.0000 -10783.5385 1498.4701 0.0000 0.0000 1744.3292 -7536.7749 298.3638 -9281.1041 -7500.6621 299.8818 460.8470 542.9494 30044.4487 -251.4830 -184.4309
TCL: Running FEP window  12: Lambda1 0.5499999999999999 Lambda2 0.6    [dLambda 0.050000000000000044]
TCL: Setting parameter firsttimestep to 0
TCL: Setting parameter alchLambda to 0.5499999999999999
Info: NONBONDED TABLE R-SQUARED SPACING: 0.0625
Info: NONBONDED TABLE SIZE: 705 POINTS
TCL: Setting parameter alchLambda2 to 0.6
Info: NONBONDED TABLE R-SQUARED SPACING: 0.0625
Info: NONBONDED TABLE SIZE: 705 POINTS
TCL: Running for 1500000 steps
ETITLE: TS BOND ANGLE DIHED IMPRP ELECT VDW BOUNDARY MISC KINETIC TOTAL TEMP POTENTIAL TOTALAVG TEMPAVG PRESSURE GPRESSURE VOLUME PRESSAVG GPRESSAVG
ENERGY: 0 2.7201 0.8118 0.4324 0.0000 -10783.5417 1498.1825 0.0000 0.0000 1743.4546 -7537.9403 298.2142 -9281.3949 -7537.9403 298.2142 467.5737 545.2298 30044.4487 467.5737 545.2298
ENERGY: 300000 0.3152 1.5660 1.4105 0.0000 -10559.6105 1373.7813 0.0000 0.0000 1750.3554 -7432.1822 299.3946 -9182.5376 -7442.2253 300.2350 -487.8148 -436.6175 30638.7046 400.0828 486.6922
ENERGY: 600000 0.8842 0.4195 1.2510 0.0000 -10547.4182 1388.1585 0.0000 0.0000 1712.6783 -7444.0267 292.9500 -9156.7050 -7471.7860 298.7220 -316.6164 -233.2198 30355.2286 36.2041 113.1766
ENERGY: 900000 1.7243 1.6782 0.3061 0.0000 -10578.7395 1362.3220 0.0000 0.0000 1776.6051 -7436.1038 303.8846 -9212.7089 -7473.7422 299.0395 -632.0960 -548.2379 30476.6515 -35.2061 26.9034
ENERGY: 1200000 0.6267 0.4605 1.4297 0.0000 -10630.9369 1352.0557 0.0000 0.0000 1769.4160 -7506.9483 302.6549 -9276.3643 -7474.6560 299.1454 -600.2505 -493.6352 30139.0550 -51.8931 7.9971
ENERGY: 1500000 0.7759 0.5951 0.0954 0.0000 -10611.1536 1397.9703 0.0000 0.0000 1760.6864 -7451.0304 301.1617 -9211.7168 -7465.2212 300.1278 -158.5352 -64.2271 30034.6344 -50.3526 9.8102
TCL: Running FEP window  13: Lambda1 0.6    Lambda2 0.65   [dLambda 0.050000000000000044]
TCL: Setting parameter firsttimestep to 0
TCL: Setting parameter alchLambda to 0.6
Info: NONBONDED TABLE R-SQUARED SPACING: 0.0625
Info: NONBONDED TABLE SIZE: 705 POINTS
TCL: Setting parameter alchLambda2 to 0.65
Info: NONBONDED TABLE R-SQUARED SPACING: 0.0625
Info: NONBONDED TABLE SIZE: 705 POINTS
TCL: Running for 1500000 steps
ETITLE: TS BOND ANGLE DIHED IMPRP ELECT VDW BOUNDARY MISC KINETIC TOTAL TEMP POTENTIAL TOTALAVG TEMPAVG PRESSURE GPRESSURE VOLUME PRESSAVG GPRESSAVG
ENERGY: 0 0.7759 0.5951 0.0954 0.0000 -10611.0384 1397.6871 0.0000 0.0000 1759.8452 -7452.0396 301.0178 -9211.8848 -7452.0396 301.0178 -140.8494 -61.0554 30034.6344 -140.8494 -61.0554
ENERGY: 300000 0.0269 1.9406 1.4445 0.0000 -10608.9326 1360.1333 0.0000 0.0000 1777.1300 -7468.2573 303.9743 -9245.3873 -7479.7251 298.6289 -284.2985 -253.4424 30032.9486 -48.5046 9.8771
ENERGY: 600000 3.9447 2.3646 0.4689 0.0000 -10659.0806 1402.4259 0.0000 0.0000 1770.4823 -7479.3943 302.8373 -9249.8766 -7490.4803 299.1009 -716.9169 -689.7453 30935.2968 -299.6777 -250.8922
ENERGY: 900000 1.1791 0.5790 1.2439 0.0000 -10752.3158 1431.9417 0.0000 0.0000 1786.3634 -7531.0087 305.5537 -9317.3721 -7490.5946 299.9038 -176.0626 -128.2297 30334.8023 -353.7495 -298.6291
ENERGY: 1200000 1.2884 3.1381 0.1754 0.0000 -10708.2045 1467.2040 0.0000 0.0000 1749.4582 -7486.9403 299.2411 -9236.3986 -7486.5726 299.7217 443.2301 490.6509 30170.2586 -291.2706 -235.0022
ENERGY: 1500000 0.5980 2.7714 0.4940 0.0000 -10781.2251 1508.7030 0.0000 0.0000 1753.6175 -7515.0412 299.9526 -9268.6587 -7492.2072 299.3785 155.9861 257.0693 30506.1752 -180.8533 -119.8285
TCL: Running FEP window  14: Lambda1 0.65   Lambda2 0.7000000000000001 [dLambda 0.050000000000000044]
TCL: Setting parameter firsttimestep to 0
TCL: Setting parameter alchLambda to 0.65
Info: NONBONDED TABLE R-SQUARED SPACING: 0.0625
Info: NONBONDED TABLE SIZE: 705 POINTS
TCL: Setting parameter alchLambda2 to 0.7000000000000001
Info: NONBONDED TABLE R-SQUARED SPACING: 0.0625
Info: NONBONDED TABLE SIZE: 705 POINTS
TCL: Running for 1500000 steps
ETITLE: TS BOND ANGLE DIHED IMPRP ELECT VDW BOUNDARY MISC KINETIC TOTAL TEMP POTENTIAL TOTALAVG TEMPAVG PRESSURE GPRESSURE VOLUME PRESSAVG GPRESSAVG
ENERGY: 0 0.5980 2.7714 0.4940 0.0000 -10781.4415 1508.5803 0.0000 0.0000 1752.7612 -7516.2367 299.8061 -9268.9979 -7516.2367 299.8061 178.6617 258.6265 30506.1752 178.6617 258.6265
ENERGY: 300000 0.1377 1.0690 0.8129 0.0000 -10570.9036 1348.7045 0.0000 0.0000 1756.5605 -7463.6190 300.4560 -9220.1795 -7493.6144 301.2347 -811.8820 -874.4988 30904.5305 -266.0004 -211.8295
ENERGY: 600000 1.0973 0.3216 0.0592 0.0000 -10720.9746 1429.7442 0.0000 0.0000 1758.9079 -7530.8443 300.8575 -9289.7522 -7497.2229 300.9117 -177.3076 -120.1684 30298.8981 -305.0409 -246.6350
ENERGY: 900000 0.4567 0.1900 0.3499 0.0000 -10586.2745 1366.3677 0.0000 0.0000 1707.5485 -7511.3616 292.0726 -9218.9102 -7514.3808 299.1378 -702.1214 -663.4145 30679.9910 -242.5096 -181.8028
ENERGY: 1200000 0.5152 0.8568 1.6081 0.0000 -10688.5602 1439.4669 0.0000 0.0000 1781.1951 -7464.9180 304.6697 -9246.1132 -7505.2891 300.2818 205.7630 276.8337 29888.3063 -244.5266 -184.8924
ENERGY: 1500000 0.6909 0.7082 0.8856 0.0000 -10645.5043 1457.6863 0.0000 0.0000 1795.9028 -7389.6305 307.1854 -9185.5333 -7491.1373 301.0416 333.3299 409.0474 30434.5265 -193.3433 -127.4948
TCL: Running FEP window  15: Lambda1 0.7000000000000001 Lambda2 0.7500000000000001 [dLambda 0.050000000000000044]
TCL: Setting parameter firsttimestep to 0
TCL: Setting parameter alchLambda to 0.7000000000000001
Info: NONBONDED TABLE R-SQUARED SPACING: 0.0625
Info: NONBONDED TABLE SIZE: 705 POINTS
TCL: Setting parameter alchLambda2 to 0.7500000000000001
Info: NONBONDED TABLE R-SQUARED SPACING: 0.0625
Info: NONBONDED TABLE SIZE: 705 POINTS
TCL: Running for 1500000 steps
ETITLE: TS BOND ANGLE DIHED IMPRP ELECT VDW BOUNDARY MISC KINETIC TOTAL TEMP POTENTIAL TOTALAVG TEMPAVG PRESSURE GPRESSURE VOLUME PRESSAVG GPRESSAVG
ENERGY: 0 0.6909 0.7082 0.8856 0.0000 -10645.6912 1458.2826 0.0000 0.0000 1795.0211 -7390.1028 307.0346 -9185.1239 -7390.1028 307.0346 348.8012 423.1473 30434.5265 348.8012 423.1473
ENERGY: 300000 1.3540 0.7929 0.2285 0.0000 -10599.8701 1414.3106 0.0000 0.0000 1795.2648 -7387.9193 307.0763 -9183.1841 -7472.7552 300.3019 -3.2750 15.8636 30414.9920 -23.5543 28.3338
ENERGY: 600000 0.2315 0.4900 0.4446 0.0000 -10586.0009 1362.1963 0.0000 0.0000 1792.3545 -7430.2840 306.5784 -9222.6385 -7473.5806 299.3363 -704.5757 -636.3358 30704.1522 -17.9832 43.6319
ENERGY: 900000 1.0849 0.6678 1.6539 0.0000 -10750.9335 1443.6972 0.0000 0.0000 1725.6839 -7578.1458 295.1746 -9303.8297 -7485.2783 299.5736 89.9401 149.5477 29754.6758 92.3635 156.8081
ENERGY: 1200000 0.3522 1.4321 0.7694 0.0000 -10695.3192 1448.1345 0.0000 0.0000 1775.1108 -7469.5203 303.6290 -9244.6311 -7488.9116 300.2460 112.2381 157.7228 30428.3154 12.0956 76.0719
ENERGY: 1500000 0.9119 0.8245 1.2977 0.0000 -10703.1008 1450.1105 0.0000 0.0000 1794.5162 -7455.4401 306.9482 -9249.9563 -7487.7125 301.4285 84.8483 169.0368 30277.8571 9.0113 73.2083
TCL: Running FEP window  16: Lambda1 0.7500000000000001 Lambda2 0.8000000000000002 [dLambda 0.050000000000000044]
TCL: Setting parameter firsttimestep to 0
TCL: Setting parameter alchLambda to 0.7500000000000001
Info: NONBONDED TABLE R-SQUARED SPACING: 0.0625
Info: NONBONDED TABLE SIZE: 705 POINTS
TCL: Setting parameter alchLambda2 to 0.8000000000000002
Info: NONBONDED TABLE R-SQUARED SPACING: 0.0625
Info: NONBONDED TABLE SIZE: 705 POINTS
TCL: Running for 1500000 steps
ETITLE: TS BOND ANGLE DIHED IMPRP ELECT VDW BOUNDARY MISC KINETIC TOTAL TEMP POTENTIAL TOTALAVG TEMPAVG PRESSURE GPRESSURE VOLUME PRESSAVG GPRESSAVG
ENERGY: 0 0.9119 0.8245 1.2977 0.0000 -10703.1932 1449.6852 0.0000 0.0000 1793.6173 -7456.8567 306.7944 -9250.4740 -7456.8567 306.7944 85.7054 172.0363 30277.8571 85.7054 172.0363
ENERGY: 300000 0.6126 2.5681 0.4784 0.0000 -10716.6356 1469.5591 0.0000 0.0000 1798.8115 -7444.6060 307.6829 -9243.4175 -7475.2533 304.7807 154.1453 236.9794 30574.5315 -20.3652 38.2320
ENERGY: 600000 0.7405 0.4995 0.4536 0.0000 -10691.9294 1438.2796 0.0000 0.0000 1721.6583 -7530.2979 294.4860 -9251.9562 -7467.7580 302.8728 -124.4689 -24.0732 30450.7359 62.0178 121.6416
ENERGY: 900000 2.5112 1.3641 0.7220 0.0000 -10551.9437 1347.0230 0.0000 0.0000 1760.6974 -7439.6259 301.1636 -9200.3233 -7475.4915 301.4651 -729.8164 -714.0732 30692.9744 -52.6022 -9.8248
ENERGY: 1200000 0.5072 0.3255 1.5002 0.0000 -10722.2452 1425.3567 0.0000 0.0000 1746.0172 -7548.5385 298.6526 -9294.5557 -7483.4219 301.1939 -142.4259 -133.2594 30200.3961 1.3813 42.8262
ENERGY: 1500000 0.4920 1.2970 0.1112 0.0000 -10775.9130 1476.5586 0.0000 0.0000 1777.9127 -7519.5415 304.1082 -9297.4542 -7485.5595 301.1581 67.2895 169.9136 30232.1745 77.8455 123.0881
TCL: Running FEP window  17: Lambda1 0.8000000000000002 Lambda2 0.8500000000000002 [dLambda 0.050000000000000044]
TCL: Setting parameter firsttimestep to 0
TCL: Setting parameter alchLambda to 0.8000000000000002
Info: NONBONDED TABLE R-SQUARED SPACING: 0.0625
Info: NONBONDED TABLE SIZE: 705 POINTS
TCL: Setting parameter alchLambda2 to 0.8500000000000002
Info: NONBONDED TABLE R-SQUARED SPACING: 0.0625
Info: NONBONDED TABLE SIZE: 705 POINTS
TCL: Running for 1500000 steps
ETITLE: TS BOND ANGLE DIHED IMPRP ELECT VDW BOUNDARY MISC KINETIC TOTAL TEMP POTENTIAL TOTALAVG TEMPAVG PRESSURE GPRESSURE VOLUME PRESSAVG GPRESSAVG
ENERGY: 0 0.4920 1.2970 0.1112 0.0000 -10776.0775 1476.2477 0.0000 0.0000 1777.0336 -7520.8961 303.9578 -9297.9296 -7520.8961 303.9578 97.6231 170.7826 30232.1745 97.6231 170.7826
ENERGY: 300000 0.5484 1.1089 0.4502 0.0000 -10853.6783 1529.0038 0.0000 0.0000 1732.0720 -7590.4951 296.2673 -9322.5671 -7506.1386 300.7645 579.4081 653.0939 29720.1253 196.5788 251.9691
ENERGY: 600000 1.3614 1.0979 0.7422 0.0000 -10597.5102 1370.5175 0.0000 0.0000 1789.6582 -7434.1331 306.1173 -9223.7913 -7508.6917 302.0213 -245.4536 -207.4064 30133.0567 29.5874 86.2112
ENERGY: 900000 0.0281 1.4478 0.2509 0.0000 -10626.6457 1393.2520 0.0000 0.0000 1813.1905 -7418.4764 310.1424 -9231.6669 -7496.7349 302.1159 -250.7855 -207.4607 30222.8020 -30.1707 27.3052
ENERGY: 1200000 0.0482 0.7077 0.0657 0.0000 -10715.2224 1463.3280 0.0000 0.0000 1728.2762 -7522.7966 295.6180 -9251.0727 -7489.8737 301.4961 48.3243 95.0530 30682.7344 -13.5457 37.0962
ENERGY: 1500000 1.5718 0.9962 0.7272 0.0000 -10737.3488 1479.4418 0.0000 0.0000 1715.3816 -7539.2300 293.4124 -9254.6117 -7499.2137 300.8299 273.1389 344.2578 29965.7476 -15.2019 40.9301
TCL: Running FEP window  18: Lambda1 0.8500000000000002 Lambda2 0.9000000000000002 [dLambda 0.050000000000000044]
TCL: Setting parameter firsttimestep to 0
TCL: Setting parameter alchLambda to 0.8500000000000002
Info: NONBONDED TABLE R-SQUARED SPACING: 0.0625
Info: NONBONDED TABLE SIZE: 705 POINTS
TCL: Setting parameter alchLambda2 to 0.9000000000000002
Info: NONBONDED TABLE R-SQUARED SPACING: 0.0625
Info: NONBONDED TABLE SIZE: 705 POINTS
TCL: Running for 1500000 steps
ETITLE: TS BOND ANGLE DIHED IMPRP ELECT VDW BOUNDARY MISC KINETIC TOTAL TEMP POTENTIAL TOTALAVG TEMPAVG PRESSURE GPRESSURE VOLUME PRESSAVG GPRESSAVG
ENERGY: 0 1.5718 0.9962 0.7272 0.0000 -10737.4206 1479.0819 0.0000 0.0000 1714.5415 -7540.5019 293.2687 -9255.0434 -7540.5019 293.2687 252.1843 347.5126 29965.7476 252.1843 347.5126
ENERGY: 300000 0.0694 0.4825 0.3147 0.0000 -10571.1934 1330.3307 0.0000 0.0000 1734.4634 -7505.5327 296.6763 -9239.9962 -7504.0866 296.9011 -776.0540 -735.8324 30507.3511 -512.7099 -462.0487
ENERGY: 600000 1.3874 2.8988 1.2414 0.0000 -10686.5829 1456.7266 0.0000 0.0000 1695.7592 -7528.5695 290.0560 -9224.3287 -7499.4850 297.1812 -26.5996 91.7074 30663.7331 -260.6292 -202.0212
ENERGY: 900000 1.6698 1.0160 0.0633 0.0000 -10774.8268 1494.0214 0.0000 0.0000 1705.1967 -7572.8596 291.6703 -9278.0563 -7501.2479 297.1595 518.2140 556.9432 30163.8756 -83.5987 -31.6624
ENERGY: 1200000 0.3687 1.7861 1.8852 0.0000 -10598.2822 1392.6478 0.0000 0.0000 1735.2228 -7466.3716 296.8062 -9201.5945 -7491.4234 297.6600 -286.5895 -214.3546 30479.1654 -122.5103 -67.0391
ENERGY: 1500000 1.1055 0.1606 0.6331 0.0000 -10608.0992 1410.6379 0.0000 0.0000 1748.1728 -7447.3893 299.0213 -9195.5621 -7495.1181 298.0526 -121.1430 -5.5347 30475.5719 -148.8510 -95.2782
TCL: Running FEP window  19: Lambda1 0.9000000000000002 Lambda2 0.9500000000000003 [dLambda 0.050000000000000044]
TCL: Setting parameter firsttimestep to 0
TCL: Setting parameter alchLambda to 0.9000000000000002
Info: NONBONDED TABLE R-SQUARED SPACING: 0.0625
Info: NONBONDED TABLE SIZE: 705 POINTS
TCL: Setting parameter alchLambda2 to 0.9500000000000003
Info: NONBONDED TABLE R-SQUARED SPACING: 0.0625
Info: NONBONDED TABLE SIZE: 705 POINTS
TCL: Running for 1500000 steps
ETITLE: TS BOND ANGLE DIHED IMPRP ELECT VDW BOUNDARY MISC KINETIC TOTAL TEMP POTENTIAL TOTALAVG TEMPAVG PRESSURE GPRESSURE VOLUME PRESSAVG GPRESSAVG
ENERGY: 0 1.1055 0.1606 0.6331 0.0000 -10608.2778 1410.3369 0.0000 0.0000 1747.2840 -7448.7578 298.8692 -9196.0417 -7448.7578 298.8692 -79.6667 -1.9917 30475.5719 -79.6667 -1.9917
ENERGY: 300000 0.2996 1.6446 0.8005 0.0000 -10521.0651 1390.0851 0.0000 0.0000 1795.7264 -7332.5090 307.1552 -9128.2354 -7431.0541 300.0205 -161.5394 -143.3691 30767.1024 -259.4713 -219.5374
ENERGY: 600000 1.4853 1.4199 0.2213 0.0000 -10853.5163 1567.8303 0.0000 0.0000 1748.7910 -7533.7684 299.1270 -9282.5594 -7450.2804 300.6292 901.3871 1038.7833 30253.3688 -95.7469 -42.0113
ENERGY: 900000 0.6876 2.8047 1.3872 0.0000 -10579.9568 1372.6942 0.0000 0.0000 1799.0729 -7403.3103 307.7276 -9202.3832 -7454.7965 301.1168 -253.8790 -184.0113 30440.8181 -50.4571 5.3532
ENERGY: 1200000 1.0778 0.3003 1.4473 0.0000 -10760.6786 1526.3284 0.0000 0.0000 1804.0931 -7427.4317 308.5863 -9231.5248 -7447.9136 302.3232 842.6254 853.6648 30324.1569 127.9031 187.9203
ENERGY: 1500000 0.8931 1.6868 1.0708 0.0000 -10642.6784 1431.1829 0.0000 0.0000 1787.5406 -7420.3042 305.7550 -9207.8447 -7446.1519 302.3073 267.4464 419.2659 29943.1891 89.6126 149.9014
TCL: Running FEP window  20: Lambda1 0.9500000000000003 Lambda2 1.0    [dLambda 0.04999999999999971]
TCL: Setting parameter firsttimestep to 0
TCL: Setting parameter alchLambda to 0.9500000000000003
Info: NONBONDED TABLE R-SQUARED SPACING: 0.0625
Info: NONBONDED TABLE SIZE: 705 POINTS
TCL: Setting parameter alchLambda2 to 1.0
Info: NONBONDED TABLE R-SQUARED SPACING: 0.0625
Info: NONBONDED TABLE SIZE: 705 POINTS
TCL: Running for 1500000 steps
ETITLE: TS BOND ANGLE DIHED IMPRP ELECT VDW BOUNDARY MISC KINETIC TOTAL TEMP POTENTIAL TOTALAVG TEMPAVG PRESSURE GPRESSURE VOLUME PRESSAVG GPRESSAVG
ENERGY: 0 0.8931 1.6868 1.0708 0.0000 -10642.8858 1431.1721 0.0000 0.0000 1786.6627 -7421.4003 305.6049 -9208.0630 -7421.4003 305.6049 347.6534 425.5230 29943.1891 347.6534 425.5230
ENERGY: 300000 0.0868 0.3681 2.6833 0.0000 -10635.0668 1379.6662 0.0000 0.0000 1746.5640 -7505.6985 298.7461 -9252.2625 -7457.9278 301.0049 -468.9139 -344.8692 30204.1640 -201.2869 -111.2902
ENERGY: 600000 1.6258 2.4937 1.4753 0.0000 -10690.8960 1451.5199 0.0000 0.0000 1715.4887 -7518.2926 293.4307 -9233.7813 -7478.6243 300.3302 163.3196 217.7837 30600.0841 -153.9431 -79.3574
ENERGY: 900000 1.2989 0.5771 0.5147 0.0000 -10746.1604 1453.1474 0.0000 0.0000 1823.2493 -7467.3730 311.8629 -9290.6223 -7487.9960 301.1623 111.6994 216.9571 30308.9319 -158.9228 -91.1102
ENERGY: 1200000 1.1133 0.3699 0.2952 0.0000 -10823.3311 1481.6973 0.0000 0.0000 1768.1944 -7571.6610 302.4459 -9339.8554 -7491.5486 301.7962 227.3279 310.8222 30038.7360 -169.9663 -99.9305
ENERGY: 1500000 1.3362 1.1735 1.7280 0.0000 -10720.4261 1421.6497 0.0000 0.0000 1788.3565 -7506.1822 305.8946 -9294.5387 -7494.2733 302.3511 -266.4735 -243.2852 30251.8215 -96.6976 -33.4500
TCL: Exiting due to exit command.
