Info: SIMULATION PARAMETERS:
Info: TIMESTEP               2
Info: NUMBER OF STEPS        0
Info: STEPS PER CYCLE        10
Info: PERIODIC CELL BASIS 1  36.592 0 0
Info: PERIODIC CELL BASIS 2  0 34.26 0
Info: PERIODIC CELL BASIS 3  0 0 34.954
Info: PERIODIC CELL CENTER   0 0 0
Info: WRAPPING WATERS AROUND PERIODIC BOUNDARIES ON OUTPUT.
Info: WRAPPING ALL CLUSTERS AROUND PERIODIC BOUNDARIES ON OUTPUT.
Info: FIRST LDB TIMESTEP     50
Info: LAST LDB TIMESTEP     -1
Info: HOM BACKGROUND SCALING 1
Info: PME BACKGROUND SCALING 1
Info: MIN ATOMS PER PATCH    40
Info: EMPTY PATCH LOAD       40 ATOMS
Info: INITIAL TEMPERATURE    300
Info: CENTER OF MASS MOVING INITIALLY? NO
Info: DIELECTRIC             1
Info: EXCLUDE                SCALED ONE-FOUR
Info: 1-4 ELECTROSTATICS SCALED BY 0.833333
Info: MODIFIED 1-4 VDW PARAMETERS WILL BE USED
Info: DCD FILENAME           mobley_994483_equil.dcd
Info: DCD FREQUENCY          100000
Info: DCD FIRST STEP         100000
Info: DCD FILE WILL CONTAIN UNIT CELL DATA
Info: XST FILENAME           mobley_994483_equil.xst
Info: XST FREQUENCY          100000
Info: NO VELOCITY DCD OUTPUT
Info: NO FORCE DCD OUTPUT
Info: OUTPUT FILENAME        mobley_994483_equil
Info: BINARY OUTPUT FILES WILL BE USED
Info: RESTART FILENAME       mobley_994483_equil.restart
Info: RESTART FREQUENCY      100000
Info: BINARY RESTART FILES WILL BE USED
Info: CUTOFF                 9
Info: PAIRLIST DISTANCE      11
Info: PAIRLIST SHRINK RATE   0.01
Info: PAIRLIST GROW RATE     0.01
Info: PAIRLIST TRIGGER       0.3
Info: PAIRLISTS PER CYCLE    2
Info: PAIRLISTS ENABLED
Info: MARGIN                 8
Info: HYDROGEN GROUP CUTOFF  2.5
Info: PATCH DIMENSION        21.5
Info: ENERGY OUTPUT STEPS    100000
Info: ENERGY EVALUATION STEPS    100000
Info: OUTPUT ENERGY PRECISION 4
Info: CROSSTERM ENERGY INCLUDED IN DIHEDRAL
Info: TIMING OUTPUT STEPS    1000000
Info: PRESSURE OUTPUT STEPS  100000
Info: LANGEVIN DYNAMICS ACTIVE
Info: LANGEVIN TEMPERATURE   30
Info: LANGEVIN USING BBK INTEGRATOR
Info: LANGEVIN DAMPING COEFFICIENT IS 1 INVERSE PS
Info: LANGEVIN DYNAMICS APPLIED TO HYDROGENS
Info: LANGEVIN PISTON PRESSURE CONTROL ACTIVE
Info:        TARGET PRESSURE IS 1.01325 BAR
Info:     OSCILLATION PERIOD IS 50 FS
Info:             DECAY TIME IS 25 FS
Info:     PISTON TEMPERATURE IS 300 K
Info:       PRESSURE CONTROL IS GROUP-BASED
Info:    INITIAL STRAIN RATE IS 0 0 0
Info:       CELL FLUCTUATION IS ISOTROPIC
Info: PARTICLE MESH EWALD (PME) ACTIVE
Info: PME TOLERANCE               1e-06
Info: PME EWALD COEFFICIENT       0.348832
Info: PME INTERPOLATION ORDER     4
Info: PME GRID DIMENSIONS         40 36 36
Info: PME MAXIMUM GRID SPACING    1
Info: FULL ELECTROSTATIC EVALUATION FREQUENCY      2
Info: USING VERLET I (r-RESPA) MTS SCHEME.
Info: C1 SPLITTING OF LONG RANGE ELECTROSTATICS
Info: PLACING ATOMS IN PATCHES BY HYDROGEN GROUPS
Info: RIGID BONDS TO HYDROGEN : ALL
Info:         ERROR TOLERANCE : 1e-08
Info:          MAX ITERATIONS : 100
Info: RIGID WATER USING SETTLE ALGORITHM
Info: RANDOM NUMBER SEED     1743158468
Info: USE HYDROGEN BONDS?    NO
Info: Using AMBER format force field!
Info: AMBER PARM FILE        mobley_994483.prmtop
Info: COORDINATE PDB         mobley_994483.pdb
Info: Exclusions will be read from PARM file!
Info: SCNB (VDW SCALING)     2
Info: USING ARITHMETIC MEAN TO COMBINE L-J SIGMA PARAMETERS
Info: BINARY COORDINATES     mobley_994483_min.coor
Info: SUMMARY OF PARAMETERS:
Info: 6 BONDS
Info: 6 ANGLES
Info:   6 HARMONIC
Info:   0 COSINE-BASED
Info: 3 DIHEDRAL
Info: 0 IMPROPER
Info: 0 CROSSTERM
Info: 0 VDW
Info: 21 VDW_PAIRS
Info: 0 NBTHOLE_PAIRS
Info: STRUCTURE SUMMARY:
Info: 2993 ATOMS
Info: 2992 BONDS
Info: 12 ANGLES
Info: 12 DIHEDRALS
Info: 0 IMPROPERS
Info: 0 CROSSTERMS
Info: 3013 EXCLUSIONS
Info: 2990 RIGID BONDS
Info: 5989 DEGREES OF FREEDOM
Info: 998 HYDROGEN GROUPS
Info: 4 ATOMS IN LARGEST HYDROGEN GROUP
Info: 998 MIGRATION GROUPS
Info: 4 ATOMS IN LARGEST MIGRATION GROUP
Info: TOTAL MASS = 18034.9 amu
Info: TOTAL CHARGE = 4.19095e-09 e
Info: MASS DENSITY = 0.683443 g/cm^3
Info: ATOM DENSITY = 0.0683025 atoms/A^3
Info: ADDED 0 IMPLICIT EXCLUSIONS
Info: NONBONDED TABLE R-SQUARED SPACING: 0.0625
Info: NONBONDED TABLE SIZE: 705 POINTS
Info: REMOVING COM VELOCITY 0.0807579 -0.0879438 0.426229
TCL: Running for 100000 steps
ETITLE: TS BOND ANGLE DIHED IMPRP ELECT VDW BOUNDARY MISC KINETIC TOTAL TEMP POTENTIAL TOTAL3 TEMPAVG PRESSURE GPRESSURE VOLUME PRESSAVG GPRESSAVG
ENERGY: 0 0.0054 0.2388 1.6473 0.0000 -13775.5260 2386.4314 0.0000 0.0000 1814.2274 -9572.9757 304.8792 -11387.2031 -9572.6175 304.8792 225.1478 255.8086 43819.7997 225.1478 255.8086
ENERGY: 100000 0.0694 0.5102 1.6463 0.0000 -14412.9126 2563.7210 0.0000 0.0000 175.3190 -11671.6467 29.4622 -11846.9657 -11671.0502 30.9935 375.5804 446.1790 30490.6865 4.0545 4.0873
TCL: Running 100000 steps at 60 kelvin.
TCL: Setting parameter langevinTemp to 60
TCL: Running for 100000 steps
ETITLE: TS BOND ANGLE DIHED IMPRP ELECT VDW BOUNDARY MISC KINETIC TOTAL TEMP POTENTIAL TOTAL3 TEMPAVG PRESSURE GPRESSURE VOLUME PRESSAVG GPRESSAVG
ENERGY: 100000 0.0694 0.5102 1.6463 0.0000 -14412.9126 2563.7210 0.0000 0.0000 175.2305 -11671.7352 29.4473 -11846.9657 -11671.3320 29.4473 389.6385 446.1473 30490.6865 389.6385 446.1473
ENERGY: 200000 0.1339 1.0134 1.6508 0.0000 -14315.1191 2476.6845 0.0000 0.0000 361.7364 -11473.9001 60.7895 -11835.6366 -11472.5531 59.9554 147.5379 196.9639 29537.2883 4.7365 4.7383
TCL: Running 100000 steps at 90 kelvin.
TCL: Setting parameter langevinTemp to 90
TCL: Running for 100000 steps
ETITLE: TS BOND ANGLE DIHED IMPRP ELECT VDW BOUNDARY MISC KINETIC TOTAL TEMP POTENTIAL TOTAL3 TEMPAVG PRESSURE GPRESSURE VOLUME PRESSAVG GPRESSAVG
ENERGY: 200000 0.1339 1.0134 1.6508 0.0000 -14315.1191 2476.6845 0.0000 0.0000 361.5543 -11474.0822 60.7589 -11835.6366 -11473.3767 60.7589 148.7904 197.5910 29537.2883 148.7904 197.5910
ENERGY: 300000 0.0922 1.4154 2.0094 0.0000 -14237.0200 2476.3495 0.0000 0.0000 536.1118 -11221.0417 90.0931 -11757.1535 -11219.6813 89.7464 663.0847 722.1701 28703.3708 4.5926 4.6580
TCL: Running 100000 steps at 120 kelvin.
TCL: Setting parameter langevinTemp to 120
TCL: Running for 100000 steps
ETITLE: TS BOND ANGLE DIHED IMPRP ELECT VDW BOUNDARY MISC KINETIC TOTAL TEMP POTENTIAL TOTAL3 TEMPAVG PRESSURE GPRESSURE VOLUME PRESSAVG GPRESSAVG
ENERGY: 300000 0.0922 1.4154 2.0094 0.0000 -14237.0200 2476.3495 0.0000 0.0000 535.8475 -11221.3060 90.0487 -11757.1535 -11220.2573 90.0487 666.3442 722.6081 28703.3708 666.3442 722.6081
ENERGY: 400000 0.7452 2.1983 1.7107 0.0000 -13968.5877 2329.1687 0.0000 0.0000 723.9017 -10910.8630 121.6510 -11634.7648 -10909.1456 119.9543 -55.4557 0.3191 28769.2380 2.3724 2.4621
TCL: Running 100000 steps at 150 kelvin.
TCL: Setting parameter langevinTemp to 150
TCL: Running for 100000 steps
ETITLE: TS BOND ANGLE DIHED IMPRP ELECT VDW BOUNDARY MISC KINETIC TOTAL TEMP POTENTIAL TOTAL3 TEMPAVG PRESSURE GPRESSURE VOLUME PRESSAVG GPRESSAVG
ENERGY: 400000 0.7452 2.1983 1.7107 0.0000 -13968.5877 2329.1687 0.0000 0.0000 723.5456 -10911.2192 121.5911 -11634.7648 -10909.5050 121.5911 -42.9897 0.6183 28769.2380 -42.9897 0.6183
ENERGY: 500000 0.3346 1.2751 1.6889 0.0000 -13699.5403 2262.2363 0.0000 0.0000 869.7660 -10564.2395 146.1633 -11434.0055 -10561.1204 150.2544 112.7780 156.0998 29023.6360 4.0628 4.2205
TCL: Running 100000 steps at 180 kelvin.
TCL: Setting parameter langevinTemp to 180
TCL: Running for 100000 steps
ETITLE: TS BOND ANGLE DIHED IMPRP ELECT VDW BOUNDARY MISC KINETIC TOTAL TEMP POTENTIAL TOTAL3 TEMPAVG PRESSURE GPRESSURE VOLUME PRESSAVG GPRESSAVG
ENERGY: 500000 0.3346 1.2751 1.6889 0.0000 -13699.5403 2262.2363 0.0000 0.0000 869.3516 -10564.6539 146.0937 -11434.0055 -10562.9155 146.0937 73.5840 156.9663 29023.6360 73.5840 156.9663
ENERGY: 600000 0.2769 2.4083 2.3485 0.0000 -13502.1299 2251.5725 0.0000 0.0000 1090.2234 -10155.3003 183.2110 -11245.5237 -10153.3042 179.8848 586.4671 650.3661 29172.7980 4.3628 4.3821
TCL: Running 100000 steps at 210 kelvin.
TCL: Setting parameter langevinTemp to 210
TCL: Running for 100000 steps
ETITLE: TS BOND ANGLE DIHED IMPRP ELECT VDW BOUNDARY MISC KINETIC TOTAL TEMP POTENTIAL TOTAL3 TEMPAVG PRESSURE GPRESSURE VOLUME PRESSAVG GPRESSAVG
ENERGY: 600000 0.2769 2.4083 2.3485 0.0000 -13502.1299 2251.5725 0.0000 0.0000 1089.6844 -10155.8393 183.1204 -11245.5237 -10154.0035 183.1204 595.3769 647.6413 29172.7980 595.3769 647.6413
ENERGY: 700000 0.3629 2.4444 1.8067 0.0000 -12691.7174 2010.8092 0.0000 0.0000 1229.2681 -9447.0262 206.5773 -10676.2943 -9444.0976 209.7041 657.0955 658.2986 29195.6805 4.8862 4.9219
TCL: Running 100000 steps at 240 kelvin.
TCL: Setting parameter langevinTemp to 240
TCL: Running for 100000 steps
ETITLE: TS BOND ANGLE DIHED IMPRP ELECT VDW BOUNDARY MISC KINETIC TOTAL TEMP POTENTIAL TOTAL3 TEMPAVG PRESSURE GPRESSURE VOLUME PRESSAVG GPRESSAVG
ENERGY: 700000 0.3629 2.4444 1.8067 0.0000 -12691.7174 2010.8092 0.0000 0.0000 1228.6225 -9447.6718 206.4688 -10676.2943 -9445.2925 206.4688 593.6619 658.6141 29195.6805 593.6619 658.6141
ENERGY: 800000 0.0020 3.2629 1.8070 0.0000 -12060.5889 1778.2158 0.0000 0.0000 1395.6809 -8881.6204 234.5428 -10277.3013 -8878.9763 239.6524 98.4978 170.1770 29456.6309 1.9197 1.8642
TCL: Running 100000 steps at 270 kelvin.
TCL: Setting parameter langevinTemp to 270
TCL: Running for 100000 steps
ETITLE: TS BOND ANGLE DIHED IMPRP ELECT VDW BOUNDARY MISC KINETIC TOTAL TEMP POTENTIAL TOTAL3 TEMPAVG PRESSURE GPRESSURE VOLUME PRESSAVG GPRESSAVG
ENERGY: 800000 0.0020 3.2629 1.8070 0.0000 -12060.5889 1778.2158 0.0000 0.0000 1394.9859 -8882.3154 234.4261 -10277.3013 -8880.5152 234.4261 88.5452 170.3054 29456.6309 88.5452 170.3054
ENERGY: 900000 0.4220 3.2614 1.7889 0.0000 -11445.1114 1629.5738 0.0000 0.0000 1646.3463 -8163.7190 276.6669 -9810.0653 -8160.8648 269.7797 33.5585 187.7548 30291.6500 2.6008 2.5733
TCL: Running 1000000 steps at 300 kelvin.
TCL: Setting parameter langevinTemp to 300
TCL: Running for 1000000 steps
ETITLE: TS BOND ANGLE DIHED IMPRP ELECT VDW BOUNDARY MISC KINETIC TOTAL TEMP POTENTIAL TOTAL3 TEMPAVG PRESSURE GPRESSURE VOLUME PRESSAVG GPRESSAVG
ENERGY: 900000 0.4220 3.2614 1.7889 0.0000 -11445.1113 1629.5738 0.0000 0.0000 1645.5193 -8164.5460 276.5280 -9810.0653 -8162.0936 276.5280 112.8145 187.6427 30291.6500 112.8145 187.6427
ENERGY: 1100000 0.1481 2.1112 1.7303 0.0000 -10873.1800 1473.8486 0.0000 0.0000 1835.2113 -7560.1305 308.4055 -9395.3418 -7555.4048 300.6258 -77.1151 16.4572 31382.1580 2.2608 2.2418
ENERGY: 1300000 1.0844 3.4557 1.8652 0.0000 -10872.5094 1457.1143 0.0000 0.0000 1761.1034 -7647.8864 295.9518 -9408.9898 -7644.5109 300.2877 -401.1304 -306.2512 31336.1298 2.5207 2.3949
ENERGY: 1500000 0.3859 1.8310 1.7772 0.0000 -10816.9311 1428.9268 0.0000 0.0000 1789.3760 -7594.6342 300.7030 -9384.0102 -7591.3021 299.5905 -191.3517 -100.4186 30734.5103 3.4116 3.5115
ENERGY: 1700000 0.2002 2.1940 1.6320 0.0000 -10821.1085 1483.4419 0.0000 0.0000 1841.1865 -7492.4539 309.4096 -9333.6404 -7488.0765 300.3196 658.0010 716.7848 30230.7137 3.3409 3.2692
ENERGY: 1900000 0.1905 2.0033 1.7718 0.0000 -10778.8076 1488.9201 0.0000 0.0000 1770.3438 -7515.5780 297.5046 -9285.9218 -7513.7081 300.0106 124.0491 222.8774 31629.8544 2.4806 2.5698
TCL: Exiting due to exit command.
