Info: SIMULATION PARAMETERS:
Info: TIMESTEP               2
Info: NUMBER OF STEPS        0
Info: STEPS PER CYCLE        10
Info: PERIODIC CELL BASIS 1  36.592 0 0
Info: PERIODIC CELL BASIS 2  0 34.26 0
Info: PERIODIC CELL BASIS 3  0 0 34.954
Info: PERIODIC CELL CENTER   0 0 0
Info: WRAPPING WATERS AROUND PERIODIC BOUNDARIES ON OUTPUT.
Info: WRAPPING ALL CLUSTERS AROUND PERIODIC BOUNDARIES ON OUTPUT.
Info: FIRST LDB TIMESTEP     50
Info: LAST LDB TIMESTEP     -1
Info: HOM BACKGROUND SCALING 1
Info: PME BACKGROUND SCALING 1
Info: MIN ATOMS PER PATCH    40
Info: EMPTY PATCH LOAD       40 ATOMS
Info: INITIAL TEMPERATURE    300
Info: CENTER OF MASS MOVING INITIALLY? NO
Info: DIELECTRIC             1
Info: EXCLUDE                SCALED ONE-FOUR
Info: 1-4 ELECTROSTATICS SCALED BY 0.833333
Info: MODIFIED 1-4 VDW PARAMETERS WILL BE USED
Info: DCD FILENAME           mobley_5935995_equil.dcd
Info: DCD FREQUENCY          100000
Info: DCD FIRST STEP         100000
Info: DCD FILE WILL CONTAIN UNIT CELL DATA
Info: XST FILENAME           mobley_5935995_equil.xst
Info: XST FREQUENCY          100000
Info: NO VELOCITY DCD OUTPUT
Info: NO FORCE DCD OUTPUT
Info: OUTPUT FILENAME        mobley_5935995_equil
Info: BINARY OUTPUT FILES WILL BE USED
Info: RESTART FILENAME       mobley_5935995_equil.restart
Info: RESTART FREQUENCY      100000
Info: BINARY RESTART FILES WILL BE USED
Info: CUTOFF                 9
Info: PAIRLIST DISTANCE      11
Info: PAIRLIST SHRINK RATE   0.01
Info: PAIRLIST GROW RATE     0.01
Info: PAIRLIST TRIGGER       0.3
Info: PAIRLISTS PER CYCLE    2
Info: PAIRLISTS ENABLED
Info: MARGIN                 8
Info: HYDROGEN GROUP CUTOFF  2.5
Info: PATCH DIMENSION        21.5
Info: ENERGY OUTPUT STEPS    100000
Info: ENERGY EVALUATION STEPS    100000
Info: OUTPUT ENERGY PRECISION 4
Info: CROSSTERM ENERGY INCLUDED IN DIHEDRAL
Info: TIMING OUTPUT STEPS    1000000
Info: PRESSURE OUTPUT STEPS  100000
Info: LANGEVIN DYNAMICS ACTIVE
Info: LANGEVIN TEMPERATURE   30
Info: LANGEVIN USING BBK INTEGRATOR
Info: LANGEVIN DAMPING COEFFICIENT IS 1 INVERSE PS
Info: LANGEVIN DYNAMICS APPLIED TO HYDROGENS
Info: LANGEVIN PISTON PRESSURE CONTROL ACTIVE
Info:        TARGET PRESSURE IS 1.01325 BAR
Info:     OSCILLATION PERIOD IS 50 FS
Info:             DECAY TIME IS 25 FS
Info:     PISTON TEMPERATURE IS 300 K
Info:       PRESSURE CONTROL IS GROUP-BASED
Info:    INITIAL STRAIN RATE IS 0 0 0
Info:       CELL FLUCTUATION IS ISOTROPIC
Info: PARTICLE MESH EWALD (PME) ACTIVE
Info: PME TOLERANCE               1e-06
Info: PME EWALD COEFFICIENT       0.348832
Info: PME INTERPOLATION ORDER     4
Info: PME GRID DIMENSIONS         40 36 36
Info: PME MAXIMUM GRID SPACING    1
Info: FULL ELECTROSTATIC EVALUATION FREQUENCY      2
Info: USING VERLET I (r-RESPA) MTS SCHEME.
Info: C1 SPLITTING OF LONG RANGE ELECTROSTATICS
Info: PLACING ATOMS IN PATCHES BY HYDROGEN GROUPS
Info: RIGID BONDS TO HYDROGEN : ALL
Info:         ERROR TOLERANCE : 1e-08
Info:          MAX ITERATIONS : 100
Info: RIGID WATER USING SETTLE ALGORITHM
Info: RANDOM NUMBER SEED     1743218497
Info: USE HYDROGEN BONDS?    NO
Info: Using AMBER format force field!
Info: AMBER PARM FILE        mobley_5935995.prmtop
Info: COORDINATE PDB         mobley_5935995.pdb
Info: Exclusions will be read from PARM file!
Info: SCNB (VDW SCALING)     2
Info: USING ARITHMETIC MEAN TO COMBINE L-J SIGMA PARAMETERS
Info: BINARY COORDINATES     mobley_5935995_min.coor
Info: SUMMARY OF PARAMETERS:
Info: 4 BONDS
Info: 3 ANGLES
Info:   3 HARMONIC
Info:   0 COSINE-BASED
Info: 5 DIHEDRAL
Info: 0 IMPROPER
Info: 0 CROSSTERM
Info: 0 VDW
Info: 10 VDW_PAIRS
Info: 0 NBTHOLE_PAIRS
Info: STRUCTURE SUMMARY:
Info: 2930 ATOMS
Info: 2929 BONDS
Info: 36 ANGLES
Info: 51 DIHEDRALS
Info: 0 IMPROPERS
Info: 0 CROSSTERMS
Info: 3010 EXCLUSIONS
Info: 2924 RIGID BONDS
Info: 5866 DEGREES OF FREEDOM
Info: 976 HYDROGEN GROUPS
Info: 4 ATOMS IN LARGEST HYDROGEN GROUP
Info: 976 MIGRATION GROUPS
Info: 4 ATOMS IN LARGEST MIGRATION GROUP
Info: TOTAL MASS = 17561.7 amu
Info: TOTAL CHARGE = 0.000200015 e
Info: MASS DENSITY = 0.665511 g/cm^3
Info: ATOM DENSITY = 0.0668648 atoms/A^3
Info: ADDED 0 IMPLICIT EXCLUSIONS
Info: NONBONDED TABLE R-SQUARED SPACING: 0.0625
Info: NONBONDED TABLE SIZE: 705 POINTS
Info: REMOVING COM VELOCITY -0.152119 -0.177309 -0.126473
TCL: Running for 100000 steps
ETITLE: TS BOND ANGLE DIHED IMPRP ELECT VDW BOUNDARY MISC KINETIC TOTAL TEMP POTENTIAL TOTAL3 TEMPAVG PRESSURE GPRESSURE VOLUME PRESSAVG GPRESSAVG
ENERGY: 0 0.2901 1.4224 1.5864 0.0000 -13462.9305 2340.6531 0.0000 0.0000 1766.4803 -9352.4981 303.0799 -11118.9784 -9352.1622 303.0799 224.7870 254.2249 43819.7997 224.7870 254.2249
ENERGY: 100000 0.2293 2.0628 1.5866 0.0000 -14113.3418 2515.4580 0.0000 0.0000 171.9991 -11422.0060 29.5104 -11594.0051 -11421.9102 30.9193 377.8721 448.0867 29699.3811 4.1287 4.0970
TCL: Running 100000 steps at 60 kelvin.
TCL: Setting parameter langevinTemp to 60
TCL: Running for 100000 steps
ETITLE: TS BOND ANGLE DIHED IMPRP ELECT VDW BOUNDARY MISC KINETIC TOTAL TEMP POTENTIAL TOTAL3 TEMPAVG PRESSURE GPRESSURE VOLUME PRESSAVG GPRESSAVG
ENERGY: 100000 0.2293 2.0628 1.5866 0.0000 -14113.3418 2515.4580 0.0000 0.0000 171.9089 -11422.0963 29.4949 -11594.0051 -11421.6873 29.4949 396.8668 447.8361 29699.3811 396.8668 447.8361
ENERGY: 200000 0.6275 3.3384 1.7237 0.0000 -13939.8589 2385.8549 0.0000 0.0000 341.2607 -11207.0537 58.5510 -11548.3144 -11206.5109 59.9861 -420.8872 -366.9884 29410.8528 4.0678 4.1291
TCL: Running 100000 steps at 90 kelvin.
TCL: Setting parameter langevinTemp to 90
TCL: Running for 100000 steps
ETITLE: TS BOND ANGLE DIHED IMPRP ELECT VDW BOUNDARY MISC KINETIC TOTAL TEMP POTENTIAL TOTAL3 TEMPAVG PRESSURE GPRESSURE VOLUME PRESSAVG GPRESSAVG
ENERGY: 200000 0.6275 3.3384 1.7237 0.0000 -13939.8589 2385.8549 0.0000 0.0000 341.0860 -11207.2284 58.5211 -11548.3144 -11206.5022 58.5211 -418.2742 -367.3001 29410.8528 -418.2742 -367.3001
ENERGY: 300000 0.9528 4.7978 1.5978 0.0000 -13843.2167 2377.8211 0.0000 0.0000 521.9689 -10936.0784 89.5556 -11458.0473 -10934.7896 89.8582 -122.8551 -127.1335 29248.1173 3.1801 3.1839
TCL: Running 100000 steps at 120 kelvin.
TCL: Setting parameter langevinTemp to 120
TCL: Running for 100000 steps
ETITLE: TS BOND ANGLE DIHED IMPRP ELECT VDW BOUNDARY MISC KINETIC TOTAL TEMP POTENTIAL TOTAL3 TEMPAVG PRESSURE GPRESSURE VOLUME PRESSAVG GPRESSAVG
ENERGY: 300000 0.9528 4.7978 1.5978 0.0000 -13843.2167 2377.8211 0.0000 0.0000 521.7088 -10936.3385 89.5110 -11458.0473 -10935.2113 89.5110 -161.7141 -127.0925 29248.1173 -161.7141 -127.0925
ENERGY: 400000 0.5554 5.8318 2.0598 0.0000 -13559.0718 2231.4794 0.0000 0.0000 698.7219 -10620.4235 119.8816 -11319.1455 -10618.6923 119.9580 -689.7095 -633.9213 29117.1474 3.9420 3.9256
TCL: Running 100000 steps at 150 kelvin.
TCL: Setting parameter langevinTemp to 150
TCL: Running for 100000 steps
ETITLE: TS BOND ANGLE DIHED IMPRP ELECT VDW BOUNDARY MISC KINETIC TOTAL TEMP POTENTIAL TOTAL3 TEMPAVG PRESSURE GPRESSURE VOLUME PRESSAVG GPRESSAVG
ENERGY: 400000 0.5554 5.8318 2.0598 0.0000 -13559.0718 2231.4794 0.0000 0.0000 698.3716 -10620.7739 119.8215 -11319.1455 -10619.2247 119.8215 -692.5802 -633.8909 29117.1474 -692.5802 -633.8909
ENERGY: 500000 0.8422 4.3739 2.4351 0.0000 -13512.2074 2312.3730 0.0000 0.0000 862.7536 -10329.4296 148.0250 -11192.1832 -10327.8734 149.8955 561.3364 617.7089 28568.4935 3.8699 3.8869
TCL: Running 100000 steps at 180 kelvin.
TCL: Setting parameter langevinTemp to 180
TCL: Running for 100000 steps
ETITLE: TS BOND ANGLE DIHED IMPRP ELECT VDW BOUNDARY MISC KINETIC TOTAL TEMP POTENTIAL TOTAL3 TEMPAVG PRESSURE GPRESSURE VOLUME PRESSAVG GPRESSAVG
ENERGY: 500000 0.8422 4.3739 2.4351 0.0000 -13512.2074 2312.3730 0.0000 0.0000 862.3135 -10329.8697 147.9495 -11192.1832 -10328.2989 147.9495 561.0128 617.5290 28568.4935 561.0128 617.5290
ENERGY: 600000 0.8898 5.1021 2.0678 0.0000 -13155.5198 2251.1287 0.0000 0.0000 1052.7673 -9843.5641 180.6262 -10896.3314 -9840.6904 179.9483 1143.3707 1236.0945 28467.6687 4.6372 4.6630
TCL: Running 100000 steps at 210 kelvin.
TCL: Setting parameter langevinTemp to 210
TCL: Running for 100000 steps
ETITLE: TS BOND ANGLE DIHED IMPRP ELECT VDW BOUNDARY MISC KINETIC TOTAL TEMP POTENTIAL TOTAL3 TEMPAVG PRESSURE GPRESSURE VOLUME PRESSAVG GPRESSAVG
ENERGY: 600000 0.8898 5.1021 2.0678 0.0000 -13155.5198 2251.1287 0.0000 0.0000 1052.2652 -9844.0663 180.5400 -10896.3314 -9842.0499 180.5400 1188.5602 1236.9245 28467.6687 1188.5602 1236.9245
ENERGY: 700000 1.3387 5.9611 2.2744 0.0000 -12320.9237 1879.1602 0.0000 0.0000 1235.9926 -9196.1967 212.0627 -10432.1893 -9192.0539 209.2353 -110.2907 10.0064 28622.4088 3.8226 3.8563
TCL: Running 100000 steps at 240 kelvin.
TCL: Setting parameter langevinTemp to 240
TCL: Running for 100000 steps
ETITLE: TS BOND ANGLE DIHED IMPRP ELECT VDW BOUNDARY MISC KINETIC TOTAL TEMP POTENTIAL TOTAL3 TEMPAVG PRESSURE GPRESSURE VOLUME PRESSAVG GPRESSAVG
ENERGY: 700000 1.3387 5.9611 2.2744 0.0000 -12320.9237 1879.1602 0.0000 0.0000 1235.3902 -9196.7991 211.9593 -10432.1893 -9194.2992 211.9593 -61.4802 10.4774 28622.4088 -61.4802 10.4774
ENERGY: 800000 2.5439 7.3836 2.8685 0.0000 -11635.5253 1669.3696 0.0000 0.0000 1387.1374 -8566.2223 237.9950 -9953.3597 -8563.7706 239.9813 -410.8779 -313.5017 28959.6528 3.3674 3.4217
TCL: Running 100000 steps at 270 kelvin.
TCL: Setting parameter langevinTemp to 270
TCL: Running for 100000 steps
ETITLE: TS BOND ANGLE DIHED IMPRP ELECT VDW BOUNDARY MISC KINETIC TOTAL TEMP POTENTIAL TOTAL3 TEMPAVG PRESSURE GPRESSURE VOLUME PRESSAVG GPRESSAVG
ENERGY: 800000 2.5439 7.3836 2.8685 0.0000 -11635.5253 1669.3696 0.0000 0.0000 1386.4286 -8566.9311 237.8734 -9953.3597 -8564.3347 237.8734 -391.1791 -314.1664 28959.6528 -391.1791 -314.1664
ENERGY: 900000 0.7934 6.8998 3.3489 0.0000 -11116.0509 1582.0737 0.0000 0.0000 1537.7048 -7985.2302 263.8282 -9522.9350 -7982.1451 270.3639 320.2569 440.6504 29248.6814 2.8624 3.0518
TCL: Running 1000000 steps at 300 kelvin.
TCL: Setting parameter langevinTemp to 300
TCL: Running for 1000000 steps
ETITLE: TS BOND ANGLE DIHED IMPRP ELECT VDW BOUNDARY MISC KINETIC TOTAL TEMP POTENTIAL TOTAL3 TEMPAVG PRESSURE GPRESSURE VOLUME PRESSAVG GPRESSAVG
ENERGY: 900000 0.7934 6.8998 3.3489 0.0000 -11116.0509 1582.0737 0.0000 0.0000 1536.9162 -7986.0188 263.6929 -9522.9350 -7983.8418 263.6929 356.3942 439.5753 29248.6814 356.3942 439.5753
ENERGY: 1100000 1.8665 12.5408 4.3436 0.0000 -10481.1058 1378.1189 0.0000 0.0000 1815.8517 -7268.3843 311.5507 -9084.2360 -7262.9386 299.8491 25.6683 92.2358 30014.7731 3.0275 2.8788
ENERGY: 1300000 1.6573 9.1822 2.4099 0.0000 -10562.6507 1367.5759 0.0000 0.0000 1773.9592 -7407.8663 304.3631 -9181.8254 -7403.6854 300.0978 -307.6261 -261.8038 29781.2725 2.0597 2.0855
ENERGY: 1500000 1.8735 11.0879 3.0069 0.0000 -10591.9724 1449.9098 0.0000 0.0000 1721.8028 -7404.2915 295.4144 -9126.0942 -7403.5128 300.4626 506.6484 567.2560 30060.5302 1.4315 1.4283
ENERGY: 1700000 1.2264 12.3385 1.5495 0.0000 -10589.6712 1355.0992 0.0000 0.0000 1749.2322 -7470.2253 300.1206 -9219.4574 -7467.5338 299.7680 -457.5305 -395.5206 29922.9378 2.9243 3.1338
ENERGY: 1900000 2.6475 12.9259 3.0427 0.0000 -10489.2783 1378.9091 0.0000 0.0000 1786.3618 -7305.3914 306.4910 -9091.7532 -7300.4766 299.7674 -21.3137 25.8545 29987.7023 2.5952 2.7000
TCL: Exiting due to exit command.
