Info: SIMULATION PARAMETERS:
Info: TIMESTEP               2
Info: NUMBER OF STEPS        0
Info: STEPS PER CYCLE        10
Info: PERIODIC CELL BASIS 1  34.207 0 0
Info: PERIODIC CELL BASIS 2  0 37.796 0
Info: PERIODIC CELL BASIS 3  0 0 34.68
Info: PERIODIC CELL CENTER   0 0 0
Info: WRAPPING WATERS AROUND PERIODIC BOUNDARIES ON OUTPUT.
Info: WRAPPING ALL CLUSTERS AROUND PERIODIC BOUNDARIES ON OUTPUT.
Info: FIRST LDB TIMESTEP     50
Info: LAST LDB TIMESTEP     -1
Info: HOM BACKGROUND SCALING 1
Info: PME BACKGROUND SCALING 1
Info: MIN ATOMS PER PATCH    40
Info: EMPTY PATCH LOAD       40 ATOMS
Info: INITIAL TEMPERATURE    300
Info: CENTER OF MASS MOVING INITIALLY? NO
Info: DIELECTRIC             1
Info: EXCLUDE                SCALED ONE-FOUR
Info: 1-4 ELECTROSTATICS SCALED BY 0.833333
Info: MODIFIED 1-4 VDW PARAMETERS WILL BE USED
Info: DCD FILENAME           mobley_2501588_equil.dcd
Info: DCD FREQUENCY          100000
Info: DCD FIRST STEP         100000
Info: DCD FILE WILL CONTAIN UNIT CELL DATA
Info: XST FILENAME           mobley_2501588_equil.xst
Info: XST FREQUENCY          100000
Info: NO VELOCITY DCD OUTPUT
Info: NO FORCE DCD OUTPUT
Info: OUTPUT FILENAME        mobley_2501588_equil
Info: BINARY OUTPUT FILES WILL BE USED
Info: RESTART FILENAME       mobley_2501588_equil.restart
Info: RESTART FREQUENCY      100000
Info: BINARY RESTART FILES WILL BE USED
Info: CUTOFF                 9
Info: PAIRLIST DISTANCE      11
Info: PAIRLIST SHRINK RATE   0.01
Info: PAIRLIST GROW RATE     0.01
Info: PAIRLIST TRIGGER       0.3
Info: PAIRLISTS PER CYCLE    2
Info: PAIRLISTS ENABLED
Info: MARGIN                 8
Info: HYDROGEN GROUP CUTOFF  2.5
Info: PATCH DIMENSION        21.5
Info: ENERGY OUTPUT STEPS    100000
Info: ENERGY EVALUATION STEPS    100000
Info: OUTPUT ENERGY PRECISION 4
Info: CROSSTERM ENERGY INCLUDED IN DIHEDRAL
Info: TIMING OUTPUT STEPS    1000000
Info: PRESSURE OUTPUT STEPS  100000
Info: LANGEVIN DYNAMICS ACTIVE
Info: LANGEVIN TEMPERATURE   30
Info: LANGEVIN USING BBK INTEGRATOR
Info: LANGEVIN DAMPING COEFFICIENT IS 1 INVERSE PS
Info: LANGEVIN DYNAMICS APPLIED TO HYDROGENS
Info: LANGEVIN PISTON PRESSURE CONTROL ACTIVE
Info:        TARGET PRESSURE IS 1.01325 BAR
Info:     OSCILLATION PERIOD IS 50 FS
Info:             DECAY TIME IS 25 FS
Info:     PISTON TEMPERATURE IS 300 K
Info:       PRESSURE CONTROL IS GROUP-BASED
Info:    INITIAL STRAIN RATE IS 0 0 0
Info:       CELL FLUCTUATION IS ISOTROPIC
Info: PARTICLE MESH EWALD (PME) ACTIVE
Info: PME TOLERANCE               1e-06
Info: PME EWALD COEFFICIENT       0.348832
Info: PME INTERPOLATION ORDER     4
Info: PME GRID DIMENSIONS         36 40 36
Info: PME MAXIMUM GRID SPACING    1
Info: FULL ELECTROSTATIC EVALUATION FREQUENCY      2
Info: USING VERLET I (r-RESPA) MTS SCHEME.
Info: C1 SPLITTING OF LONG RANGE ELECTROSTATICS
Info: PLACING ATOMS IN PATCHES BY HYDROGEN GROUPS
Info: RIGID BONDS TO HYDROGEN : ALL
Info:         ERROR TOLERANCE : 1e-08
Info:          MAX ITERATIONS : 100
Info: RIGID WATER USING SETTLE ALGORITHM
Info: RANDOM NUMBER SEED     1743264189
Info: USE HYDROGEN BONDS?    NO
Info: Using AMBER format force field!
Info: AMBER PARM FILE        mobley_2501588.prmtop
Info: COORDINATE PDB         mobley_2501588.pdb
Info: Exclusions will be read from PARM file!
Info: SCNB (VDW SCALING)     2
Info: USING ARITHMETIC MEAN TO COMBINE L-J SIGMA PARAMETERS
Info: BINARY COORDINATES     mobley_2501588_min.coor
Info: SUMMARY OF PARAMETERS:
Info: 16 BONDS
Info: 25 ANGLES
Info:   25 HARMONIC
Info:   0 COSINE-BASED
Info: 8 DIHEDRAL
Info: 0 IMPROPER
Info: 0 CROSSTERM
Info: 0 VDW
Info: 55 VDW_PAIRS
Info: 0 NBTHOLE_PAIRS
Info: STRUCTURE SUMMARY:
Info: 2905 ATOMS
Info: 2906 BONDS
Info: 75 ANGLES
Info: 112 DIHEDRALS
Info: 0 IMPROPERS
Info: 0 CROSSTERMS
Info: 3068 EXCLUSIONS
Info: 2881 RIGID BONDS
Info: 5834 DEGREES OF FREEDOM
Info: 979 HYDROGEN GROUPS
Info: 4 ATOMS IN LARGEST HYDROGEN GROUP
Info: 979 MIGRATION GROUPS
Info: 4 ATOMS IN LARGEST MIGRATION GROUP
Info: TOTAL MASS = 17552.6 amu
Info: TOTAL CHARGE = 0.000299972 e
Info: MASS DENSITY = 0.65007 g/cm^3
Info: ATOM DENSITY = 0.0647897 atoms/A^3
Info: ADDED 0 IMPLICIT EXCLUSIONS
Info: NONBONDED TABLE R-SQUARED SPACING: 0.0625
Info: NONBONDED TABLE SIZE: 705 POINTS
Info: REMOVING COM VELOCITY -0.140052 -0.00653752 0.0123478
TCL: Running for 100000 steps
ETITLE: TS BOND ANGLE DIHED IMPRP ELECT VDW BOUNDARY MISC KINETIC TOTAL TEMP POTENTIAL TOTAL3 TEMPAVG PRESSURE GPRESSURE VOLUME PRESSAVG GPRESSAVG
ENERGY: 0 0.8419 1.4016 19.9754 0.0000 -13368.3291 2366.6267 0.0000 0.0000 1750.2225 -9229.2611 301.9376 -10979.4836 -9228.9317 301.9376 584.9581 611.1637 44837.3479 584.9581 611.1637
ENERGY: 100000 1.4623 3.1427 20.4069 0.0000 -13810.8931 2313.0951 0.0000 0.0000 178.2053 -11294.5809 30.7429 -11472.7862 -11294.1460 30.9343 -814.1397 -749.8032 28328.7031 5.4191 5.4665
TCL: Running 100000 steps at 60 kelvin.
TCL: Setting parameter langevinTemp to 60
TCL: Running for 100000 steps
ETITLE: TS BOND ANGLE DIHED IMPRP ELECT VDW BOUNDARY MISC KINETIC TOTAL TEMP POTENTIAL TOTAL3 TEMPAVG PRESSURE GPRESSURE VOLUME PRESSAVG GPRESSAVG
ENERGY: 100000 1.4623 3.1427 20.4069 0.0000 -13810.8931 2313.0951 0.0000 0.0000 178.1217 -11294.6644 30.7285 -11472.7862 -11294.3083 30.7285 -794.9660 -749.7683 28328.7031 -794.9660 -749.7683
ENERGY: 200000 2.1869 5.3079 21.1951 0.0000 -13727.5207 2314.5146 0.0000 0.0000 344.7471 -11039.5692 59.4736 -11384.3163 -11038.3589 60.0099 -430.2545 -377.6803 28362.4957 3.0479 3.0504
TCL: Running 100000 steps at 90 kelvin.
TCL: Setting parameter langevinTemp to 90
TCL: Running for 100000 steps
ETITLE: TS BOND ANGLE DIHED IMPRP ELECT VDW BOUNDARY MISC KINETIC TOTAL TEMP POTENTIAL TOTAL3 TEMPAVG PRESSURE GPRESSURE VOLUME PRESSAVG GPRESSAVG
ENERGY: 200000 2.1869 5.3079 21.1951 0.0000 -13727.5207 2314.5146 0.0000 0.0000 344.5729 -11039.7434 59.4436 -11384.3163 -11038.9663 59.4436 -430.3661 -377.5911 28362.4957 -430.3661 -377.5911
ENERGY: 300000 1.4657 5.7000 20.3318 0.0000 -13710.9406 2393.5482 0.0000 0.0000 517.0379 -10772.8569 89.1962 -11289.8948 -10772.3738 90.0858 543.5648 603.7167 28466.1384 4.3798 4.3683
TCL: Running 100000 steps at 120 kelvin.
TCL: Setting parameter langevinTemp to 120
TCL: Running for 100000 steps
ETITLE: TS BOND ANGLE DIHED IMPRP ELECT VDW BOUNDARY MISC KINETIC TOTAL TEMP POTENTIAL TOTAL3 TEMPAVG PRESSURE GPRESSURE VOLUME PRESSAVG GPRESSAVG
ENERGY: 300000 1.4657 5.7000 20.3318 0.0000 -13710.9406 2393.5482 0.0000 0.0000 516.7862 -10773.1086 89.1528 -11289.8948 -10772.2289 89.1528 553.9608 603.3793 28466.1384 553.9608 603.3793
ENERGY: 400000 4.4977 7.3074 21.2073 0.0000 -13439.6097 2238.6062 0.0000 0.0000 694.6195 -10473.3715 119.8315 -11167.9910 -10471.0526 119.9171 -355.8030 -338.0782 28632.4448 4.8016 4.6623
TCL: Running 100000 steps at 150 kelvin.
TCL: Setting parameter langevinTemp to 150
TCL: Running for 100000 steps
ETITLE: TS BOND ANGLE DIHED IMPRP ELECT VDW BOUNDARY MISC KINETIC TOTAL TEMP POTENTIAL TOTAL3 TEMPAVG PRESSURE GPRESSURE VOLUME PRESSAVG GPRESSAVG
ENERGY: 400000 4.4977 7.3074 21.2073 0.0000 -13439.6097 2238.6062 0.0000 0.0000 694.2740 -10473.7170 119.7719 -11167.9910 -10471.8486 119.7719 -391.2351 -338.3844 28632.4448 -391.2351 -338.3844
ENERGY: 500000 6.0573 9.5661 23.5813 0.0000 -13139.8659 2126.8950 0.0000 0.0000 869.8309 -10103.9353 150.0579 -10973.7662 -10101.9854 150.1528 -468.1394 -448.2039 28431.4800 4.5062 4.3730
TCL: Running 100000 steps at 180 kelvin.
TCL: Setting parameter langevinTemp to 180
TCL: Running for 100000 steps
ETITLE: TS BOND ANGLE DIHED IMPRP ELECT VDW BOUNDARY MISC KINETIC TOTAL TEMP POTENTIAL TOTAL3 TEMPAVG PRESSURE GPRESSURE VOLUME PRESSAVG GPRESSAVG
ENERGY: 500000 6.0573 9.5661 23.5813 0.0000 -13139.8659 2126.8950 0.0000 0.0000 869.3944 -10104.3718 149.9826 -10973.7662 -10102.6536 149.9826 -503.7067 -448.3869 28431.4800 -503.7067 -448.3869
ENERGY: 600000 2.2269 13.1071 26.2509 0.0000 -12813.1114 2055.2592 0.0000 0.0000 1046.2182 -9670.0491 180.4871 -10716.2673 -9666.8858 179.6808 -14.6649 76.5218 28513.6667 4.4300 4.3555
TCL: Running 100000 steps at 210 kelvin.
TCL: Setting parameter langevinTemp to 210
TCL: Running for 100000 steps
ETITLE: TS BOND ANGLE DIHED IMPRP ELECT VDW BOUNDARY MISC KINETIC TOTAL TEMP POTENTIAL TOTAL3 TEMPAVG PRESSURE GPRESSURE VOLUME PRESSAVG GPRESSAVG
ENERGY: 600000 2.2269 13.1071 26.2509 0.0000 -12813.1114 2055.2592 0.0000 0.0000 1045.7252 -9670.5421 180.4021 -10716.2673 -9668.7353 180.4021 6.7232 78.5001 28513.6667 6.7232 78.5001
ENERGY: 700000 5.8644 13.9738 24.5235 0.0000 -12043.9179 1744.5108 0.0000 0.0000 1205.5235 -9049.5218 207.9695 -10255.0453 -9047.1195 210.0477 -561.1863 -421.2438 28262.1649 2.0833 2.0675
TCL: Running 100000 steps at 240 kelvin.
TCL: Setting parameter langevinTemp to 240
TCL: Running for 100000 steps
ETITLE: TS BOND ANGLE DIHED IMPRP ELECT VDW BOUNDARY MISC KINETIC TOTAL TEMP POTENTIAL TOTAL3 TEMPAVG PRESSURE GPRESSURE VOLUME PRESSAVG GPRESSAVG
ENERGY: 700000 5.8644 13.9738 24.5235 0.0000 -12043.9179 1744.5108 0.0000 0.0000 1204.9274 -9050.1179 207.8667 -10255.0453 -9047.4360 207.8667 -508.7689 -421.7283 28262.1649 -508.7689 -421.7283
ENERGY: 800000 5.4243 15.0743 23.3748 0.0000 -11506.5812 1638.6627 0.0000 0.0000 1374.3380 -8449.7070 237.0923 -9824.0450 -8446.4554 239.9007 20.8402 134.5961 28502.4522 3.3569 3.3280
TCL: Running 100000 steps at 270 kelvin.
TCL: Setting parameter langevinTemp to 270
TCL: Running for 100000 steps
ETITLE: TS BOND ANGLE DIHED IMPRP ELECT VDW BOUNDARY MISC KINETIC TOTAL TEMP POTENTIAL TOTAL3 TEMPAVG PRESSURE GPRESSURE VOLUME PRESSAVG GPRESSAVG
ENERGY: 800000 5.4243 15.0743 23.3748 0.0000 -11506.5812 1638.6627 0.0000 0.0000 1373.6537 -8450.3913 236.9743 -9824.0450 -8448.1656 236.9743 53.1920 134.4591 28502.4522 53.1920 134.4591
ENERGY: 900000 5.7136 10.2807 25.0314 0.0000 -11017.3727 1567.9054 0.0000 0.0000 1572.4940 -7835.9475 271.2770 -9408.4415 -7833.8297 269.6736 471.1249 597.2318 28879.4709 2.5162 2.3886
TCL: Running 1000000 steps at 300 kelvin.
TCL: Setting parameter langevinTemp to 300
TCL: Running for 1000000 steps
ETITLE: TS BOND ANGLE DIHED IMPRP ELECT VDW BOUNDARY MISC KINETIC TOTAL TEMP POTENTIAL TOTAL3 TEMPAVG PRESSURE GPRESSURE VOLUME PRESSAVG GPRESSAVG
ENERGY: 900000 5.7136 10.2807 25.0314 0.0000 -11017.3727 1567.9054 0.0000 0.0000 1571.7351 -7836.7064 271.1461 -9408.4415 -7833.8514 271.1461 526.0149 597.1924 28879.4709 526.0149 597.1924
ENERGY: 1100000 7.5965 24.2266 27.7047 0.0000 -10505.7662 1475.7922 0.0000 0.0000 1779.9851 -7190.4610 307.0721 -8970.4461 -7185.3667 300.3674 506.5621 570.4294 30341.0207 2.7467 2.7841
ENERGY: 1300000 9.2932 19.0260 26.8344 0.0000 -10418.0283 1395.5867 0.0000 0.0000 1793.7634 -7173.5246 309.4490 -8967.2880 -7170.9565 299.9446 169.9141 235.1709 30135.3723 2.8006 2.6105
ENERGY: 1500000 9.0983 17.0751 24.2160 0.0000 -10509.4996 1352.2525 0.0000 0.0000 1691.8155 -7415.0421 291.8616 -9106.8576 -7410.4086 299.8470 -393.7418 -298.1150 29707.1865 3.9249 4.0230
ENERGY: 1700000 8.0464 12.0863 29.8513 0.0000 -10424.7725 1374.3914 0.0000 0.0000 1729.6030 -7270.7941 298.3805 -9000.3972 -7265.8566 300.0843 227.7617 286.6758 29881.8884 3.6364 3.4283
ENERGY: 1900000 5.4450 23.9966 26.3170 0.0000 -10488.6757 1385.6755 0.0000 0.0000 1791.0725 -7256.1693 308.9848 -9047.2418 -7252.0080 300.1094 -8.8779 116.3162 29869.5774 4.6607 4.6291
TCL: Exiting due to exit command.
