Info: SIMULATION PARAMETERS:
Info: TIMESTEP               2
Info: NUMBER OF STEPS        0
Info: STEPS PER CYCLE        10
Info: PERIODIC CELL BASIS 1  34.986 0 0
Info: PERIODIC CELL BASIS 2  0 36.451 0
Info: PERIODIC CELL BASIS 3  0 0 35.723
Info: PERIODIC CELL CENTER   0 0 0
Info: WRAPPING WATERS AROUND PERIODIC BOUNDARIES ON OUTPUT.
Info: WRAPPING ALL CLUSTERS AROUND PERIODIC BOUNDARIES ON OUTPUT.
Info: FIRST LDB TIMESTEP     50
Info: LAST LDB TIMESTEP     -1
Info: HOM BACKGROUND SCALING 1
Info: PME BACKGROUND SCALING 1
Info: MIN ATOMS PER PATCH    40
Info: EMPTY PATCH LOAD       40 ATOMS
Info: INITIAL TEMPERATURE    300
Info: CENTER OF MASS MOVING INITIALLY? NO
Info: DIELECTRIC             1
Info: EXCLUDE                SCALED ONE-FOUR
Info: 1-4 ELECTROSTATICS SCALED BY 0.833333
Info: MODIFIED 1-4 VDW PARAMETERS WILL BE USED
Info: DCD FILENAME           mobley_1352110_equil.dcd
Info: DCD FREQUENCY          100000
Info: DCD FIRST STEP         100000
Info: DCD FILE WILL CONTAIN UNIT CELL DATA
Info: XST FILENAME           mobley_1352110_equil.xst
Info: XST FREQUENCY          100000
Info: NO VELOCITY DCD OUTPUT
Info: NO FORCE DCD OUTPUT
Info: OUTPUT FILENAME        mobley_1352110_equil
Info: BINARY OUTPUT FILES WILL BE USED
Info: RESTART FILENAME       mobley_1352110_equil.restart
Info: RESTART FREQUENCY      100000
Info: BINARY RESTART FILES WILL BE USED
Info: CUTOFF                 9
Info: PAIRLIST DISTANCE      11
Info: PAIRLIST SHRINK RATE   0.01
Info: PAIRLIST GROW RATE     0.01
Info: PAIRLIST TRIGGER       0.3
Info: PAIRLISTS PER CYCLE    2
Info: PAIRLISTS ENABLED
Info: MARGIN                 8
Info: HYDROGEN GROUP CUTOFF  2.5
Info: PATCH DIMENSION        21.5
Info: ENERGY OUTPUT STEPS    100000
Info: ENERGY EVALUATION STEPS    100000
Info: OUTPUT ENERGY PRECISION 4
Info: CROSSTERM ENERGY INCLUDED IN DIHEDRAL
Info: TIMING OUTPUT STEPS    1000000
Info: PRESSURE OUTPUT STEPS  100000
Info: LANGEVIN DYNAMICS ACTIVE
Info: LANGEVIN TEMPERATURE   30
Info: LANGEVIN USING BBK INTEGRATOR
Info: LANGEVIN DAMPING COEFFICIENT IS 1 INVERSE PS
Info: LANGEVIN DYNAMICS APPLIED TO HYDROGENS
Info: LANGEVIN PISTON PRESSURE CONTROL ACTIVE
Info:        TARGET PRESSURE IS 1.01325 BAR
Info:     OSCILLATION PERIOD IS 50 FS
Info:             DECAY TIME IS 25 FS
Info:     PISTON TEMPERATURE IS 300 K
Info:       PRESSURE CONTROL IS GROUP-BASED
Info:    INITIAL STRAIN RATE IS 0 0 0
Info:       CELL FLUCTUATION IS ISOTROPIC
Info: PARTICLE MESH EWALD (PME) ACTIVE
Info: PME TOLERANCE               1e-06
Info: PME EWALD COEFFICIENT       0.348832
Info: PME INTERPOLATION ORDER     4
Info: PME GRID DIMENSIONS         36 40 36
Info: PME MAXIMUM GRID SPACING    1
Info: FULL ELECTROSTATIC EVALUATION FREQUENCY      2
Info: USING VERLET I (r-RESPA) MTS SCHEME.
Info: C1 SPLITTING OF LONG RANGE ELECTROSTATICS
Info: PLACING ATOMS IN PATCHES BY HYDROGEN GROUPS
Info: RIGID BONDS TO HYDROGEN : ALL
Info:         ERROR TOLERANCE : 1e-08
Info:          MAX ITERATIONS : 100
Info: RIGID WATER USING SETTLE ALGORITHM
Info: RANDOM NUMBER SEED     1743262851
Info: USE HYDROGEN BONDS?    NO
Info: Using AMBER format force field!
Info: AMBER PARM FILE        mobley_1352110.prmtop
Info: COORDINATE PDB         mobley_1352110.pdb
Info: Exclusions will be read from PARM file!
Info: SCNB (VDW SCALING)     2
Info: USING ARITHMETIC MEAN TO COMBINE L-J SIGMA PARAMETERS
Info: BINARY COORDINATES     mobley_1352110_min.coor
Info: SUMMARY OF PARAMETERS:
Info: 10 BONDS
Info: 15 ANGLES
Info:   15 HARMONIC
Info:   0 COSINE-BASED
Info: 14 DIHEDRAL
Info: 0 IMPROPER
Info: 0 CROSSTERM
Info: 0 VDW
Info: 45 VDW_PAIRS
Info: 0 NBTHOLE_PAIRS
Info: STRUCTURE SUMMARY:
Info: 2947 ATOMS
Info: 2946 BONDS
Info: 61 ANGLES
Info: 85 DIHEDRALS
Info: 0 IMPROPERS
Info: 0 CROSSTERMS
Info: 3082 EXCLUSIONS
Info: 2934 RIGID BONDS
Info: 5907 DEGREES OF FREEDOM
Info: 984 HYDROGEN GROUPS
Info: 4 ATOMS IN LARGEST HYDROGEN GROUP
Info: 984 MIGRATION GROUPS
Info: 4 ATOMS IN LARGEST MIGRATION GROUP
Info: TOTAL MASS = 17696.9 amu
Info: TOTAL CHARGE = 0.000200049 e
Info: MASS DENSITY = 0.645066 g/cm^3
Info: ATOM DENSITY = 0.0646887 atoms/A^3
Info: ADDED 0 IMPLICIT EXCLUSIONS
Info: NONBONDED TABLE R-SQUARED SPACING: 0.0625
Info: NONBONDED TABLE SIZE: 705 POINTS
Info: REMOVING COM VELOCITY -0.0964918 -0.0574391 -0.0126888
TCL: Running for 100000 steps
ETITLE: TS BOND ANGLE DIHED IMPRP ELECT VDW BOUNDARY MISC KINETIC TOTAL TEMP POTENTIAL TOTAL3 TEMPAVG PRESSURE GPRESSURE VOLUME PRESSAVG GPRESSAVG
ENERGY: 0 0.3298 1.5046 1.8107 0.0000 -13594.1512 2424.1932 0.0000 0.0000 1792.1715 -9374.1414 305.3535 -11166.3129 -9373.7643 305.3535 557.7951 597.4679 45556.6376 557.7951 597.4679
ENERGY: 100000 0.9769 2.8683 2.1590 0.0000 -13964.3049 2357.9498 0.0000 0.0000 173.5124 -11426.8386 29.5634 -11600.3510 -11426.2714 30.8794 -837.1978 -770.3813 29774.7215 4.8479 4.8542
TCL: Running 100000 steps at 60 kelvin.
TCL: Setting parameter langevinTemp to 60
TCL: Running for 100000 steps
ETITLE: TS BOND ANGLE DIHED IMPRP ELECT VDW BOUNDARY MISC KINETIC TOTAL TEMP POTENTIAL TOTAL3 TEMPAVG PRESSURE GPRESSURE VOLUME PRESSAVG GPRESSAVG
ENERGY: 100000 0.9769 2.8683 2.1590 0.0000 -13964.3049 2357.9498 0.0000 0.0000 173.4237 -11426.9273 29.5483 -11600.3510 -11426.5279 29.5483 -811.6253 -770.3017 29774.7215 -811.6253 -770.3017
ENERGY: 200000 0.6830 4.2848 2.5805 0.0000 -13945.4080 2355.1469 0.0000 0.0000 365.7681 -11216.9447 62.3203 -11582.7128 -11215.9192 60.0833 -479.6603 -445.2354 29169.9254 5.2145 5.2077
TCL: Running 100000 steps at 90 kelvin.
TCL: Setting parameter langevinTemp to 90
TCL: Running for 100000 steps
ETITLE: TS BOND ANGLE DIHED IMPRP ELECT VDW BOUNDARY MISC KINETIC TOTAL TEMP POTENTIAL TOTAL3 TEMPAVG PRESSURE GPRESSURE VOLUME PRESSAVG GPRESSAVG
ENERGY: 200000 0.6830 4.2848 2.5805 0.0000 -13945.4080 2355.1469 0.0000 0.0000 365.5864 -11217.1264 62.2893 -11582.7128 -11216.3286 62.2893 -492.0802 -445.0797 29169.9254 -492.0802 -445.0797
ENERGY: 300000 2.0634 5.1160 2.9502 0.0000 -13972.6241 2472.1030 0.0000 0.0000 529.3992 -10960.9924 90.2000 -11490.3916 -10959.4804 90.1013 1072.2094 1091.0126 28669.2176 4.6385 4.6370
TCL: Running 100000 steps at 120 kelvin.
TCL: Setting parameter langevinTemp to 120
TCL: Running for 100000 steps
ETITLE: TS BOND ANGLE DIHED IMPRP ELECT VDW BOUNDARY MISC KINETIC TOTAL TEMP POTENTIAL TOTAL3 TEMPAVG PRESSURE GPRESSURE VOLUME PRESSAVG GPRESSAVG
ENERGY: 300000 2.0634 5.1160 2.9502 0.0000 -13972.6241 2472.1030 0.0000 0.0000 529.1280 -10961.2637 90.1538 -11490.3916 -10960.2800 90.1538 1045.6566 1091.1131 28669.2176 1045.6566 1091.1131
ENERGY: 400000 3.9334 8.3952 3.4804 0.0000 -13630.5298 2251.6992 0.0000 0.0000 697.6558 -10665.3658 118.8679 -11363.0217 -10662.8980 120.0959 -591.0317 -504.3683 28932.1660 4.2578 4.2306
TCL: Running 100000 steps at 150 kelvin.
TCL: Setting parameter langevinTemp to 150
TCL: Running for 100000 steps
ETITLE: TS BOND ANGLE DIHED IMPRP ELECT VDW BOUNDARY MISC KINETIC TOTAL TEMP POTENTIAL TOTAL3 TEMPAVG PRESSURE GPRESSURE VOLUME PRESSAVG GPRESSAVG
ENERGY: 400000 3.9334 8.3952 3.4804 0.0000 -13630.5298 2251.6992 0.0000 0.0000 697.2892 -10665.7324 118.8055 -11363.0217 -10664.3098 118.8055 -563.5947 -504.0455 28932.1660 -563.5947 -504.0455
ENERGY: 500000 1.1844 12.2328 3.1886 0.0000 -13535.4605 2307.1441 0.0000 0.0000 879.5792 -10332.1313 149.8644 -11211.7105 -10330.5036 150.1240 775.7897 853.7793 28627.4067 5.2818 5.1422
TCL: Running 100000 steps at 180 kelvin.
TCL: Setting parameter langevinTemp to 180
TCL: Running for 100000 steps
ETITLE: TS BOND ANGLE DIHED IMPRP ELECT VDW BOUNDARY MISC KINETIC TOTAL TEMP POTENTIAL TOTAL3 TEMPAVG PRESSURE GPRESSURE VOLUME PRESSAVG GPRESSAVG
ENERGY: 500000 1.1844 12.2328 3.1886 0.0000 -13535.4605 2307.1441 0.0000 0.0000 879.1385 -10332.5720 149.7893 -11211.7105 -10330.8610 149.7893 790.5962 853.3619 28627.4067 790.5962 853.3619
ENERGY: 600000 2.8204 11.7845 3.7345 0.0000 -13238.1887 2235.6947 0.0000 0.0000 1009.1418 -9975.0128 171.9395 -10984.1546 -9973.2227 180.1493 776.1975 881.5512 28853.8298 2.4621 2.4977
TCL: Running 100000 steps at 210 kelvin.
TCL: Setting parameter langevinTemp to 210
TCL: Running for 100000 steps
ETITLE: TS BOND ANGLE DIHED IMPRP ELECT VDW BOUNDARY MISC KINETIC TOTAL TEMP POTENTIAL TOTAL3 TEMPAVG PRESSURE GPRESSURE VOLUME PRESSAVG GPRESSAVG
ENERGY: 600000 2.8204 11.7845 3.7345 0.0000 -13238.1887 2235.6947 0.0000 0.0000 1008.6053 -9975.5493 171.8481 -10984.1546 -9973.3151 171.8481 825.8665 879.3326 28853.8298 825.8665 879.3326
ENERGY: 700000 3.9947 13.3507 7.5114 0.0000 -12349.0690 1855.6460 0.0000 0.0000 1202.3695 -9266.1966 204.8620 -10468.5661 -9263.2260 209.7519 -348.8555 -274.2467 28950.8491 4.3849 4.3287
TCL: Running 100000 steps at 240 kelvin.
TCL: Setting parameter langevinTemp to 240
TCL: Running for 100000 steps
ETITLE: TS BOND ANGLE DIHED IMPRP ELECT VDW BOUNDARY MISC KINETIC TOTAL TEMP POTENTIAL TOTAL3 TEMPAVG PRESSURE GPRESSURE VOLUME PRESSAVG GPRESSAVG
ENERGY: 700000 3.9947 13.3507 7.5114 0.0000 -12349.0690 1855.6460 0.0000 0.0000 1201.7612 -9266.8050 204.7583 -10468.5661 -9264.7210 204.7583 -357.3605 -274.9235 28950.8491 -357.3605 -274.9235
ENERGY: 800000 3.6342 11.8061 4.0136 0.0000 -11725.1929 1681.0776 0.0000 0.0000 1367.5996 -8657.0619 233.0142 -10024.6615 -8654.6548 239.5666 -109.7657 20.4848 28663.2216 4.0445 3.9257
TCL: Running 100000 steps at 270 kelvin.
TCL: Setting parameter langevinTemp to 270
TCL: Running for 100000 steps
ETITLE: TS BOND ANGLE DIHED IMPRP ELECT VDW BOUNDARY MISC KINETIC TOTAL TEMP POTENTIAL TOTAL3 TEMPAVG PRESSURE GPRESSURE VOLUME PRESSAVG GPRESSAVG
ENERGY: 800000 3.6342 11.8061 4.0136 0.0000 -11725.1929 1681.0776 0.0000 0.0000 1366.8863 -8657.7752 232.8927 -10024.6615 -8655.4217 232.8927 -63.9571 20.0414 28663.2216 -63.9571 20.0414
ENERGY: 900000 2.6818 13.9295 6.3987 0.0000 -11081.0746 1481.6458 0.0000 0.0000 1572.7820 -8003.6369 267.9736 -9576.4188 -7998.1413 270.0082 -650.1197 -570.6089 29837.7800 2.3535 2.4736
TCL: Running 1000000 steps at 300 kelvin.
TCL: Setting parameter langevinTemp to 300
TCL: Running for 1000000 steps
ETITLE: TS BOND ANGLE DIHED IMPRP ELECT VDW BOUNDARY MISC KINETIC TOTAL TEMP POTENTIAL TOTAL3 TEMPAVG PRESSURE GPRESSURE VOLUME PRESSAVG GPRESSAVG
ENERGY: 900000 2.6818 13.9295 6.3987 0.0000 -11081.0746 1481.6458 0.0000 0.0000 1571.9884 -8004.4304 267.8383 -9576.4188 -8001.8704 267.8383 -646.5778 -568.8586 29837.7800 -646.5778 -568.8586
ENERGY: 1100000 3.6028 21.8814 5.8367 0.0000 -10731.6995 1501.2662 0.0000 0.0000 1737.5361 -7461.5763 296.0447 -9199.1124 -7454.6269 301.1074 474.9438 609.6311 30327.7835 2.8881 2.8302
ENERGY: 1300000 6.7023 18.7498 4.2864 0.0000 -10712.6080 1466.9852 0.0000 0.0000 1761.2616 -7454.6226 300.0871 -9215.8842 -7450.5003 299.5037 214.6127 282.7371 30286.6687 4.0848 4.0991
ENERGY: 1500000 4.5169 14.7843 7.0856 0.0000 -10736.9144 1512.8969 0.0000 0.0000 1745.0249 -7452.6059 297.3206 -9197.6308 -7449.2303 300.1114 538.9979 635.8000 30400.5328 4.3945 4.3455
ENERGY: 1700000 8.3115 14.9047 13.5379 0.0000 -10654.8318 1412.2615 0.0000 0.0000 1771.9235 -7433.8927 301.9037 -9205.8162 -7430.9653 300.1195 -283.2623 -149.0203 30332.7707 2.7095 2.6521
ENERGY: 1900000 2.4446 20.5297 4.6954 0.0000 -10451.3420 1367.5548 0.0000 0.0000 1759.5121 -7296.6054 299.7890 -9056.1175 -7293.5135 300.1067 22.8185 93.8426 30700.1625 4.2795 4.3132
TCL: Exiting due to exit command.
