Info: SIMULATION PARAMETERS:
Info: TIMESTEP               2
Info: NUMBER OF STEPS        0
Info: STEPS PER CYCLE        10
Info: PERIODIC CELL BASIS 1  37.435 0 0
Info: PERIODIC CELL BASIS 2  0 35.267 0
Info: PERIODIC CELL BASIS 3  0 0 33.876
Info: PERIODIC CELL CENTER   0 0 0
Info: WRAPPING WATERS AROUND PERIODIC BOUNDARIES ON OUTPUT.
Info: WRAPPING ALL CLUSTERS AROUND PERIODIC BOUNDARIES ON OUTPUT.
Info: FIRST LDB TIMESTEP     50
Info: LAST LDB TIMESTEP     -1
Info: HOM BACKGROUND SCALING 1
Info: PME BACKGROUND SCALING 1
Info: MIN ATOMS PER PATCH    40
Info: EMPTY PATCH LOAD       40 ATOMS
Info: INITIAL TEMPERATURE    300
Info: CENTER OF MASS MOVING INITIALLY? NO
Info: DIELECTRIC             1
Info: EXCLUDE                SCALED ONE-FOUR
Info: 1-4 ELECTROSTATICS SCALED BY 0.833333
Info: MODIFIED 1-4 VDW PARAMETERS WILL BE USED
Info: DCD FILENAME           mobley_6522117_equil.dcd
Info: DCD FREQUENCY          100000
Info: DCD FIRST STEP         100000
Info: DCD FILE WILL CONTAIN UNIT CELL DATA
Info: XST FILENAME           mobley_6522117_equil.xst
Info: XST FREQUENCY          100000
Info: NO VELOCITY DCD OUTPUT
Info: NO FORCE DCD OUTPUT
Info: OUTPUT FILENAME        mobley_6522117_equil
Info: BINARY OUTPUT FILES WILL BE USED
Info: RESTART FILENAME       mobley_6522117_equil.restart
Info: RESTART FREQUENCY      100000
Info: BINARY RESTART FILES WILL BE USED
Info: CUTOFF                 9
Info: PAIRLIST DISTANCE      11
Info: PAIRLIST SHRINK RATE   0.01
Info: PAIRLIST GROW RATE     0.01
Info: PAIRLIST TRIGGER       0.3
Info: PAIRLISTS PER CYCLE    2
Info: PAIRLISTS ENABLED
Info: MARGIN                 8
Info: HYDROGEN GROUP CUTOFF  2.5
Info: PATCH DIMENSION        21.5
Info: ENERGY OUTPUT STEPS    100000
Info: ENERGY EVALUATION STEPS    100000
Info: OUTPUT ENERGY PRECISION 4
Info: CROSSTERM ENERGY INCLUDED IN DIHEDRAL
Info: TIMING OUTPUT STEPS    1000000
Info: PRESSURE OUTPUT STEPS  100000
Info: LANGEVIN DYNAMICS ACTIVE
Info: LANGEVIN TEMPERATURE   30
Info: LANGEVIN USING BBK INTEGRATOR
Info: LANGEVIN DAMPING COEFFICIENT IS 1 INVERSE PS
Info: LANGEVIN DYNAMICS APPLIED TO HYDROGENS
Info: LANGEVIN PISTON PRESSURE CONTROL ACTIVE
Info:        TARGET PRESSURE IS 1.01325 BAR
Info:     OSCILLATION PERIOD IS 50 FS
Info:             DECAY TIME IS 25 FS
Info:     PISTON TEMPERATURE IS 300 K
Info:       PRESSURE CONTROL IS GROUP-BASED
Info:    INITIAL STRAIN RATE IS 0 0 0
Info:       CELL FLUCTUATION IS ISOTROPIC
Info: PARTICLE MESH EWALD (PME) ACTIVE
Info: PME TOLERANCE               1e-06
Info: PME EWALD COEFFICIENT       0.348832
Info: PME INTERPOLATION ORDER     4
Info: PME GRID DIMENSIONS         40 36 36
Info: PME MAXIMUM GRID SPACING    1
Info: FULL ELECTROSTATIC EVALUATION FREQUENCY      2
Info: USING VERLET I (r-RESPA) MTS SCHEME.
Info: C1 SPLITTING OF LONG RANGE ELECTROSTATICS
Info: PLACING ATOMS IN PATCHES BY HYDROGEN GROUPS
Info: RIGID BONDS TO HYDROGEN : ALL
Info:         ERROR TOLERANCE : 1e-08
Info:          MAX ITERATIONS : 100
Info: RIGID WATER USING SETTLE ALGORITHM
Info: RANDOM NUMBER SEED     1743264137
Info: USE HYDROGEN BONDS?    NO
Info: Using AMBER format force field!
Info: AMBER PARM FILE        mobley_6522117.prmtop
Info: COORDINATE PDB         mobley_6522117.pdb
Info: Exclusions will be read from PARM file!
Info: SCNB (VDW SCALING)     2
Info: USING ARITHMETIC MEAN TO COMBINE L-J SIGMA PARAMETERS
Info: BINARY COORDINATES     mobley_6522117_min.coor
Info: SUMMARY OF PARAMETERS:
Info: 16 BONDS
Info: 20 ANGLES
Info:   20 HARMONIC
Info:   0 COSINE-BASED
Info: 15 DIHEDRAL
Info: 0 IMPROPER
Info: 0 CROSSTERM
Info: 0 VDW
Info: 78 VDW_PAIRS
Info: 0 NBTHOLE_PAIRS
Info: STRUCTURE SUMMARY:
Info: 2959 ATOMS
Info: 2959 BONDS
Info: 57 ANGLES
Info: 89 DIHEDRALS
Info: 0 IMPROPERS
Info: 0 CROSSTERMS
Info: 3080 EXCLUSIONS
Info: 2939 RIGID BONDS
Info: 5938 DEGREES OF FREEDOM
Info: 995 HYDROGEN GROUPS
Info: 4 ATOMS IN LARGEST HYDROGEN GROUP
Info: 995 MIGRATION GROUPS
Info: 4 ATOMS IN LARGEST MIGRATION GROUP
Info: TOTAL MASS = 17925.2 amu
Info: TOTAL CHARGE = -0.000500076 e
Info: MASS DENSITY = 0.665554 g/cm^3
Info: ATOM DENSITY = 0.0661617 atoms/A^3
Info: ADDED 0 IMPLICIT EXCLUSIONS
Info: NONBONDED TABLE R-SQUARED SPACING: 0.0625
Info: NONBONDED TABLE SIZE: 705 POINTS
Info: REMOVING COM VELOCITY -0.0207555 -0.0835017 0.0402937
TCL: Running for 100000 steps
ETITLE: TS BOND ANGLE DIHED IMPRP ELECT VDW BOUNDARY MISC KINETIC TOTAL TEMP POTENTIAL TOTAL3 TEMPAVG PRESSURE GPRESSURE VOLUME PRESSAVG GPRESSAVG
ENERGY: 0 0.3460 1.0457 31.7548 0.0000 -13629.6440 2384.4973 0.0000 0.0000 1806.5403 -9405.4599 306.1948 -11212.0002 -9405.0728 306.1948 475.2021 505.2742 44723.7776 475.2021 505.2742
ENERGY: 100000 1.2996 1.7096 34.2899 0.0000 -14339.8854 2546.2235 0.0000 0.0000 181.0955 -11575.2674 30.6943 -11756.3628 -11574.6951 30.9411 814.8711 863.7262 28754.7460 4.5583 4.5886
TCL: Running 100000 steps at 60 kelvin.
TCL: Setting parameter langevinTemp to 60
TCL: Running for 100000 steps
ETITLE: TS BOND ANGLE DIHED IMPRP ELECT VDW BOUNDARY MISC KINETIC TOTAL TEMP POTENTIAL TOTAL3 TEMPAVG PRESSURE GPRESSURE VOLUME PRESSAVG GPRESSAVG
ENERGY: 100000 1.2996 1.7096 34.2899 0.0000 -14339.8854 2546.2235 0.0000 0.0000 181.0078 -11575.3551 30.6794 -11756.3628 -11574.8489 30.6794 815.2388 863.7132 28754.7460 815.2388 863.7132
ENERGY: 200000 1.1822 3.5072 34.8162 0.0000 -14033.1991 2323.0359 0.0000 0.0000 350.5254 -11320.1321 59.4114 -11670.6575 -11319.1060 59.8723 -494.5046 -426.4936 28893.3320 4.1648 4.1853
TCL: Running 100000 steps at 90 kelvin.
TCL: Setting parameter langevinTemp to 90
TCL: Running for 100000 steps
ETITLE: TS BOND ANGLE DIHED IMPRP ELECT VDW BOUNDARY MISC KINETIC TOTAL TEMP POTENTIAL TOTAL3 TEMPAVG PRESSURE GPRESSURE VOLUME PRESSAVG GPRESSAVG
ENERGY: 200000 1.1822 3.5072 34.8162 0.0000 -14033.1991 2323.0359 0.0000 0.0000 350.3518 -11320.3057 59.3820 -11670.6575 -11319.5692 59.3820 -477.2500 -426.4578 28893.3320 -477.2500 -426.4578
ENERGY: 300000 2.6319 4.4336 33.9744 0.0000 -13926.4239 2297.0301 0.0000 0.0000 547.7383 -11040.6156 92.8375 -11588.3539 -11039.0520 89.9549 -523.7413 -445.1975 28788.2909 4.8890 4.8898
TCL: Running 100000 steps at 120 kelvin.
TCL: Setting parameter langevinTemp to 120
TCL: Running for 100000 steps
ETITLE: TS BOND ANGLE DIHED IMPRP ELECT VDW BOUNDARY MISC KINETIC TOTAL TEMP POTENTIAL TOTAL3 TEMPAVG PRESSURE GPRESSURE VOLUME PRESSAVG GPRESSAVG
ENERGY: 300000 2.6319 4.4336 33.9744 0.0000 -13926.4239 2297.0301 0.0000 0.0000 547.4652 -11040.8887 92.7912 -11588.3539 -11039.6672 92.7912 -490.9369 -444.7495 28788.2909 -490.9369 -444.7495
ENERGY: 400000 2.5967 6.0380 30.7028 0.0000 -13821.7950 2334.4163 0.0000 0.0000 714.7173 -10733.3238 121.1391 -11448.0411 -10730.7218 120.1148 595.2981 629.1286 28381.9025 3.5745 3.5703
TCL: Running 100000 steps at 150 kelvin.
TCL: Setting parameter langevinTemp to 150
TCL: Running for 100000 steps
ETITLE: TS BOND ANGLE DIHED IMPRP ELECT VDW BOUNDARY MISC KINETIC TOTAL TEMP POTENTIAL TOTAL3 TEMPAVG PRESSURE GPRESSURE VOLUME PRESSAVG GPRESSAVG
ENERGY: 400000 2.5967 6.0380 30.7028 0.0000 -13821.7950 2334.4163 0.0000 0.0000 714.3695 -10733.6716 121.0802 -11448.0411 -10731.8584 121.0802 562.1212 628.1115 28381.9025 562.1212 628.1115
ENERGY: 500000 2.6056 7.7828 24.6832 0.0000 -13557.8550 2214.3745 0.0000 0.0000 873.3569 -10435.0521 148.0273 -11308.4089 -10433.5379 149.9881 -173.3951 -93.8249 29018.7590 4.0122 3.9659
TCL: Running 100000 steps at 180 kelvin.
TCL: Setting parameter langevinTemp to 180
TCL: Running for 100000 steps
ETITLE: TS BOND ANGLE DIHED IMPRP ELECT VDW BOUNDARY MISC KINETIC TOTAL TEMP POTENTIAL TOTAL3 TEMPAVG PRESSURE GPRESSURE VOLUME PRESSAVG GPRESSAVG
ENERGY: 500000 2.6056 7.7828 24.6832 0.0000 -13557.8550 2214.3745 0.0000 0.0000 872.9275 -10435.4815 147.9546 -11308.4089 -10433.7842 147.9546 -151.0493 -94.3676 29018.7590 -151.0493 -94.3676
ENERGY: 600000 4.7216 8.8867 24.9446 0.0000 -13060.8815 2073.1462 0.0000 0.0000 1059.5108 -9889.6715 179.5790 -10949.1824 -9887.0534 180.2955 310.2362 354.5628 28567.6882 4.6890 4.6725
TCL: Running 100000 steps at 210 kelvin.
TCL: Setting parameter langevinTemp to 210
TCL: Running for 100000 steps
ETITLE: TS BOND ANGLE DIHED IMPRP ELECT VDW BOUNDARY MISC KINETIC TOTAL TEMP POTENTIAL TOTAL3 TEMPAVG PRESSURE GPRESSURE VOLUME PRESSAVG GPRESSAVG
ENERGY: 600000 4.7216 8.8867 24.9446 0.0000 -13060.8815 2073.1462 0.0000 0.0000 1058.9786 -9890.2038 179.4888 -10949.1824 -9887.8248 179.4888 278.4321 354.0870 28567.6882 278.4321 354.0870
ENERGY: 700000 3.9354 8.0279 29.2224 0.0000 -12505.6574 1928.4963 0.0000 0.0000 1217.5227 -9318.4525 206.3608 -10535.9753 -9315.4008 209.8194 309.2901 383.5829 29082.2949 4.3295 4.2744
TCL: Running 100000 steps at 240 kelvin.
TCL: Setting parameter langevinTemp to 240
TCL: Running for 100000 steps
ETITLE: TS BOND ANGLE DIHED IMPRP ELECT VDW BOUNDARY MISC KINETIC TOTAL TEMP POTENTIAL TOTAL3 TEMPAVG PRESSURE GPRESSURE VOLUME PRESSAVG GPRESSAVG
ENERGY: 700000 3.9354 8.0279 29.2224 0.0000 -12505.6574 1928.4963 0.0000 0.0000 1216.8999 -9319.0753 206.2553 -10535.9753 -9316.5426 206.2553 305.8211 383.7658 29082.2949 305.8211 383.7658
ENERGY: 800000 6.6344 13.7515 24.3652 0.0000 -11775.5322 1645.9719 0.0000 0.0000 1401.0761 -8683.7332 237.4717 -10084.8093 -8679.2864 240.2049 -299.2531 -225.1154 29026.9021 2.9411 2.9811
TCL: Running 100000 steps at 270 kelvin.
TCL: Setting parameter langevinTemp to 270
TCL: Running for 100000 steps
ETITLE: TS BOND ANGLE DIHED IMPRP ELECT VDW BOUNDARY MISC KINETIC TOTAL TEMP POTENTIAL TOTAL3 TEMPAVG PRESSURE GPRESSURE VOLUME PRESSAVG GPRESSAVG
ENERGY: 800000 6.6344 13.7515 24.3652 0.0000 -11775.5322 1645.9719 0.0000 0.0000 1400.3902 -8684.4191 237.3555 -10084.8093 -8681.5831 237.3555 -310.9736 -225.3444 29026.9021 -310.9736 -225.3444
ENERGY: 900000 4.0460 8.0395 26.6312 0.0000 -11329.7635 1554.8189 0.0000 0.0000 1639.6542 -8096.5737 277.9089 -9736.2278 -8093.7433 270.5154 465.9116 541.4213 29165.5664 2.5673 2.7295
TCL: Running 1000000 steps at 300 kelvin.
TCL: Setting parameter langevinTemp to 300
TCL: Running for 1000000 steps
ETITLE: TS BOND ANGLE DIHED IMPRP ELECT VDW BOUNDARY MISC KINETIC TOTAL TEMP POTENTIAL TOTAL3 TEMPAVG PRESSURE GPRESSURE VOLUME PRESSAVG GPRESSAVG
ENERGY: 900000 4.0460 8.0395 26.6312 0.0000 -11329.7635 1554.8189 0.0000 0.0000 1638.8784 -8097.3495 277.7774 -9736.2278 -8095.3901 277.7774 452.9590 541.7663 29165.5664 452.9590 541.7663
ENERGY: 1100000 6.2438 8.3818 32.0577 0.0000 -10745.1550 1353.2175 0.0000 0.0000 1802.9263 -7542.3278 305.5823 -9345.2541 -7538.2324 300.8080 -858.9165 -744.1596 30871.7912 3.7364 3.7571
ENERGY: 1300000 9.3633 17.0767 23.2917 0.0000 -10732.9440 1391.4499 0.0000 0.0000 1751.9444 -7539.8180 296.9412 -9291.7624 -7537.9043 300.4640 -534.7632 -480.0537 30787.3550 2.0083 2.0387
ENERGY: 1500000 12.2101 14.1279 29.8275 0.0000 -10752.7346 1358.0637 0.0000 0.0000 1785.1431 -7553.3622 302.5682 -9338.5053 -7549.6537 300.4796 -932.9093 -872.1922 30897.2901 1.5351 1.6483
ENERGY: 1700000 7.0480 10.5270 27.0286 0.0000 -10797.7965 1387.7961 0.0000 0.0000 1767.6074 -7597.7894 299.5960 -9365.3968 -7592.7323 299.8933 -259.9981 -220.9479 30051.7931 3.0870 3.1381
ENERGY: 1900000 5.9607 12.2218 29.0182 0.0000 -10651.8216 1385.1463 0.0000 0.0000 1729.9738 -7489.5008 293.2174 -9219.4746 -7485.6986 300.7766 -120.5431 1.6514 30784.8255 4.1841 4.4386
TCL: Exiting due to exit command.
