Info: SIMULATION PARAMETERS:
Info: TIMESTEP               2
Info: NUMBER OF STEPS        0
Info: STEPS PER CYCLE        10
Info: PERIODIC CELL BASIS 1  35.89 0 0
Info: PERIODIC CELL BASIS 2  0 33.404 0
Info: PERIODIC CELL BASIS 3  0 0 37.195
Info: PERIODIC CELL CENTER   0 0 0
Info: WRAPPING WATERS AROUND PERIODIC BOUNDARIES ON OUTPUT.
Info: WRAPPING ALL CLUSTERS AROUND PERIODIC BOUNDARIES ON OUTPUT.
Info: FIRST LDB TIMESTEP     50
Info: LAST LDB TIMESTEP     -1
Info: HOM BACKGROUND SCALING 1
Info: PME BACKGROUND SCALING 1
Info: MIN ATOMS PER PATCH    40
Info: EMPTY PATCH LOAD       40 ATOMS
Info: INITIAL TEMPERATURE    300
Info: CENTER OF MASS MOVING INITIALLY? NO
Info: DIELECTRIC             1
Info: EXCLUDE                SCALED ONE-FOUR
Info: 1-4 ELECTROSTATICS SCALED BY 0.833333
Info: MODIFIED 1-4 VDW PARAMETERS WILL BE USED
Info: DCD FILENAME           mobley_2489709_equil.dcd
Info: DCD FREQUENCY          100000
Info: DCD FIRST STEP         100000
Info: DCD FILE WILL CONTAIN UNIT CELL DATA
Info: XST FILENAME           mobley_2489709_equil.xst
Info: XST FREQUENCY          100000
Info: NO VELOCITY DCD OUTPUT
Info: NO FORCE DCD OUTPUT
Info: OUTPUT FILENAME        mobley_2489709_equil
Info: BINARY OUTPUT FILES WILL BE USED
Info: RESTART FILENAME       mobley_2489709_equil.restart
Info: RESTART FREQUENCY      100000
Info: BINARY RESTART FILES WILL BE USED
Info: CUTOFF                 9
Info: PAIRLIST DISTANCE      11
Info: PAIRLIST SHRINK RATE   0.01
Info: PAIRLIST GROW RATE     0.01
Info: PAIRLIST TRIGGER       0.3
Info: PAIRLISTS PER CYCLE    2
Info: PAIRLISTS ENABLED
Info: MARGIN                 8
Info: HYDROGEN GROUP CUTOFF  2.5
Info: PATCH DIMENSION        21.5
Info: ENERGY OUTPUT STEPS    100000
Info: ENERGY EVALUATION STEPS    100000
Info: OUTPUT ENERGY PRECISION 4
Info: CROSSTERM ENERGY INCLUDED IN DIHEDRAL
Info: TIMING OUTPUT STEPS    1000000
Info: PRESSURE OUTPUT STEPS  100000
Info: LANGEVIN DYNAMICS ACTIVE
Info: LANGEVIN TEMPERATURE   30
Info: LANGEVIN USING BBK INTEGRATOR
Info: LANGEVIN DAMPING COEFFICIENT IS 1 INVERSE PS
Info: LANGEVIN DYNAMICS APPLIED TO HYDROGENS
Info: LANGEVIN PISTON PRESSURE CONTROL ACTIVE
Info:        TARGET PRESSURE IS 1.01325 BAR
Info:     OSCILLATION PERIOD IS 50 FS
Info:             DECAY TIME IS 25 FS
Info:     PISTON TEMPERATURE IS 300 K
Info:       PRESSURE CONTROL IS GROUP-BASED
Info:    INITIAL STRAIN RATE IS 0 0 0
Info:       CELL FLUCTUATION IS ISOTROPIC
Info: PARTICLE MESH EWALD (PME) ACTIVE
Info: PME TOLERANCE               1e-06
Info: PME EWALD COEFFICIENT       0.348832
Info: PME INTERPOLATION ORDER     4
Info: PME GRID DIMENSIONS         36 36 40
Info: PME MAXIMUM GRID SPACING    1
Info: FULL ELECTROSTATIC EVALUATION FREQUENCY      2
Info: USING VERLET I (r-RESPA) MTS SCHEME.
Info: C1 SPLITTING OF LONG RANGE ELECTROSTATICS
Info: PLACING ATOMS IN PATCHES BY HYDROGEN GROUPS
Info: RIGID BONDS TO HYDROGEN : ALL
Info:         ERROR TOLERANCE : 1e-08
Info:          MAX ITERATIONS : 100
Info: RIGID WATER USING SETTLE ALGORITHM
Info: RANDOM NUMBER SEED     1743162098
Info: USE HYDROGEN BONDS?    NO
Info: Using AMBER format force field!
Info: AMBER PARM FILE        mobley_2489709.prmtop
Info: COORDINATE PDB         mobley_2489709.pdb
Info: Exclusions will be read from PARM file!
Info: SCNB (VDW SCALING)     2
Info: USING ARITHMETIC MEAN TO COMBINE L-J SIGMA PARAMETERS
Info: BINARY COORDINATES     mobley_2489709_min.coor
Info: SUMMARY OF PARAMETERS:
Info: 5 BONDS
Info: 3 ANGLES
Info:   3 HARMONIC
Info:   0 COSINE-BASED
Info: 2 DIHEDRAL
Info: 0 IMPROPER
Info: 0 CROSSTERM
Info: 0 VDW
Info: 15 VDW_PAIRS
Info: 0 NBTHOLE_PAIRS
Info: STRUCTURE SUMMARY:
Info: 2952 ATOMS
Info: 2952 BONDS
Info: 18 ANGLES
Info: 30 DIHEDRALS
Info: 0 IMPROPERS
Info: 0 CROSSTERMS
Info: 2991 EXCLUSIONS
Info: 2944 RIGID BONDS
Info: 5912 DEGREES OF FREEDOM
Info: 988 HYDROGEN GROUPS
Info: 3 ATOMS IN LARGEST HYDROGEN GROUP
Info: 988 MIGRATION GROUPS
Info: 3 ATOMS IN LARGEST MIGRATION GROUP
Info: TOTAL MASS = 17802.7 amu
Info: TOTAL CHARGE = 0.00010002 e
Info: MASS DENSITY = 0.662961 g/cm^3
Info: ATOM DENSITY = 0.0662003 atoms/A^3
Info: ADDED 0 IMPLICIT EXCLUSIONS
Info: NONBONDED TABLE R-SQUARED SPACING: 0.0625
Info: NONBONDED TABLE SIZE: 705 POINTS
Info: REMOVING COM VELOCITY 0.064273 -0.0635533 -0.0335573
TCL: Running for 100000 steps
ETITLE: TS BOND ANGLE DIHED IMPRP ELECT VDW BOUNDARY MISC KINETIC TOTAL TEMP POTENTIAL TOTAL3 TEMPAVG PRESSURE GPRESSURE VOLUME PRESSAVG GPRESSAVG
ENERGY: 0 0.1738 0.1157 0.0123 0.0000 -13682.9114 2443.7000 0.0000 0.0000 1739.3134 -9499.5962 296.0969 -11238.9096 -9499.2494 296.0969 629.3990 668.5311 44591.9533 629.3990 668.5311
ENERGY: 100000 0.8387 0.2720 0.3351 0.0000 -14305.8694 2506.2206 0.0000 0.0000 178.1419 -11620.0611 30.3265 -11798.2030 -11619.6229 30.9481 372.8456 437.0461 28063.6591 3.4431 3.4208
TCL: Running 100000 steps at 60 kelvin.
TCL: Setting parameter langevinTemp to 60
TCL: Running for 100000 steps
ETITLE: TS BOND ANGLE DIHED IMPRP ELECT VDW BOUNDARY MISC KINETIC TOTAL TEMP POTENTIAL TOTAL3 TEMPAVG PRESSURE GPRESSURE VOLUME PRESSAVG GPRESSAVG
ENERGY: 100000 0.8387 0.2720 0.3351 0.0000 -14305.8694 2506.2206 0.0000 0.0000 178.0554 -11620.1475 30.3118 -11798.2030 -11619.7965 30.3118 363.6409 436.9116 28063.6591 363.6409 436.9116
ENERGY: 200000 0.9608 0.5526 0.5226 0.0000 -14092.3415 2396.7412 0.0000 0.0000 346.9687 -11346.5956 59.0672 -11693.5643 -11345.3812 59.8917 -299.0454 -231.3227 28374.0079 4.1825 4.0394
TCL: Running 100000 steps at 90 kelvin.
TCL: Setting parameter langevinTemp to 90
TCL: Running for 100000 steps
ETITLE: TS BOND ANGLE DIHED IMPRP ELECT VDW BOUNDARY MISC KINETIC TOTAL TEMP POTENTIAL TOTAL3 TEMPAVG PRESSURE GPRESSURE VOLUME PRESSAVG GPRESSAVG
ENERGY: 200000 0.9608 0.5526 0.5226 0.0000 -14092.3415 2396.7412 0.0000 0.0000 346.7932 -11346.7711 59.0373 -11693.5643 -11346.0547 59.0373 -302.5600 -231.2292 28374.0079 -302.5600 -231.2292
ENERGY: 300000 1.5223 1.1911 0.8724 0.0000 -13767.0112 2182.9950 0.0000 0.0000 527.9439 -11052.4865 89.8760 -11580.4304 -11050.9395 89.9324 -1718.2453 -1678.1534 28773.6620 4.9415 4.9194
TCL: Running 100000 steps at 120 kelvin.
TCL: Setting parameter langevinTemp to 120
TCL: Running for 100000 steps
ETITLE: TS BOND ANGLE DIHED IMPRP ELECT VDW BOUNDARY MISC KINETIC TOTAL TEMP POTENTIAL TOTAL3 TEMPAVG PRESSURE GPRESSURE VOLUME PRESSAVG GPRESSAVG
ENERGY: 300000 1.5223 1.1911 0.8724 0.0000 -13767.0112 2182.9950 0.0000 0.0000 527.6704 -11052.7600 89.8294 -11580.4304 -11051.3655 89.8294 -1737.6855 -1678.3155 28773.6620 -1737.6855 -1678.3155
ENERGY: 400000 1.0430 1.3575 0.5576 0.0000 -13865.1087 2378.6783 0.0000 0.0000 701.4814 -10781.9910 119.4186 -11483.4724 -10780.8941 119.8653 496.9153 522.7950 28315.1631 2.9922 3.0909
TCL: Running 100000 steps at 150 kelvin.
TCL: Setting parameter langevinTemp to 150
TCL: Running for 100000 steps
ETITLE: TS BOND ANGLE DIHED IMPRP ELECT VDW BOUNDARY MISC KINETIC TOTAL TEMP POTENTIAL TOTAL3 TEMPAVG PRESSURE GPRESSURE VOLUME PRESSAVG GPRESSAVG
ENERGY: 400000 1.0430 1.3575 0.5576 0.0000 -13865.1087 2378.6783 0.0000 0.0000 701.1307 -10782.3417 119.3589 -11483.4724 -10780.6711 119.3589 472.6982 521.4478 28315.1631 472.6982 521.4478
ENERGY: 500000 1.9879 0.2160 0.8861 0.0000 -13465.1754 2169.6655 0.0000 0.0000 884.2057 -10408.2142 150.5252 -11292.4199 -10405.8454 149.8883 -764.5092 -713.1261 29090.3304 2.8343 2.6011
TCL: Running 100000 steps at 180 kelvin.
TCL: Setting parameter langevinTemp to 180
TCL: Running for 100000 steps
ETITLE: TS BOND ANGLE DIHED IMPRP ELECT VDW BOUNDARY MISC KINETIC TOTAL TEMP POTENTIAL TOTAL3 TEMPAVG PRESSURE GPRESSURE VOLUME PRESSAVG GPRESSAVG
ENERGY: 500000 1.9879 0.2160 0.8861 0.0000 -13465.1754 2169.6655 0.0000 0.0000 883.7746 -10408.6453 150.4518 -11292.4199 -10406.6456 150.4518 -770.5570 -714.1298 29090.3304 -770.5570 -714.1298
ENERGY: 600000 1.0043 0.9231 3.5529 0.0000 -13076.1834 2112.9707 0.0000 0.0000 1042.4101 -9915.3223 177.4576 -10957.7324 -9912.9762 180.2544 120.9376 175.2021 28729.7604 4.7088 4.6825
TCL: Running 100000 steps at 210 kelvin.
TCL: Setting parameter langevinTemp to 210
TCL: Running for 100000 steps
ETITLE: TS BOND ANGLE DIHED IMPRP ELECT VDW BOUNDARY MISC KINETIC TOTAL TEMP POTENTIAL TOTAL3 TEMPAVG PRESSURE GPRESSURE VOLUME PRESSAVG GPRESSAVG
ENERGY: 600000 1.0043 0.9231 3.5529 0.0000 -13076.1834 2112.9707 0.0000 0.0000 1041.8680 -9915.8644 177.3653 -10957.7324 -9914.0425 177.3653 107.3732 175.9040 28729.7604 107.3732 175.9040
ENERGY: 700000 1.2599 1.1768 1.5133 0.0000 -12441.4633 1930.9344 0.0000 0.0000 1209.4397 -9297.1392 205.8923 -10506.5789 -9296.2416 209.8956 274.1324 387.8381 28675.6649 3.0038 2.9997
TCL: Running 100000 steps at 240 kelvin.
TCL: Setting parameter langevinTemp to 240
TCL: Running for 100000 steps
ETITLE: TS BOND ANGLE DIHED IMPRP ELECT VDW BOUNDARY MISC KINETIC TOTAL TEMP POTENTIAL TOTAL3 TEMPAVG PRESSURE GPRESSURE VOLUME PRESSAVG GPRESSAVG
ENERGY: 700000 1.2599 1.1768 1.5133 0.0000 -12441.4633 1930.9344 0.0000 0.0000 1208.8182 -9297.7607 205.7865 -10506.5789 -9295.3746 205.7865 301.4888 386.2654 28675.6649 301.4888 386.2654
ENERGY: 800000 0.5648 1.3905 1.8697 0.0000 -11748.6492 1704.2428 0.0000 0.0000 1414.1314 -8626.4500 240.7386 -10040.5814 -8623.6882 239.7743 -21.2090 116.4954 29138.1265 2.7523 2.8065
TCL: Running 100000 steps at 270 kelvin.
TCL: Setting parameter langevinTemp to 270
TCL: Running for 100000 steps
ETITLE: TS BOND ANGLE DIHED IMPRP ELECT VDW BOUNDARY MISC KINETIC TOTAL TEMP POTENTIAL TOTAL3 TEMPAVG PRESSURE GPRESSURE VOLUME PRESSAVG GPRESSAVG
ENERGY: 800000 0.5648 1.3905 1.8697 0.0000 -11748.6492 1704.2428 0.0000 0.0000 1413.4226 -8627.1588 240.6179 -10040.5814 -8625.3337 240.6179 21.8015 117.5446 29138.1265 21.8015 117.5446
ENERGY: 900000 0.9566 2.4480 7.6413 0.0000 -11255.6315 1515.9836 0.0000 0.0000 1572.8057 -8155.7963 267.7510 -9728.6020 -8150.3789 269.5292 -913.0620 -840.7180 30141.8141 2.8519 2.8196
TCL: Running 1000000 steps at 300 kelvin.
TCL: Setting parameter langevinTemp to 300
TCL: Running for 1000000 steps
ETITLE: TS BOND ANGLE DIHED IMPRP ELECT VDW BOUNDARY MISC KINETIC TOTAL TEMP POTENTIAL TOTAL3 TEMPAVG PRESSURE GPRESSURE VOLUME PRESSAVG GPRESSAVG
ENERGY: 900000 0.9566 2.4480 7.6413 0.0000 -11255.6315 1515.9836 0.0000 0.0000 1571.9953 -8156.6067 267.6130 -9728.6020 -8153.1404 267.6130 -919.4140 -840.7821 30141.8141 -919.4140 -840.7821
ENERGY: 1100000 2.5018 1.5185 3.3916 0.0000 -10801.3166 1480.8212 0.0000 0.0000 1787.0927 -7525.9908 304.2307 -9313.0835 -7523.3032 300.3147 247.5123 334.7368 30377.6771 4.6656 4.7312
ENERGY: 1300000 3.5750 2.8455 2.9144 0.0000 -10572.6970 1371.8151 0.0000 0.0000 1693.3729 -7498.1742 288.2760 -9191.5470 -7494.1586 300.4719 -470.8946 -375.9369 30628.0735 2.4927 2.7259
ENERGY: 1500000 2.8641 6.1371 2.2344 0.0000 -10663.8301 1396.1493 0.0000 0.0000 1738.4115 -7518.0337 295.9433 -9256.4452 -7513.2922 300.5322 -367.3696 -256.0274 30390.3715 1.6672 1.9083
ENERGY: 1700000 1.4157 1.6356 1.7241 0.0000 -10733.0957 1502.2487 0.0000 0.0000 1759.6064 -7466.4652 299.5515 -9226.0716 -7462.8025 300.6475 514.0258 571.6819 30727.3422 4.0934 4.1683
ENERGY: 1900000 1.2272 5.1150 4.4855 0.0000 -10589.0421 1459.1042 0.0000 0.0000 1835.2380 -7283.8721 312.4269 -9119.1101 -7279.6337 301.0714 567.5270 607.4386 30603.5862 4.1550 4.2077
TCL: Exiting due to exit command.
