Info: SIMULATION PARAMETERS:
Info: TIMESTEP               2
Info: NUMBER OF STEPS        0
Info: STEPS PER CYCLE        10
Info: PERIODIC CELL BASIS 1  36.592 0 0
Info: PERIODIC CELL BASIS 2  0 34.457 0
Info: PERIODIC CELL BASIS 3  0 0 34.68
Info: PERIODIC CELL CENTER   0 0 0
Info: WRAPPING WATERS AROUND PERIODIC BOUNDARIES ON OUTPUT.
Info: WRAPPING ALL CLUSTERS AROUND PERIODIC BOUNDARIES ON OUTPUT.
Info: FIRST LDB TIMESTEP     50
Info: LAST LDB TIMESTEP     -1
Info: HOM BACKGROUND SCALING 1
Info: PME BACKGROUND SCALING 1
Info: MIN ATOMS PER PATCH    40
Info: EMPTY PATCH LOAD       40 ATOMS
Info: INITIAL TEMPERATURE    300
Info: CENTER OF MASS MOVING INITIALLY? NO
Info: DIELECTRIC             1
Info: EXCLUDE                SCALED ONE-FOUR
Info: 1-4 ELECTROSTATICS SCALED BY 0.833333
Info: MODIFIED 1-4 VDW PARAMETERS WILL BE USED
Info: DCD FILENAME           mobley_3425174_equil.dcd
Info: DCD FREQUENCY          100000
Info: DCD FIRST STEP         100000
Info: DCD FILE WILL CONTAIN UNIT CELL DATA
Info: XST FILENAME           mobley_3425174_equil.xst
Info: XST FREQUENCY          100000
Info: NO VELOCITY DCD OUTPUT
Info: NO FORCE DCD OUTPUT
Info: OUTPUT FILENAME        mobley_3425174_equil
Info: BINARY OUTPUT FILES WILL BE USED
Info: RESTART FILENAME       mobley_3425174_equil.restart
Info: RESTART FREQUENCY      100000
Info: BINARY RESTART FILES WILL BE USED
Info: CUTOFF                 9
Info: PAIRLIST DISTANCE      11
Info: PAIRLIST SHRINK RATE   0.01
Info: PAIRLIST GROW RATE     0.01
Info: PAIRLIST TRIGGER       0.3
Info: PAIRLISTS PER CYCLE    2
Info: PAIRLISTS ENABLED
Info: MARGIN                 8
Info: HYDROGEN GROUP CUTOFF  2.5
Info: PATCH DIMENSION        21.5
Info: ENERGY OUTPUT STEPS    100000
Info: ENERGY EVALUATION STEPS    100000
Info: OUTPUT ENERGY PRECISION 4
Info: CROSSTERM ENERGY INCLUDED IN DIHEDRAL
Info: TIMING OUTPUT STEPS    1000000
Info: PRESSURE OUTPUT STEPS  100000
Info: FIXED ATOMS ACTIVE
Info: LANGEVIN DYNAMICS ACTIVE
Info: LANGEVIN TEMPERATURE   30
Info: LANGEVIN USING BBK INTEGRATOR
Info: LANGEVIN DAMPING COEFFICIENT IS 1 INVERSE PS
Info: LANGEVIN DYNAMICS APPLIED TO HYDROGENS
Info: LANGEVIN PISTON PRESSURE CONTROL ACTIVE
Info:        TARGET PRESSURE IS 1.01325 BAR
Info:     OSCILLATION PERIOD IS 50 FS
Info:             DECAY TIME IS 25 FS
Info:     PISTON TEMPERATURE IS 300 K
Info:       PRESSURE CONTROL IS GROUP-BASED
Info:    INITIAL STRAIN RATE IS 0 0 0
Info:       CELL FLUCTUATION IS ISOTROPIC
Info: PARTICLE MESH EWALD (PME) ACTIVE
Info: PME TOLERANCE               1e-06
Info: PME EWALD COEFFICIENT       0.348832
Info: PME INTERPOLATION ORDER     4
Info: PME GRID DIMENSIONS         40 36 36
Info: PME MAXIMUM GRID SPACING    1
Info: FULL ELECTROSTATIC EVALUATION FREQUENCY      2
Info: USING VERLET I (r-RESPA) MTS SCHEME.
Info: C1 SPLITTING OF LONG RANGE ELECTROSTATICS
Info: PLACING ATOMS IN PATCHES BY HYDROGEN GROUPS
Info: RIGID BONDS TO HYDROGEN : ALL
Info:         ERROR TOLERANCE : 1e-08
Info:          MAX ITERATIONS : 100
Info: RIGID WATER USING SETTLE ALGORITHM
Info: RANDOM NUMBER SEED     1743672836
Info: USE HYDROGEN BONDS?    NO
Info: Using AMBER format force field!
Info: AMBER PARM FILE        mobley_3425174.prmtop
Info: COORDINATE PDB         mobley_3425174.pdb
Info: Exclusions will be read from PARM file!
Info: SCNB (VDW SCALING)     2
Info: USING ARITHMETIC MEAN TO COMBINE L-J SIGMA PARAMETERS
Info: BINARY COORDINATES     mobley_3425174_min.coor
Info: SUMMARY OF PARAMETERS:
Info: 5 BONDS
Info: 4 ANGLES
Info:   4 HARMONIC
Info:   0 COSINE-BASED
Info: 0 DIHEDRAL
Info: 0 IMPROPER
Info: 0 CROSSTERM
Info: 0 VDW
Info: 21 VDW_PAIRS
Info: 0 NBTHOLE_PAIRS
Info: STRUCTURE SUMMARY:
Info: 2927 ATOMS
Info: 2926 BONDS
Info: 6 ANGLES
Info: 0 DIHEDRALS
Info: 0 IMPROPERS
Info: 0 CROSSTERMS
Info: 2932 EXCLUSIONS
Info: 5 FIXED ATOMS
Info: 2924 RIGID BONDS
Info: 2 RIGID BONDS BETWEEN FIXED ATOMS
Info: 5844 DEGREES OF FREEDOM
Info: 977 HYDROGEN GROUPS
Info: 3 ATOMS IN LARGEST HYDROGEN GROUP
Info: 977 MIGRATION GROUPS
Info: 3 ATOMS IN LARGEST MIGRATION GROUP
Info: 3 HYDROGEN GROUPS WITH ALL ATOMS FIXED
Info: TOTAL MASS = 17616.1 amu
Info: TOTAL CHARGE = -9.99868e-05 e
Info: MASS DENSITY = 0.668999 g/cm^3
Info: ATOM DENSITY = 0.0669391 atoms/A^3
Info: ADDED 0 IMPLICIT EXCLUSIONS
Info: NONBONDED TABLE R-SQUARED SPACING: 0.0625
Info: NONBONDED TABLE SIZE: 705 POINTS
Info: REMOVING COM VELOCITY -0.108336 -0.100678 -0.0124027
TCL: Running for 100000 steps
ETITLE: TS BOND ANGLE DIHED IMPRP ELECT VDW BOUNDARY MISC KINETIC TOTAL TEMP POTENTIAL TOTAL3 TEMPAVG PRESSURE GPRESSURE VOLUME PRESSAVG GPRESSAVG
ENERGY: 0 0.0000 0.0000 0.0000 0.0000 -13581.4579 2363.8817 0.0000 0.0000 1732.4831 -9485.0931 298.3659 -11217.5762 -9484.7705 298.3659 228.5378 260.2219 43726.2969 228.5378 260.2219
ENERGY: 100000 0.0000 0.0000 0.0000 0.0000 -14160.5693 2508.4835 0.0000 0.0000 175.7889 -11476.2969 30.2741 -11652.0857 -11475.9587 30.8367 421.1441 454.5781 29377.2671 3.7789 3.8514
TCL: Running 100000 steps at 60 kelvin.
TCL: Setting parameter langevinTemp to 60
TCL: Running for 100000 steps
ETITLE: TS BOND ANGLE DIHED IMPRP ELECT VDW BOUNDARY MISC KINETIC TOTAL TEMP POTENTIAL TOTAL3 TEMPAVG PRESSURE GPRESSURE VOLUME PRESSAVG GPRESSAVG
ENERGY: 100000 0.0000 0.0000 0.0000 0.0000 -14160.5693 2508.4835 0.0000 0.0000 175.7028 -11476.3829 30.2593 -11652.0857 -11475.9950 30.2593 406.7567 454.5007 29377.2671 406.7567 454.5007
ENERGY: 200000 0.0000 0.0000 0.0000 0.0000 -14143.9726 2566.5306 0.0000 0.0000 353.9439 -11223.4980 60.9557 -11577.4419 -11223.0177 60.1248 1168.6246 1205.0117 29069.6966 3.6804 3.6629
TCL: Running 100000 steps at 90 kelvin.
TCL: Setting parameter langevinTemp to 90
TCL: Running for 100000 steps
ETITLE: TS BOND ANGLE DIHED IMPRP ELECT VDW BOUNDARY MISC KINETIC TOTAL TEMP POTENTIAL TOTAL3 TEMPAVG PRESSURE GPRESSURE VOLUME PRESSAVG GPRESSAVG
ENERGY: 200000 0.0000 0.0000 0.0000 0.0000 -14143.9726 2566.5306 0.0000 0.0000 353.7729 -11223.6690 60.9263 -11577.4419 -11223.0032 60.9263 1168.1898 1204.6394 29069.6966 1168.1898 1204.6394
ENERGY: 300000 0.0000 0.0000 0.0000 0.0000 -13902.9382 2411.8685 0.0000 0.0000 513.5253 -10977.5444 88.4386 -11491.0697 -10975.8172 90.0384 139.6388 191.3492 29009.9281 4.6061 4.5749
TCL: Running 100000 steps at 120 kelvin.
TCL: Setting parameter langevinTemp to 120
TCL: Running for 100000 steps
ETITLE: TS BOND ANGLE DIHED IMPRP ELECT VDW BOUNDARY MISC KINETIC TOTAL TEMP POTENTIAL TOTAL3 TEMPAVG PRESSURE GPRESSURE VOLUME PRESSAVG GPRESSAVG
ENERGY: 300000 0.0000 0.0000 0.0000 0.0000 -13902.9382 2411.8685 0.0000 0.0000 513.2647 -10977.8050 88.3938 -11491.0697 -10976.8331 88.3938 152.4738 191.7865 29009.9281 152.4738 191.7865
ENERGY: 400000 0.0000 0.0000 0.0000 0.0000 -13697.1423 2285.8330 0.0000 0.0000 706.2258 -10705.0835 121.6252 -11411.3092 -10703.0841 120.0152 -199.7581 -157.1032 28420.0875 4.7034 4.6388
TCL: Running 100000 steps at 150 kelvin.
TCL: Setting parameter langevinTemp to 150
TCL: Running for 100000 steps
ETITLE: TS BOND ANGLE DIHED IMPRP ELECT VDW BOUNDARY MISC KINETIC TOTAL TEMP POTENTIAL TOTAL3 TEMPAVG PRESSURE GPRESSURE VOLUME PRESSAVG GPRESSAVG
ENERGY: 400000 0.0000 0.0000 0.0000 0.0000 -13697.1423 2285.8330 0.0000 0.0000 705.8866 -10705.4227 121.5668 -11411.3092 -10703.8857 121.5668 -204.9775 -156.3826 28420.0875 -204.9775 -156.3826
ENERGY: 500000 0.0000 0.0000 0.0000 0.0000 -13504.5053 2245.8651 0.0000 0.0000 865.7850 -10392.8552 149.1043 -11258.6402 -10390.4882 150.1051 74.1932 117.3207 28362.1275 3.8939 3.7414
TCL: Running 100000 steps at 180 kelvin.
TCL: Setting parameter langevinTemp to 180
TCL: Running for 100000 steps
ETITLE: TS BOND ANGLE DIHED IMPRP ELECT VDW BOUNDARY MISC KINETIC TOTAL TEMP POTENTIAL TOTAL3 TEMPAVG PRESSURE GPRESSURE VOLUME PRESSAVG GPRESSAVG
ENERGY: 500000 0.0000 0.0000 0.0000 0.0000 -13504.5053 2245.8651 0.0000 0.0000 865.3558 -10393.2844 149.0304 -11258.6402 -10391.6098 149.0304 59.0437 117.8674 28362.1275 59.0437 117.8674
ENERGY: 600000 0.0000 0.0000 0.0000 0.0000 -12987.9036 2084.9912 0.0000 0.0000 1054.4932 -9848.4192 181.6034 -10902.9124 -9845.0471 179.9966 -77.7339 -44.9240 28681.3660 3.8050 3.7318
TCL: Running 100000 steps at 210 kelvin.
TCL: Setting parameter langevinTemp to 210
TCL: Running for 100000 steps
ETITLE: TS BOND ANGLE DIHED IMPRP ELECT VDW BOUNDARY MISC KINETIC TOTAL TEMP POTENTIAL TOTAL3 TEMPAVG PRESSURE GPRESSURE VOLUME PRESSAVG GPRESSAVG
ENERGY: 600000 0.0000 0.0000 0.0000 0.0000 -12987.9036 2084.9912 0.0000 0.0000 1053.9951 -9848.9174 181.5176 -10902.9124 -9846.7398 181.5176 -116.6848 -44.0602 28681.3660 -116.6848 -44.0602
ENERGY: 700000 0.0000 0.0000 0.0000 0.0000 -12341.1981 1884.8494 0.0000 0.0000 1191.5620 -9264.7867 205.2092 -10456.3487 -9262.3101 209.9230 -116.5587 -39.8895 28636.1717 3.8402 3.7139
TCL: Running 100000 steps at 240 kelvin.
TCL: Setting parameter langevinTemp to 240
TCL: Running for 100000 steps
ETITLE: TS BOND ANGLE DIHED IMPRP ELECT VDW BOUNDARY MISC KINETIC TOTAL TEMP POTENTIAL TOTAL3 TEMPAVG PRESSURE GPRESSURE VOLUME PRESSAVG GPRESSAVG
ENERGY: 700000 0.0000 0.0000 0.0000 0.0000 -12341.1981 1884.8494 0.0000 0.0000 1190.9546 -9265.3940 205.1046 -10456.3487 -9263.2468 205.1046 -131.6601 -39.7144 28636.1717 -131.6601 -39.7144
ENERGY: 800000 0.0000 0.0000 0.0000 0.0000 -11720.0164 1721.1740 0.0000 0.0000 1392.9452 -8605.8973 239.8911 -9998.8425 -8602.2357 240.2091 263.8222 403.9947 28620.5966 1.6592 1.8120
TCL: Running 100000 steps at 270 kelvin.
TCL: Setting parameter langevinTemp to 270
TCL: Running for 100000 steps
ETITLE: TS BOND ANGLE DIHED IMPRP ELECT VDW BOUNDARY MISC KINETIC TOTAL TEMP POTENTIAL TOTAL3 TEMPAVG PRESSURE GPRESSURE VOLUME PRESSAVG GPRESSAVG
ENERGY: 800000 0.0000 0.0000 0.0000 0.0000 -11720.0164 1721.1740 0.0000 0.0000 1392.2413 -8606.6011 239.7699 -9998.8425 -8604.4182 239.7699 323.7137 406.7027 28620.5966 323.7137 406.7027
ENERGY: 900000 0.0000 0.0000 0.0000 0.0000 -11195.5643 1591.4173 0.0000 0.0000 1537.6114 -8066.5356 264.8054 -9604.1471 -8061.5707 270.1747 191.6710 357.2395 29293.1061 2.8196 2.7762
TCL: Running 1000000 steps at 300 kelvin.
TCL: Setting parameter langevinTemp to 300
TCL: Running for 1000000 steps
ETITLE: TS BOND ANGLE DIHED IMPRP ELECT VDW BOUNDARY MISC KINETIC TOTAL TEMP POTENTIAL TOTAL3 TEMPAVG PRESSURE GPRESSURE VOLUME PRESSAVG GPRESSAVG
ENERGY: 900000 0.0000 0.0000 0.0000 0.0000 -11195.5643 1591.4173 0.0000 0.0000 1536.8557 -8067.2914 264.6752 -9604.1471 -8065.5276 264.6752 272.7253 359.0822 29293.1061 272.7253 359.0822
ENERGY: 1100000 0.0000 0.0000 0.0000 0.0000 -10608.0297 1423.7592 0.0000 0.0000 1757.4371 -7426.8334 302.6634 -9184.2706 -7422.5329 300.2926 -238.7640 -172.0461 30761.2487 2.9295 2.9301
ENERGY: 1300000 0.0000 0.0000 0.0000 0.0000 -10530.9895 1421.6701 0.0000 0.0000 1809.3873 -7299.9321 311.6102 -9109.3195 -7296.0103 300.5426 60.9738 185.7329 30653.9760 4.5627 4.4264
ENERGY: 1500000 0.0000 0.0000 0.0000 0.0000 -10536.7350 1343.2874 0.0000 0.0000 1698.2849 -7495.1626 292.4763 -9193.4476 -7490.9335 300.2996 -468.9109 -395.7810 29858.4332 2.7844 2.6737
ENERGY: 1700000 0.0000 0.0000 0.0000 0.0000 -10645.0405 1402.5309 0.0000 0.0000 1705.3742 -7537.1354 293.6972 -9242.5096 -7536.1020 300.2897 -553.1386 -504.8997 30545.2762 3.9247 3.9282
ENERGY: 1900000 0.0000 0.0000 0.0000 0.0000 -10617.7735 1404.9217 0.0000 0.0000 1762.3088 -7450.5430 303.5024 -9212.8518 -7446.9697 300.2474 -255.0820 -197.2477 30220.0937 2.3875 2.4142
TCL: Exiting due to exit command.
