Info: SIMULATION PARAMETERS:
Info: TIMESTEP               2
Info: NUMBER OF STEPS        0
Info: STEPS PER CYCLE        10
Info: PERIODIC CELL BASIS 1  36.592 0 0
Info: PERIODIC CELL BASIS 2  0 34.26 0
Info: PERIODIC CELL BASIS 3  0 0 34.954
Info: PERIODIC CELL CENTER   0 0 0
Info: WRAPPING WATERS AROUND PERIODIC BOUNDARIES ON OUTPUT.
Info: WRAPPING ALL CLUSTERS AROUND PERIODIC BOUNDARIES ON OUTPUT.
Info: FIRST LDB TIMESTEP     50
Info: LAST LDB TIMESTEP     -1
Info: HOM BACKGROUND SCALING 1
Info: PME BACKGROUND SCALING 1
Info: MIN ATOMS PER PATCH    40
Info: EMPTY PATCH LOAD       40 ATOMS
Info: INITIAL TEMPERATURE    300
Info: CENTER OF MASS MOVING INITIALLY? NO
Info: DIELECTRIC             1
Info: EXCLUDE                SCALED ONE-FOUR
Info: 1-4 ELECTROSTATICS SCALED BY 0.833333
Info: MODIFIED 1-4 VDW PARAMETERS WILL BE USED
Info: DCD FILENAME           mobley_1107178_equil.dcd
Info: DCD FREQUENCY          100000
Info: DCD FIRST STEP         100000
Info: DCD FILE WILL CONTAIN UNIT CELL DATA
Info: XST FILENAME           mobley_1107178_equil.xst
Info: XST FREQUENCY          100000
Info: NO VELOCITY DCD OUTPUT
Info: NO FORCE DCD OUTPUT
Info: OUTPUT FILENAME        mobley_1107178_equil
Info: BINARY OUTPUT FILES WILL BE USED
Info: RESTART FILENAME       mobley_1107178_equil.restart
Info: RESTART FREQUENCY      100000
Info: BINARY RESTART FILES WILL BE USED
Info: CUTOFF                 9
Info: PAIRLIST DISTANCE      11
Info: PAIRLIST SHRINK RATE   0.01
Info: PAIRLIST GROW RATE     0.01
Info: PAIRLIST TRIGGER       0.3
Info: PAIRLISTS PER CYCLE    2
Info: PAIRLISTS ENABLED
Info: MARGIN                 8
Info: HYDROGEN GROUP CUTOFF  2.5
Info: PATCH DIMENSION        21.5
Info: ENERGY OUTPUT STEPS    100000
Info: ENERGY EVALUATION STEPS    100000
Info: OUTPUT ENERGY PRECISION 4
Info: CROSSTERM ENERGY INCLUDED IN DIHEDRAL
Info: TIMING OUTPUT STEPS    1000000
Info: PRESSURE OUTPUT STEPS  100000
Info: LANGEVIN DYNAMICS ACTIVE
Info: LANGEVIN TEMPERATURE   30
Info: LANGEVIN USING BBK INTEGRATOR
Info: LANGEVIN DAMPING COEFFICIENT IS 1 INVERSE PS
Info: LANGEVIN DYNAMICS APPLIED TO HYDROGENS
Info: LANGEVIN PISTON PRESSURE CONTROL ACTIVE
Info:        TARGET PRESSURE IS 1.01325 BAR
Info:     OSCILLATION PERIOD IS 50 FS
Info:             DECAY TIME IS 25 FS
Info:     PISTON TEMPERATURE IS 300 K
Info:       PRESSURE CONTROL IS GROUP-BASED
Info:    INITIAL STRAIN RATE IS 0 0 0
Info:       CELL FLUCTUATION IS ISOTROPIC
Info: PARTICLE MESH EWALD (PME) ACTIVE
Info: PME TOLERANCE               1e-06
Info: PME EWALD COEFFICIENT       0.348832
Info: PME INTERPOLATION ORDER     4
Info: PME GRID DIMENSIONS         40 36 36
Info: PME MAXIMUM GRID SPACING    1
Info: FULL ELECTROSTATIC EVALUATION FREQUENCY      2
Info: USING VERLET I (r-RESPA) MTS SCHEME.
Info: C1 SPLITTING OF LONG RANGE ELECTROSTATICS
Info: PLACING ATOMS IN PATCHES BY HYDROGEN GROUPS
Info: RIGID BONDS TO HYDROGEN : ALL
Info:         ERROR TOLERANCE : 1e-08
Info:          MAX ITERATIONS : 100
Info: RIGID WATER USING SETTLE ALGORITHM
Info: RANDOM NUMBER SEED     1743156912
Info: USE HYDROGEN BONDS?    NO
Info: Using AMBER format force field!
Info: AMBER PARM FILE        mobley_1107178.prmtop
Info: COORDINATE PDB         mobley_1107178.pdb
Info: Exclusions will be read from PARM file!
Info: SCNB (VDW SCALING)     2
Info: USING ARITHMETIC MEAN TO COMBINE L-J SIGMA PARAMETERS
Info: BINARY COORDINATES     mobley_1107178_min.coor
Info: SUMMARY OF PARAMETERS:
Info: 6 BONDS
Info: 6 ANGLES
Info:   6 HARMONIC
Info:   0 COSINE-BASED
Info: 1 DIHEDRAL
Info: 0 IMPROPER
Info: 0 CROSSTERM
Info: 0 VDW
Info: 21 VDW_PAIRS
Info: 0 NBTHOLE_PAIRS
Info: STRUCTURE SUMMARY:
Info: 2954 ATOMS
Info: 2953 BONDS
Info: 12 ANGLES
Info: 9 DIHEDRALS
Info: 0 IMPROPERS
Info: 0 CROSSTERMS
Info: 2974 EXCLUSIONS
Info: 2951 RIGID BONDS
Info: 5911 DEGREES OF FREEDOM
Info: 985 HYDROGEN GROUPS
Info: 4 ATOMS IN LARGEST HYDROGEN GROUP
Info: 985 MIGRATION GROUPS
Info: 4 ATOMS IN LARGEST MIGRATION GROUP
Info: TOTAL MASS = 17847.7 amu
Info: TOTAL CHARGE = 0.000100002 e
Info: MASS DENSITY = 0.676348 g/cm^3
Info: ATOM DENSITY = 0.0674124 atoms/A^3
Info: ADDED 0 IMPLICIT EXCLUSIONS
Info: NONBONDED TABLE R-SQUARED SPACING: 0.0625
Info: NONBONDED TABLE SIZE: 705 POINTS
Info: REMOVING COM VELOCITY 0.11823 0.0513373 0.000516681
TCL: Running for 100000 steps
ETITLE: TS BOND ANGLE DIHED IMPRP ELECT VDW BOUNDARY MISC KINETIC TOTAL TEMP POTENTIAL TOTAL3 TEMPAVG PRESSURE GPRESSURE VOLUME PRESSAVG GPRESSAVG
ENERGY: 0 0.0002 0.1924 0.0052 0.0000 -13597.0231 2345.5437 0.0000 0.0000 1717.5357 -9533.7459 292.4389 -11251.2816 -9533.4136 292.4389 70.2756 103.2944 43819.7997 70.2756 103.2944
ENERGY: 100000 0.0415 0.5730 0.0321 0.0000 -14170.9568 2363.8129 0.0000 0.0000 180.6159 -11625.8814 30.7529 -11806.4973 -11625.3035 30.8983 -1281.7023 -1222.1329 29494.5797 3.4564 3.4096
TCL: Running 100000 steps at 60 kelvin.
TCL: Setting parameter langevinTemp to 60
TCL: Running for 100000 steps
ETITLE: TS BOND ANGLE DIHED IMPRP ELECT VDW BOUNDARY MISC KINETIC TOTAL TEMP POTENTIAL TOTAL3 TEMPAVG PRESSURE GPRESSURE VOLUME PRESSAVG GPRESSAVG
ENERGY: 100000 0.0415 0.5730 0.0321 0.0000 -14170.9568 2363.8129 0.0000 0.0000 180.5228 -11625.9745 30.7370 -11806.4973 -11625.5915 30.7370 -1269.9206 -1222.0740 29494.5797 -1269.9206 -1222.0740
ENERGY: 200000 0.0287 1.1358 0.0381 0.0000 -14152.9594 2469.8156 0.0000 0.0000 357.0012 -11324.9399 60.7854 -11681.9411 -11324.1530 59.8345 249.9539 298.0535 29159.0279 4.7465 4.7923
TCL: Running 100000 steps at 90 kelvin.
TCL: Setting parameter langevinTemp to 90
TCL: Running for 100000 steps
ETITLE: TS BOND ANGLE DIHED IMPRP ELECT VDW BOUNDARY MISC KINETIC TOTAL TEMP POTENTIAL TOTAL3 TEMPAVG PRESSURE GPRESSURE VOLUME PRESSAVG GPRESSAVG
ENERGY: 200000 0.0287 1.1358 0.0381 0.0000 -14152.9594 2469.8156 0.0000 0.0000 356.8277 -11325.1134 60.7558 -11681.9411 -11324.4319 60.7558 253.6416 298.0135 29159.0279 253.6416 298.0135
ENERGY: 300000 0.1101 1.5191 0.2012 0.0000 -13979.9211 2352.3342 0.0000 0.0000 520.7934 -11104.9629 88.6737 -11625.7564 -11103.6398 89.9631 -494.0732 -443.2872 29153.5192 3.9830 3.9968
TCL: Running 100000 steps at 120 kelvin.
TCL: Setting parameter langevinTemp to 120
TCL: Running for 100000 steps
ETITLE: TS BOND ANGLE DIHED IMPRP ELECT VDW BOUNDARY MISC KINETIC TOTAL TEMP POTENTIAL TOTAL3 TEMPAVG PRESSURE GPRESSURE VOLUME PRESSAVG GPRESSAVG
ENERGY: 300000 0.1101 1.5191 0.2012 0.0000 -13979.9211 2352.3342 0.0000 0.0000 520.5439 -11105.2124 88.6312 -11625.7564 -11104.2516 88.6312 -488.5201 -443.1972 29153.5192 -488.5201 -443.1972
ENERGY: 400000 0.0604 1.1415 0.1330 0.0000 -13746.2414 2308.5629 0.0000 0.0000 699.8678 -10736.4758 119.1641 -11436.3436 -10734.9831 120.1637 -292.9387 -258.5711 29302.6120 2.9004 2.9424
TCL: Running 100000 steps at 150 kelvin.
TCL: Setting parameter langevinTemp to 150
TCL: Running for 100000 steps
ETITLE: TS BOND ANGLE DIHED IMPRP ELECT VDW BOUNDARY MISC KINETIC TOTAL TEMP POTENTIAL TOTAL3 TEMPAVG PRESSURE GPRESSURE VOLUME PRESSAVG GPRESSAVG
ENERGY: 400000 0.0604 1.1415 0.1330 0.0000 -13746.2414 2308.5629 0.0000 0.0000 699.5057 -10736.8379 119.1024 -11436.3436 -10735.3166 119.1024 -298.8573 -258.9773 29302.6120 -298.8573 -258.9773
ENERGY: 500000 0.2317 2.1864 0.0389 0.0000 -13483.0561 2198.3254 0.0000 0.0000 869.6700 -10412.6036 148.0757 -11282.2737 -10410.5713 150.3117 -710.6077 -659.5294 29540.6921 3.4739 3.4571
TCL: Running 100000 steps at 180 kelvin.
TCL: Setting parameter langevinTemp to 180
TCL: Running for 100000 steps
ETITLE: TS BOND ANGLE DIHED IMPRP ELECT VDW BOUNDARY MISC KINETIC TOTAL TEMP POTENTIAL TOTAL3 TEMPAVG PRESSURE GPRESSURE VOLUME PRESSAVG GPRESSAVG
ENERGY: 500000 0.2317 2.1864 0.0389 0.0000 -13483.0561 2198.3254 0.0000 0.0000 869.2404 -10413.0332 148.0026 -11282.2737 -10411.4768 148.0026 -705.4466 -659.8010 29540.6921 -705.4466 -659.8010
ENERGY: 600000 0.5662 2.1558 0.4419 0.0000 -13037.8598 2007.8146 0.0000 0.0000 1070.5254 -9956.3559 182.2747 -11026.8813 -9954.6728 179.5474 -990.1425 -987.4221 29269.4500 2.9275 2.9078
TCL: Running 100000 steps at 210 kelvin.
TCL: Setting parameter langevinTemp to 210
TCL: Running for 100000 steps
ETITLE: TS BOND ANGLE DIHED IMPRP ELECT VDW BOUNDARY MISC KINETIC TOTAL TEMP POTENTIAL TOTAL3 TEMPAVG PRESSURE GPRESSURE VOLUME PRESSAVG GPRESSAVG
ENERGY: 600000 0.5662 2.1558 0.4419 0.0000 -13037.8598 2007.8146 0.0000 0.0000 1069.9972 -9956.8841 182.1848 -11026.8813 -9954.6135 182.1848 -1053.6913 -988.2445 29269.4500 -1053.6913 -988.2445
ENERGY: 700000 0.8720 2.7883 0.1977 0.0000 -12616.7204 2000.1078 0.0000 0.0000 1246.6875 -9366.0671 212.2692 -10612.7546 -9362.9959 210.0064 568.2819 688.7983 28780.2565 3.6322 3.4083
TCL: Running 100000 steps at 240 kelvin.
TCL: Setting parameter langevinTemp to 240
TCL: Running for 100000 steps
ETITLE: TS BOND ANGLE DIHED IMPRP ELECT VDW BOUNDARY MISC KINETIC TOTAL TEMP POTENTIAL TOTAL3 TEMPAVG PRESSURE GPRESSURE VOLUME PRESSAVG GPRESSAVG
ENERGY: 700000 0.8720 2.7883 0.1977 0.0000 -12616.7204 2000.1078 0.0000 0.0000 1246.0471 -9366.7075 212.1602 -10612.7546 -9364.4652 212.1602 601.6702 689.2583 28780.2565 601.6702 689.2583
ENERGY: 800000 0.0722 1.8010 0.8762 0.0000 -11804.3545 1721.1503 0.0000 0.0000 1384.2224 -8696.2324 235.6868 -10080.4548 -8696.0146 239.7543 110.4951 156.7390 29102.5792 3.6700 3.7509
TCL: Running 100000 steps at 270 kelvin.
TCL: Setting parameter langevinTemp to 270
TCL: Running for 100000 steps
ETITLE: TS BOND ANGLE DIHED IMPRP ELECT VDW BOUNDARY MISC KINETIC TOTAL TEMP POTENTIAL TOTAL3 TEMPAVG PRESSURE GPRESSURE VOLUME PRESSAVG GPRESSAVG
ENERGY: 800000 0.0722 1.8010 0.8762 0.0000 -11804.3545 1721.1503 0.0000 0.0000 1383.5237 -8696.9311 235.5679 -10080.4548 -8694.5386 235.5679 80.2249 153.1049 29102.5792 80.2249 153.1049
ENERGY: 900000 0.6821 1.9640 0.5451 0.0000 -11278.2492 1618.3554 0.0000 0.0000 1577.9004 -8078.8022 268.6637 -9656.7026 -8078.2239 270.0711 253.2996 363.4011 29851.5061 2.4526 2.3181
TCL: Running 1000000 steps at 300 kelvin.
TCL: Setting parameter langevinTemp to 300
TCL: Running for 1000000 steps
ETITLE: TS BOND ANGLE DIHED IMPRP ELECT VDW BOUNDARY MISC KINETIC TOTAL TEMP POTENTIAL TOTAL3 TEMPAVG PRESSURE GPRESSURE VOLUME PRESSAVG GPRESSAVG
ENERGY: 900000 0.6821 1.9640 0.5451 0.0000 -11278.2492 1618.3554 0.0000 0.0000 1577.1176 -8079.5850 268.5304 -9656.7026 -8078.1854 268.5304 282.2570 362.5811 29851.5061 282.2570 362.5811
ENERGY: 1100000 0.4508 2.5953 0.0348 0.0000 -10695.6878 1428.6997 0.0000 0.0000 1758.5147 -7505.3924 299.4163 -9263.9072 -7505.0397 300.3846 -149.4191 -80.9326 30599.1174 1.6976 1.5751
ENERGY: 1300000 0.3673 3.6682 0.0746 0.0000 -10667.1211 1388.3030 0.0000 0.0000 1835.0159 -7439.6921 312.4419 -9274.7080 -7437.1884 299.6299 -468.4226 -389.3068 30699.4224 3.5574 3.4119
ENERGY: 1500000 0.3602 5.4623 0.2145 0.0000 -10652.6008 1353.9328 0.0000 0.0000 1711.8334 -7580.7977 291.4680 -9292.6311 -7574.9221 300.1625 -588.3719 -474.7639 30205.9596 2.3923 2.4298
ENERGY: 1700000 1.3904 1.7886 0.0200 0.0000 -10810.4834 1466.2323 0.0000 0.0000 1834.4169 -7506.6351 312.3399 -9341.0520 -7504.1921 300.7480 182.6898 241.0356 30224.3373 2.9752 2.8649
ENERGY: 1900000 0.1215 3.3620 1.1580 0.0000 -10803.6529 1489.4077 0.0000 0.0000 1735.7556 -7573.8481 295.5412 -9309.6037 -7571.2399 300.0650 306.3474 441.4292 30315.8550 2.8689 2.7676
TCL: Exiting due to exit command.
