Info: SIMULATION PARAMETERS:
Info: TIMESTEP               2
Info: NUMBER OF STEPS        0
Info: STEPS PER CYCLE        10
Info: PERIODIC CELL BASIS 1  37.968 0 0
Info: PERIODIC CELL BASIS 2  0 36.451 0
Info: PERIODIC CELL BASIS 3  0 0 31.349
Info: PERIODIC CELL CENTER   0 0 0
Info: WRAPPING WATERS AROUND PERIODIC BOUNDARIES ON OUTPUT.
Info: WRAPPING ALL CLUSTERS AROUND PERIODIC BOUNDARIES ON OUTPUT.
Info: FIRST LDB TIMESTEP     50
Info: LAST LDB TIMESTEP     -1
Info: HOM BACKGROUND SCALING 1
Info: PME BACKGROUND SCALING 1
Info: MIN ATOMS PER PATCH    40
Info: EMPTY PATCH LOAD       40 ATOMS
Info: INITIAL TEMPERATURE    300
Info: CENTER OF MASS MOVING INITIALLY? NO
Info: DIELECTRIC             1
Info: EXCLUDE                SCALED ONE-FOUR
Info: 1-4 ELECTROSTATICS SCALED BY 0.833333
Info: MODIFIED 1-4 VDW PARAMETERS WILL BE USED
Info: DCD FILENAME           mobley_9007496_equil.dcd
Info: DCD FREQUENCY          100000
Info: DCD FIRST STEP         100000
Info: DCD FILE WILL CONTAIN UNIT CELL DATA
Info: XST FILENAME           mobley_9007496_equil.xst
Info: XST FREQUENCY          100000
Info: NO VELOCITY DCD OUTPUT
Info: NO FORCE DCD OUTPUT
Info: OUTPUT FILENAME        mobley_9007496_equil
Info: BINARY OUTPUT FILES WILL BE USED
Info: RESTART FILENAME       mobley_9007496_equil.restart
Info: RESTART FREQUENCY      100000
Info: BINARY RESTART FILES WILL BE USED
Info: CUTOFF                 9
Info: PAIRLIST DISTANCE      11
Info: PAIRLIST SHRINK RATE   0.01
Info: PAIRLIST GROW RATE     0.01
Info: PAIRLIST TRIGGER       0.3
Info: PAIRLISTS PER CYCLE    2
Info: PAIRLISTS ENABLED
Info: MARGIN                 8
Info: HYDROGEN GROUP CUTOFF  2.5
Info: PATCH DIMENSION        21.5
Info: ENERGY OUTPUT STEPS    100000
Info: ENERGY EVALUATION STEPS    100000
Info: OUTPUT ENERGY PRECISION 4
Info: CROSSTERM ENERGY INCLUDED IN DIHEDRAL
Info: TIMING OUTPUT STEPS    1000000
Info: PRESSURE OUTPUT STEPS  100000
Info: LANGEVIN DYNAMICS ACTIVE
Info: LANGEVIN TEMPERATURE   30
Info: LANGEVIN USING BBK INTEGRATOR
Info: LANGEVIN DAMPING COEFFICIENT IS 1 INVERSE PS
Info: LANGEVIN DYNAMICS APPLIED TO HYDROGENS
Info: LANGEVIN PISTON PRESSURE CONTROL ACTIVE
Info:        TARGET PRESSURE IS 1.01325 BAR
Info:     OSCILLATION PERIOD IS 50 FS
Info:             DECAY TIME IS 25 FS
Info:     PISTON TEMPERATURE IS 300 K
Info:       PRESSURE CONTROL IS GROUP-BASED
Info:    INITIAL STRAIN RATE IS 0 0 0
Info:       CELL FLUCTUATION IS ISOTROPIC
Info: PARTICLE MESH EWALD (PME) ACTIVE
Info: PME TOLERANCE               1e-06
Info: PME EWALD COEFFICIENT       0.348832
Info: PME INTERPOLATION ORDER     4
Info: PME GRID DIMENSIONS         40 40 32
Info: PME MAXIMUM GRID SPACING    1
Info: FULL ELECTROSTATIC EVALUATION FREQUENCY      2
Info: USING VERLET I (r-RESPA) MTS SCHEME.
Info: C1 SPLITTING OF LONG RANGE ELECTROSTATICS
Info: PLACING ATOMS IN PATCHES BY HYDROGEN GROUPS
Info: RIGID BONDS TO HYDROGEN : ALL
Info:         ERROR TOLERANCE : 1e-08
Info:          MAX ITERATIONS : 100
Info: RIGID WATER USING SETTLE ALGORITHM
Info: RANDOM NUMBER SEED     1743237148
Info: USE HYDROGEN BONDS?    NO
Info: Using AMBER format force field!
Info: AMBER PARM FILE        mobley_9007496.prmtop
Info: COORDINATE PDB         mobley_9007496.pdb
Info: Exclusions will be read from PARM file!
Info: SCNB (VDW SCALING)     2
Info: USING ARITHMETIC MEAN TO COMBINE L-J SIGMA PARAMETERS
Info: BINARY COORDINATES     mobley_9007496_min.coor
Info: SUMMARY OF PARAMETERS:
Info: 11 BONDS
Info: 12 ANGLES
Info:   12 HARMONIC
Info:   0 COSINE-BASED
Info: 7 DIHEDRAL
Info: 0 IMPROPER
Info: 0 CROSSTERM
Info: 0 VDW
Info: 55 VDW_PAIRS
Info: 0 NBTHOLE_PAIRS
Info: STRUCTURE SUMMARY:
Info: 2927 ATOMS
Info: 2928 BONDS
Info: 43 ANGLES
Info: 71 DIHEDRALS
Info: 0 IMPROPERS
Info: 0 CROSSTERMS
Info: 3023 EXCLUSIONS
Info: 2912 RIGID BONDS
Info: 5869 DEGREES OF FREEDOM
Info: 982 HYDROGEN GROUPS
Info: 4 ATOMS IN LARGEST HYDROGEN GROUP
Info: 982 MIGRATION GROUPS
Info: 4 ATOMS IN LARGEST MIGRATION GROUP
Info: TOTAL MASS = 17622.7 amu
Info: TOTAL CHARGE = 0.000300014 e
Info: MASS DENSITY = 0.674498 g/cm^3
Info: ATOM DENSITY = 0.067464 atoms/A^3
Info: ADDED 0 IMPLICIT EXCLUSIONS
Info: NONBONDED TABLE R-SQUARED SPACING: 0.0625
Info: NONBONDED TABLE SIZE: 705 POINTS
Info: REMOVING COM VELOCITY -0.00736681 0.24825 0.0361766
TCL: Running for 100000 steps
ETITLE: TS BOND ANGLE DIHED IMPRP ELECT VDW BOUNDARY MISC KINETIC TOTAL TEMP POTENTIAL TOTAL3 TEMPAVG PRESSURE GPRESSURE VOLUME PRESSAVG GPRESSAVG
ENERGY: 0 0.4926 0.7552 3.8678 0.0000 -13570.9706 2367.8562 0.0000 0.0000 1726.4140 -9471.5848 296.0542 -11197.9987 -9471.2586 296.0542 304.6935 335.7156 43386.1247 304.6935 335.7156
ENERGY: 100000 1.4840 1.3636 3.5542 0.0000 -13952.2359 2341.4817 0.0000 0.0000 176.0243 -11428.3280 30.1855 -11604.3524 -11427.6784 30.8459 -764.5581 -696.0367 28903.8079 4.4291 4.4016
TCL: Running 100000 steps at 60 kelvin.
TCL: Setting parameter langevinTemp to 60
TCL: Running for 100000 steps
ETITLE: TS BOND ANGLE DIHED IMPRP ELECT VDW BOUNDARY MISC KINETIC TOTAL TEMP POTENTIAL TOTAL3 TEMPAVG PRESSURE GPRESSURE VOLUME PRESSAVG GPRESSAVG
ENERGY: 100000 1.4840 1.3636 3.5542 0.0000 -13952.2359 2341.4817 0.0000 0.0000 175.9346 -11428.4178 30.1701 -11604.3524 -11427.9518 30.1701 -757.0226 -695.8702 28903.8079 -757.0226 -695.8702
ENERGY: 200000 0.6104 2.3160 3.9975 0.0000 -13976.2505 2417.6946 0.0000 0.0000 351.4096 -11200.2225 60.2615 -11551.6321 -11199.2825 60.0448 384.3557 445.5103 28424.1963 4.9733 5.0194
TCL: Running 100000 steps at 90 kelvin.
TCL: Setting parameter langevinTemp to 90
TCL: Running for 100000 steps
ETITLE: TS BOND ANGLE DIHED IMPRP ELECT VDW BOUNDARY MISC KINETIC TOTAL TEMP POTENTIAL TOTAL3 TEMPAVG PRESSURE GPRESSURE VOLUME PRESSAVG GPRESSAVG
ENERGY: 200000 0.6104 2.3160 3.9975 0.0000 -13976.2505 2417.6946 0.0000 0.0000 351.2342 -11200.3979 60.2314 -11551.6321 -11199.6033 60.2314 400.8952 445.1481 28424.1963 400.8952 445.1481
ENERGY: 300000 2.1144 3.8995 3.7640 0.0000 -13687.6211 2238.2419 0.0000 0.0000 525.8199 -10913.7814 90.1703 -11439.6013 -10912.5650 90.2433 -842.9426 -785.0310 28775.4832 4.6413 4.5417
TCL: Running 100000 steps at 120 kelvin.
TCL: Setting parameter langevinTemp to 120
TCL: Running for 100000 steps
ETITLE: TS BOND ANGLE DIHED IMPRP ELECT VDW BOUNDARY MISC KINETIC TOTAL TEMP POTENTIAL TOTAL3 TEMPAVG PRESSURE GPRESSURE VOLUME PRESSAVG GPRESSAVG
ENERGY: 300000 2.1144 3.8995 3.7640 0.0000 -13687.6211 2238.2419 0.0000 0.0000 525.5665 -10914.0348 90.1268 -11439.6013 -10912.9883 90.1268 -848.6479 -786.0938 28775.4832 -848.6479 -786.0938
ENERGY: 400000 2.8392 3.7403 6.4318 0.0000 -13609.7050 2261.9396 0.0000 0.0000 706.7659 -10627.9881 121.1998 -11334.7540 -10626.1145 119.7527 -302.5290 -250.6339 28868.1900 4.7087 4.6948
TCL: Running 100000 steps at 150 kelvin.
TCL: Setting parameter langevinTemp to 150
TCL: Running for 100000 steps
ETITLE: TS BOND ANGLE DIHED IMPRP ELECT VDW BOUNDARY MISC KINETIC TOTAL TEMP POTENTIAL TOTAL3 TEMPAVG PRESSURE GPRESSURE VOLUME PRESSAVG GPRESSAVG
ENERGY: 400000 2.8392 3.7403 6.4318 0.0000 -13609.7050 2261.9396 0.0000 0.0000 706.4384 -10628.3156 121.1436 -11334.7540 -10626.6934 121.1436 -304.9683 -250.2867 28868.1900 -304.9683 -250.2867
ENERGY: 500000 2.1219 5.4832 5.1756 0.0000 -13418.2311 2209.4439 0.0000 0.0000 881.9864 -10314.0202 151.2475 -11196.0065 -10311.2095 150.2496 -266.2125 -207.2881 28728.9696 2.8927 3.0326
TCL: Running 100000 steps at 180 kelvin.
TCL: Setting parameter langevinTemp to 180
TCL: Running for 100000 steps
ETITLE: TS BOND ANGLE DIHED IMPRP ELECT VDW BOUNDARY MISC KINETIC TOTAL TEMP POTENTIAL TOTAL3 TEMPAVG PRESSURE GPRESSURE VOLUME PRESSAVG GPRESSAVG
ENERGY: 500000 2.1219 5.4832 5.1756 0.0000 -13418.2311 2209.4439 0.0000 0.0000 881.5634 -10314.4431 151.1750 -11196.0065 -10312.6240 151.1750 -275.4771 -206.9395 28728.9696 -275.4771 -206.9395
ENERGY: 600000 4.8120 3.9336 7.9460 0.0000 -13162.5687 2260.0372 0.0000 0.0000 1062.3083 -9823.5316 182.1700 -10885.8399 -9822.6876 180.0494 1420.3040 1453.8600 28800.1716 4.6047 4.6928
TCL: Running 100000 steps at 210 kelvin.
TCL: Setting parameter langevinTemp to 210
TCL: Running for 100000 steps
ETITLE: TS BOND ANGLE DIHED IMPRP ELECT VDW BOUNDARY MISC KINETIC TOTAL TEMP POTENTIAL TOTAL3 TEMPAVG PRESSURE GPRESSURE VOLUME PRESSAVG GPRESSAVG
ENERGY: 600000 4.8120 3.9336 7.9460 0.0000 -13162.5687 2260.0372 0.0000 0.0000 1061.7762 -9824.0638 182.0787 -10885.8399 -9822.1018 182.0787 1400.5215 1452.4381 28800.1716 1400.5215 1452.4381
ENERGY: 700000 3.7508 5.9895 6.2537 0.0000 -12248.4021 1776.8210 0.0000 0.0000 1244.0282 -9211.5590 213.3322 -10455.5872 -9208.3032 209.6996 -777.1236 -698.6304 28672.8385 3.4558 3.2917
TCL: Running 100000 steps at 240 kelvin.
TCL: Setting parameter langevinTemp to 240
TCL: Running for 100000 steps
ETITLE: TS BOND ANGLE DIHED IMPRP ELECT VDW BOUNDARY MISC KINETIC TOTAL TEMP POTENTIAL TOTAL3 TEMPAVG PRESSURE GPRESSURE VOLUME PRESSAVG GPRESSAVG
ENERGY: 700000 3.7508 5.9895 6.2537 0.0000 -12248.4021 1776.8210 0.0000 0.0000 1243.3955 -9212.1917 213.2237 -10455.5872 -9209.6899 213.2237 -772.1572 -698.1414 28672.8385 -772.1572 -698.1414
ENERGY: 800000 3.8444 6.3034 6.6121 0.0000 -11490.7764 1564.8707 0.0000 0.0000 1426.2609 -8482.8850 244.5824 -9909.1458 -8479.9922 240.6688 -882.8417 -803.4405 29151.6941 4.5243 4.5574
TCL: Running 100000 steps at 270 kelvin.
TCL: Setting parameter langevinTemp to 270
TCL: Running for 100000 steps
ETITLE: TS BOND ANGLE DIHED IMPRP ELECT VDW BOUNDARY MISC KINETIC TOTAL TEMP POTENTIAL TOTAL3 TEMPAVG PRESSURE GPRESSURE VOLUME PRESSAVG GPRESSAVG
ENERGY: 800000 3.8444 6.3034 6.6121 0.0000 -11490.7764 1564.8707 0.0000 0.0000 1425.5605 -8483.5854 244.4623 -9909.1458 -8480.7843 244.4623 -885.8397 -802.3651 29151.6941 -885.8397 -802.3651
ENERGY: 900000 3.7692 6.0265 6.1666 0.0000 -11205.0192 1610.2081 0.0000 0.0000 1599.6686 -7979.1802 274.3193 -9578.8488 -7975.8191 269.8726 596.8495 693.8912 29423.6124 3.4928 3.4296
TCL: Running 1000000 steps at 300 kelvin.
TCL: Setting parameter langevinTemp to 300
TCL: Running for 1000000 steps
ETITLE: TS BOND ANGLE DIHED IMPRP ELECT VDW BOUNDARY MISC KINETIC TOTAL TEMP POTENTIAL TOTAL3 TEMPAVG PRESSURE GPRESSURE VOLUME PRESSAVG GPRESSAVG
ENERGY: 900000 3.7692 6.0265 6.1666 0.0000 -11205.0192 1610.2081 0.0000 0.0000 1598.8940 -7979.9548 274.1864 -9578.8488 -7977.3462 274.1864 608.9162 693.9400 29423.6124 608.9162 693.9400
ENERGY: 1100000 3.8535 8.8890 7.4924 0.0000 -10687.1581 1496.9171 0.0000 0.0000 1675.3817 -7494.6244 287.3029 -9170.0060 -7492.1396 300.6985 332.9217 431.9475 30502.4966 4.0642 4.1964
ENERGY: 1300000 6.7962 9.0085 8.0463 0.0000 -10642.2664 1401.0992 0.0000 0.0000 1719.9341 -7497.3821 294.9430 -9217.3162 -7494.7780 299.5557 -325.6863 -232.2515 30264.5272 2.3804 2.2581
ENERGY: 1500000 5.7474 8.7543 12.0428 0.0000 -10605.2961 1443.7422 0.0000 0.0000 1837.7841 -7297.2252 315.1525 -9135.0094 -7295.1064 300.9679 213.1957 275.6982 30220.0371 3.0017 2.9556
ENERGY: 1700000 3.2246 9.8223 6.6574 0.0000 -10543.6101 1387.5877 0.0000 0.0000 1729.9630 -7406.3551 296.6628 -9136.3181 -7399.7205 300.5194 -137.9212 -95.2601 30493.2720 4.0354 4.0789
ENERGY: 1900000 8.2716 10.1253 6.7791 0.0000 -10562.3831 1396.0391 0.0000 0.0000 1759.4929 -7381.6750 301.7267 -9141.1679 -7377.3212 300.0071 -144.9884 -80.5782 30259.4164 2.9192 2.8571
TCL: Exiting due to exit command.
