Info: SIMULATION PARAMETERS:
Info: TIMESTEP               2
Info: NUMBER OF STEPS        0
Info: STEPS PER CYCLE        10
Info: PERIODIC CELL BASIS 1  37.435 0 0
Info: PERIODIC CELL BASIS 2  0 37.796 0
Info: PERIODIC CELL BASIS 3  0 0 31.349
Info: PERIODIC CELL CENTER   0 0 0
Info: WRAPPING WATERS AROUND PERIODIC BOUNDARIES ON OUTPUT.
Info: WRAPPING ALL CLUSTERS AROUND PERIODIC BOUNDARIES ON OUTPUT.
Info: FIRST LDB TIMESTEP     50
Info: LAST LDB TIMESTEP     -1
Info: HOM BACKGROUND SCALING 1
Info: PME BACKGROUND SCALING 1
Info: MIN ATOMS PER PATCH    40
Info: EMPTY PATCH LOAD       40 ATOMS
Info: INITIAL TEMPERATURE    300
Info: CENTER OF MASS MOVING INITIALLY? NO
Info: DIELECTRIC             1
Info: EXCLUDE                SCALED ONE-FOUR
Info: 1-4 ELECTROSTATICS SCALED BY 0.833333
Info: MODIFIED 1-4 VDW PARAMETERS WILL BE USED
Info: DCD FILENAME           mobley_9821936_equil.dcd
Info: DCD FREQUENCY          100000
Info: DCD FIRST STEP         100000
Info: DCD FILE WILL CONTAIN UNIT CELL DATA
Info: XST FILENAME           mobley_9821936_equil.xst
Info: XST FREQUENCY          100000
Info: NO VELOCITY DCD OUTPUT
Info: NO FORCE DCD OUTPUT
Info: OUTPUT FILENAME        mobley_9821936_equil
Info: BINARY OUTPUT FILES WILL BE USED
Info: RESTART FILENAME       mobley_9821936_equil.restart
Info: RESTART FREQUENCY      100000
Info: BINARY RESTART FILES WILL BE USED
Info: CUTOFF                 9
Info: PAIRLIST DISTANCE      11
Info: PAIRLIST SHRINK RATE   0.01
Info: PAIRLIST GROW RATE     0.01
Info: PAIRLIST TRIGGER       0.3
Info: PAIRLISTS PER CYCLE    2
Info: PAIRLISTS ENABLED
Info: MARGIN                 8
Info: HYDROGEN GROUP CUTOFF  2.5
Info: PATCH DIMENSION        21.5
Info: ENERGY OUTPUT STEPS    100000
Info: ENERGY EVALUATION STEPS    100000
Info: OUTPUT ENERGY PRECISION 4
Info: CROSSTERM ENERGY INCLUDED IN DIHEDRAL
Info: TIMING OUTPUT STEPS    1000000
Info: PRESSURE OUTPUT STEPS  100000
Info: LANGEVIN DYNAMICS ACTIVE
Info: LANGEVIN TEMPERATURE   30
Info: LANGEVIN USING BBK INTEGRATOR
Info: LANGEVIN DAMPING COEFFICIENT IS 1 INVERSE PS
Info: LANGEVIN DYNAMICS APPLIED TO HYDROGENS
Info: LANGEVIN PISTON PRESSURE CONTROL ACTIVE
Info:        TARGET PRESSURE IS 1.01325 BAR
Info:     OSCILLATION PERIOD IS 50 FS
Info:             DECAY TIME IS 25 FS
Info:     PISTON TEMPERATURE IS 300 K
Info:       PRESSURE CONTROL IS GROUP-BASED
Info:    INITIAL STRAIN RATE IS 0 0 0
Info:       CELL FLUCTUATION IS ISOTROPIC
Info: PARTICLE MESH EWALD (PME) ACTIVE
Info: PME TOLERANCE               1e-06
Info: PME EWALD COEFFICIENT       0.348832
Info: PME INTERPOLATION ORDER     4
Info: PME GRID DIMENSIONS         40 40 32
Info: PME MAXIMUM GRID SPACING    1
Info: FULL ELECTROSTATIC EVALUATION FREQUENCY      2
Info: USING VERLET I (r-RESPA) MTS SCHEME.
Info: C1 SPLITTING OF LONG RANGE ELECTROSTATICS
Info: PLACING ATOMS IN PATCHES BY HYDROGEN GROUPS
Info: RIGID BONDS TO HYDROGEN : ALL
Info:         ERROR TOLERANCE : 1e-08
Info:          MAX ITERATIONS : 100
Info: RIGID WATER USING SETTLE ALGORITHM
Info: RANDOM NUMBER SEED     1743220523
Info: USE HYDROGEN BONDS?    NO
Info: Using AMBER format force field!
Info: AMBER PARM FILE        mobley_9821936.prmtop
Info: COORDINATE PDB         mobley_9821936.pdb
Info: Exclusions will be read from PARM file!
Info: SCNB (VDW SCALING)     2
Info: USING ARITHMETIC MEAN TO COMBINE L-J SIGMA PARAMETERS
Info: BINARY COORDINATES     mobley_9821936_min.coor
Info: SUMMARY OF PARAMETERS:
Info: 5 BONDS
Info: 4 ANGLES
Info:   4 HARMONIC
Info:   0 COSINE-BASED
Info: 3 DIHEDRAL
Info: 0 IMPROPER
Info: 0 CROSSTERM
Info: 0 VDW
Info: 15 VDW_PAIRS
Info: 0 NBTHOLE_PAIRS
Info: STRUCTURE SUMMARY:
Info: 2947 ATOMS
Info: 2949 BONDS
Info: 38 ANGLES
Info: 68 DIHEDRALS
Info: 0 IMPROPERS
Info: 0 CROSSTERMS
Info: 3034 EXCLUSIONS
Info: 2925 RIGID BONDS
Info: 5916 DEGREES OF FREEDOM
Info: 997 HYDROGEN GROUPS
Info: 3 ATOMS IN LARGEST HYDROGEN GROUP
Info: 997 MIGRATION GROUPS
Info: 3 ATOMS IN LARGEST MIGRATION GROUP
Info: TOTAL MASS = 18025.3 amu
Info: TOTAL CHARGE = 9.9998e-05 e
Info: MASS DENSITY = 0.674831 g/cm^3
Info: ATOM DENSITY = 0.0664405 atoms/A^3
Info: ADDED 0 IMPLICIT EXCLUSIONS
Info: NONBONDED TABLE R-SQUARED SPACING: 0.0625
Info: NONBONDED TABLE SIZE: 705 POINTS
Info: REMOVING COM VELOCITY -0.0681682 -0.286344 0.184099
TCL: Running for 100000 steps
ETITLE: TS BOND ANGLE DIHED IMPRP ELECT VDW BOUNDARY MISC KINETIC TOTAL TEMP POTENTIAL TOTAL3 TEMPAVG PRESSURE GPRESSURE VOLUME PRESSAVG GPRESSAVG
ENERGY: 0 0.8314 0.3700 0.0440 0.0000 -13568.1733 2368.5611 0.0000 0.0000 1710.8512 -9487.5156 291.0546 -11198.3668 -9487.1980 291.0546 164.4154 191.3305 44355.4888 164.4154 191.3305
ENERGY: 100000 1.3323 0.7214 0.7098 0.0000 -14072.5556 2424.3973 0.0000 0.0000 176.2941 -11469.1006 29.9916 -11645.3947 -11468.8764 30.8678 -246.6491 -192.5660 29734.8788 4.8434 4.8511
TCL: Running 100000 steps at 60 kelvin.
TCL: Setting parameter langevinTemp to 60
TCL: Running for 100000 steps
ETITLE: TS BOND ANGLE DIHED IMPRP ELECT VDW BOUNDARY MISC KINETIC TOTAL TEMP POTENTIAL TOTAL3 TEMPAVG PRESSURE GPRESSURE VOLUME PRESSAVG GPRESSAVG
ENERGY: 100000 1.3323 0.7214 0.7098 0.0000 -14072.5556 2424.3973 0.0000 0.0000 176.2078 -11469.1869 29.9769 -11645.3947 -11468.7908 29.9769 -235.2507 -192.4672 29734.8788 -235.2507 -192.4672
ENERGY: 200000 1.3961 0.8609 0.8482 0.0000 -14183.3275 2587.5352 0.0000 0.0000 358.7370 -11233.9500 61.0293 -11592.6870 -11232.9051 60.0658 1735.5285 1768.6354 28914.7625 3.8183 3.8291
TCL: Running 100000 steps at 90 kelvin.
TCL: Setting parameter langevinTemp to 90
TCL: Running for 100000 steps
ETITLE: TS BOND ANGLE DIHED IMPRP ELECT VDW BOUNDARY MISC KINETIC TOTAL TEMP POTENTIAL TOTAL3 TEMPAVG PRESSURE GPRESSURE VOLUME PRESSAVG GPRESSAVG
ENERGY: 200000 1.3961 0.8609 0.8482 0.0000 -14183.3275 2587.5352 0.0000 0.0000 358.5543 -11234.1327 60.9982 -11592.6870 -11233.4167 60.9982 1731.2781 1768.3282 28914.7625 1731.2781 1768.3282
ENERGY: 300000 1.6257 2.0339 1.8775 0.0000 -13850.5991 2343.8081 0.0000 0.0000 519.3031 -10981.9509 88.3452 -11501.2540 -10980.6478 89.9844 -163.9118 -78.1184 29228.8920 3.0803 3.0077
TCL: Running 100000 steps at 120 kelvin.
TCL: Setting parameter langevinTemp to 120
TCL: Running for 100000 steps
ETITLE: TS BOND ANGLE DIHED IMPRP ELECT VDW BOUNDARY MISC KINETIC TOTAL TEMP POTENTIAL TOTAL3 TEMPAVG PRESSURE GPRESSURE VOLUME PRESSAVG GPRESSAVG
ENERGY: 300000 1.6257 2.0339 1.8775 0.0000 -13850.5991 2343.8081 0.0000 0.0000 519.0401 -10982.2138 88.3005 -11501.2540 -10981.2008 88.3005 -143.9366 -78.1258 29228.8920 -143.9366 -78.1258
ENERGY: 400000 3.3129 2.0277 3.1441 0.0000 -13630.2083 2283.2772 0.0000 0.0000 695.6114 -10642.8350 118.3393 -11338.4465 -10641.1254 119.8181 1.7975 69.2288 28760.6931 3.4667 3.4733
TCL: Running 100000 steps at 150 kelvin.
TCL: Setting parameter langevinTemp to 150
TCL: Running for 100000 steps
ETITLE: TS BOND ANGLE DIHED IMPRP ELECT VDW BOUNDARY MISC KINETIC TOTAL TEMP POTENTIAL TOTAL3 TEMPAVG PRESSURE GPRESSURE VOLUME PRESSAVG GPRESSAVG
ENERGY: 400000 3.3129 2.0277 3.1441 0.0000 -13630.2083 2283.2772 0.0000 0.0000 695.2499 -10643.1966 118.2778 -11338.4465 -10641.8118 118.2778 20.9705 69.5696 28760.6931 20.9705 69.5696
ENERGY: 500000 3.2176 2.6143 3.1451 0.0000 -13239.1547 2052.0179 0.0000 0.0000 909.8501 -10268.3096 154.7861 -11178.1598 -10265.4506 150.1769 -1286.8065 -1219.0874 29088.2631 4.0801 3.8860
TCL: Running 100000 steps at 180 kelvin.
TCL: Setting parameter langevinTemp to 180
TCL: Running for 100000 steps
ETITLE: TS BOND ANGLE DIHED IMPRP ELECT VDW BOUNDARY MISC KINETIC TOTAL TEMP POTENTIAL TOTAL3 TEMPAVG PRESSURE GPRESSURE VOLUME PRESSAVG GPRESSAVG
ENERGY: 500000 3.2176 2.6143 3.1451 0.0000 -13239.1547 2052.0179 0.0000 0.0000 909.4237 -10268.7361 154.7136 -11178.1598 -10266.8875 154.7136 -1269.3113 -1218.0779 29088.2631 -1269.3113 -1218.0779
ENERGY: 600000 2.9195 2.6421 1.3989 0.0000 -13070.2093 2097.1533 0.0000 0.0000 1067.9015 -9898.1940 181.6743 -10966.0955 -9895.7432 179.8398 44.4314 22.0572 28988.8666 2.9048 3.0787
TCL: Running 100000 steps at 210 kelvin.
TCL: Setting parameter langevinTemp to 210
TCL: Running for 100000 steps
ETITLE: TS BOND ANGLE DIHED IMPRP ELECT VDW BOUNDARY MISC KINETIC TOTAL TEMP POTENTIAL TOTAL3 TEMPAVG PRESSURE GPRESSURE VOLUME PRESSAVG GPRESSAVG
ENERGY: 600000 2.9195 2.6421 1.3989 0.0000 -13070.2093 2097.1533 0.0000 0.0000 1067.3771 -9898.7184 181.5851 -10966.0955 -9896.5516 181.5851 -31.0791 21.7244 28988.8666 -31.0791 21.7244
ENERGY: 700000 3.0061 5.0080 7.3797 0.0000 -12291.5219 1835.2763 0.0000 0.0000 1255.8867 -9184.9650 213.6548 -10440.8518 -9183.8443 210.2883 -284.7851 -257.5655 29066.1778 3.6947 3.7041
TCL: Running 100000 steps at 240 kelvin.
TCL: Setting parameter langevinTemp to 240
TCL: Running for 100000 steps
ETITLE: TS BOND ANGLE DIHED IMPRP ELECT VDW BOUNDARY MISC KINETIC TOTAL TEMP POTENTIAL TOTAL3 TEMPAVG PRESSURE GPRESSURE VOLUME PRESSAVG GPRESSAVG
ENERGY: 700000 3.0061 5.0080 7.3797 0.0000 -12291.5219 1835.2763 0.0000 0.0000 1255.2832 -9185.5685 213.5521 -10440.8518 -9182.8714 213.5521 -344.0164 -258.7955 29066.1778 -344.0164 -258.7955
ENERGY: 800000 5.1719 3.8511 4.1664 0.0000 -11825.5175 1797.3696 0.0000 0.0000 1425.8372 -8589.1214 242.5672 -10014.9585 -8588.9657 240.2173 599.6676 707.3645 29409.2666 3.4665 3.3533
TCL: Running 100000 steps at 270 kelvin.
TCL: Setting parameter langevinTemp to 270
TCL: Running for 100000 steps
ETITLE: TS BOND ANGLE DIHED IMPRP ELECT VDW BOUNDARY MISC KINETIC TOTAL TEMP POTENTIAL TOTAL3 TEMPAVG PRESSURE GPRESSURE VOLUME PRESSAVG GPRESSAVG
ENERGY: 800000 5.1719 3.8511 4.1664 0.0000 -11825.5175 1797.3696 0.0000 0.0000 1425.1567 -8589.8018 242.4515 -10014.9585 -8587.8749 242.4515 621.0111 704.4448 29409.2666 621.0111 704.4448
ENERGY: 900000 7.0685 6.3223 6.0931 0.0000 -11184.9069 1457.3859 0.0000 0.0000 1618.5192 -8089.5178 275.3468 -9708.0370 -8084.8784 269.9913 -1093.5384 -1044.5276 29655.1845 1.7514 1.8562
TCL: Running 1000000 steps at 300 kelvin.
TCL: Setting parameter langevinTemp to 300
TCL: Running for 1000000 steps
ETITLE: TS BOND ANGLE DIHED IMPRP ELECT VDW BOUNDARY MISC KINETIC TOTAL TEMP POTENTIAL TOTAL3 TEMPAVG PRESSURE GPRESSURE VOLUME PRESSAVG GPRESSAVG
ENERGY: 900000 7.0685 6.3223 6.0931 0.0000 -11184.9069 1457.3859 0.0000 0.0000 1617.7178 -8090.3192 275.2105 -9708.0370 -8087.3226 275.2105 -1111.2478 -1044.6435 29655.1845 -1111.2478 -1044.6435
ENERGY: 1100000 10.0835 4.5977 3.4932 0.0000 -10634.6299 1387.4684 0.0000 0.0000 1753.2718 -7475.7152 298.2713 -9228.9870 -7473.1984 299.6364 -118.2512 24.2837 30392.5707 4.4915 4.5166
ENERGY: 1300000 3.9700 4.9960 8.8007 0.0000 -10657.3277 1450.2901 0.0000 0.0000 1750.1128 -7439.1581 297.7339 -9189.2709 -7439.1723 300.2942 153.7147 270.6711 30490.0547 4.0863 4.0695
ENERGY: 1500000 8.2888 5.5426 6.1075 0.0000 -10537.6264 1345.2046 0.0000 0.0000 1702.6157 -7469.8670 289.6536 -9172.4828 -7467.1368 300.7603 -513.3561 -447.3880 30621.2324 3.8524 3.8522
ENERGY: 1700000 9.6791 6.6756 5.2986 0.0000 -10540.8820 1350.6536 0.0000 0.0000 1724.1007 -7444.4744 293.3086 -9168.5751 -7440.7369 299.5514 -407.1488 -333.8053 30595.2599 4.1865 4.2110
ENERGY: 1900000 15.1558 4.8782 4.4477 0.0000 -10469.7014 1320.1806 0.0000 0.0000 1739.1231 -7385.9159 295.8643 -9125.0390 -7382.2057 300.5064 -861.0508 -872.5487 31001.5270 2.7004 2.9241
TCL: Exiting due to exit command.
