Info: SIMULATION PARAMETERS:
Info: TIMESTEP               2
Info: NUMBER OF STEPS        0
Info: STEPS PER CYCLE        10
Info: PERIODIC CELL BASIS 1  36.592 0 0
Info: PERIODIC CELL BASIS 2  0 33.399 0
Info: PERIODIC CELL BASIS 3  0 0 36.199
Info: PERIODIC CELL CENTER   0 0 0
Info: WRAPPING WATERS AROUND PERIODIC BOUNDARIES ON OUTPUT.
Info: WRAPPING ALL CLUSTERS AROUND PERIODIC BOUNDARIES ON OUTPUT.
Info: FIRST LDB TIMESTEP     50
Info: LAST LDB TIMESTEP     -1
Info: HOM BACKGROUND SCALING 1
Info: PME BACKGROUND SCALING 1
Info: MIN ATOMS PER PATCH    40
Info: EMPTY PATCH LOAD       40 ATOMS
Info: INITIAL TEMPERATURE    300
Info: CENTER OF MASS MOVING INITIALLY? NO
Info: DIELECTRIC             1
Info: EXCLUDE                SCALED ONE-FOUR
Info: 1-4 ELECTROSTATICS SCALED BY 0.833333
Info: MODIFIED 1-4 VDW PARAMETERS WILL BE USED
Info: DCD FILENAME           mobley_9897248_equil.dcd
Info: DCD FREQUENCY          100000
Info: DCD FIRST STEP         100000
Info: DCD FILE WILL CONTAIN UNIT CELL DATA
Info: XST FILENAME           mobley_9897248_equil.xst
Info: XST FREQUENCY          100000
Info: NO VELOCITY DCD OUTPUT
Info: NO FORCE DCD OUTPUT
Info: OUTPUT FILENAME        mobley_9897248_equil
Info: BINARY OUTPUT FILES WILL BE USED
Info: RESTART FILENAME       mobley_9897248_equil.restart
Info: RESTART FREQUENCY      100000
Info: BINARY RESTART FILES WILL BE USED
Info: CUTOFF                 9
Info: PAIRLIST DISTANCE      11
Info: PAIRLIST SHRINK RATE   0.01
Info: PAIRLIST GROW RATE     0.01
Info: PAIRLIST TRIGGER       0.3
Info: PAIRLISTS PER CYCLE    2
Info: PAIRLISTS ENABLED
Info: MARGIN                 8
Info: HYDROGEN GROUP CUTOFF  2.5
Info: PATCH DIMENSION        21.5
Info: ENERGY OUTPUT STEPS    100000
Info: ENERGY EVALUATION STEPS    100000
Info: OUTPUT ENERGY PRECISION 4
Info: CROSSTERM ENERGY INCLUDED IN DIHEDRAL
Info: TIMING OUTPUT STEPS    1000000
Info: PRESSURE OUTPUT STEPS  100000
Info: LANGEVIN DYNAMICS ACTIVE
Info: LANGEVIN TEMPERATURE   30
Info: LANGEVIN USING BBK INTEGRATOR
Info: LANGEVIN DAMPING COEFFICIENT IS 1 INVERSE PS
Info: LANGEVIN DYNAMICS APPLIED TO HYDROGENS
Info: LANGEVIN PISTON PRESSURE CONTROL ACTIVE
Info:        TARGET PRESSURE IS 1.01325 BAR
Info:     OSCILLATION PERIOD IS 50 FS
Info:             DECAY TIME IS 25 FS
Info:     PISTON TEMPERATURE IS 300 K
Info:       PRESSURE CONTROL IS GROUP-BASED
Info:    INITIAL STRAIN RATE IS 0 0 0
Info:       CELL FLUCTUATION IS ISOTROPIC
Info: PARTICLE MESH EWALD (PME) ACTIVE
Info: PME TOLERANCE               1e-06
Info: PME EWALD COEFFICIENT       0.348832
Info: PME INTERPOLATION ORDER     4
Info: PME GRID DIMENSIONS         40 36 40
Info: PME MAXIMUM GRID SPACING    1
Info: FULL ELECTROSTATIC EVALUATION FREQUENCY      2
Info: USING VERLET I (r-RESPA) MTS SCHEME.
Info: C1 SPLITTING OF LONG RANGE ELECTROSTATICS
Info: PLACING ATOMS IN PATCHES BY HYDROGEN GROUPS
Info: RIGID BONDS TO HYDROGEN : ALL
Info:         ERROR TOLERANCE : 1e-08
Info:          MAX ITERATIONS : 100
Info: RIGID WATER USING SETTLE ALGORITHM
Info: RANDOM NUMBER SEED     1743257148
Info: USE HYDROGEN BONDS?    NO
Info: Using AMBER format force field!
Info: AMBER PARM FILE        mobley_9897248.prmtop
Info: COORDINATE PDB         mobley_9897248.pdb
Info: Exclusions will be read from PARM file!
Info: SCNB (VDW SCALING)     2
Info: USING ARITHMETIC MEAN TO COMBINE L-J SIGMA PARAMETERS
Info: BINARY COORDINATES     mobley_9897248_min.coor
Info: SUMMARY OF PARAMETERS:
Info: 10 BONDS
Info: 13 ANGLES
Info:   13 HARMONIC
Info:   0 COSINE-BASED
Info: 9 DIHEDRAL
Info: 0 IMPROPER
Info: 0 CROSSTERM
Info: 0 VDW
Info: 36 VDW_PAIRS
Info: 0 NBTHOLE_PAIRS
Info: STRUCTURE SUMMARY:
Info: 2912 ATOMS
Info: 2911 BONDS
Info: 49 ANGLES
Info: 90 DIHEDRALS
Info: 0 IMPROPERS
Info: 0 CROSSTERMS
Info: 3016 EXCLUSIONS
Info: 2901 RIGID BONDS
Info: 5835 DEGREES OF FREEDOM
Info: 972 HYDROGEN GROUPS
Info: 4 ATOMS IN LARGEST HYDROGEN GROUP
Info: 972 MIGRATION GROUPS
Info: 4 ATOMS IN LARGEST MIGRATION GROUP
Info: TOTAL MASS = 17467.6 amu
Info: TOTAL CHARGE = 0.000399992 e
Info: MASS DENSITY = 0.655657 g/cm^3
Info: ATOM DENSITY = 0.0658226 atoms/A^3
Info: ADDED 0 IMPLICIT EXCLUSIONS
Info: NONBONDED TABLE R-SQUARED SPACING: 0.0625
Info: NONBONDED TABLE SIZE: 705 POINTS
Info: REMOVING COM VELOCITY 0.117823 -0.0457583 -0.210606
TCL: Running for 100000 steps
ETITLE: TS BOND ANGLE DIHED IMPRP ELECT VDW BOUNDARY MISC KINETIC TOTAL TEMP POTENTIAL TOTAL3 TEMPAVG PRESSURE GPRESSURE VOLUME PRESSAVG GPRESSAVG
ENERGY: 0 0.2460 1.7358 24.0730 0.0000 -13404.2086 2387.1884 0.0000 0.0000 1696.7392 -9294.2262 292.6608 -10990.9654 -9293.9016 292.6608 581.6859 605.5988 44240.1086 581.6859 605.5988
ENERGY: 100000 0.4689 2.8267 25.3642 0.0000 -13890.1588 2367.9178 0.0000 0.0000 171.4719 -11322.1092 29.5762 -11493.5811 -11321.7444 30.9170 -584.5789 -537.5437 28865.0315 4.8945 4.9669
TCL: Running 100000 steps at 60 kelvin.
TCL: Setting parameter langevinTemp to 60
TCL: Running for 100000 steps
ETITLE: TS BOND ANGLE DIHED IMPRP ELECT VDW BOUNDARY MISC KINETIC TOTAL TEMP POTENTIAL TOTAL3 TEMPAVG PRESSURE GPRESSURE VOLUME PRESSAVG GPRESSAVG
ENERGY: 100000 0.4689 2.8267 25.3642 0.0000 -13890.1588 2367.9178 0.0000 0.0000 171.3813 -11322.1998 29.5606 -11493.5811 -11321.7341 29.5606 -589.8008 -537.7100 28865.0315 -589.8008 -537.7100
ENERGY: 200000 1.2398 4.1538 24.5004 0.0000 -13901.2054 2415.0611 0.0000 0.0000 350.6499 -11105.6003 60.4816 -11456.2502 -11104.9959 60.0091 12.5378 60.5484 28490.2473 3.7249 3.7890
TCL: Running 100000 steps at 90 kelvin.
TCL: Setting parameter langevinTemp to 90
TCL: Running for 100000 steps
ETITLE: TS BOND ANGLE DIHED IMPRP ELECT VDW BOUNDARY MISC KINETIC TOTAL TEMP POTENTIAL TOTAL3 TEMPAVG PRESSURE GPRESSURE VOLUME PRESSAVG GPRESSAVG
ENERGY: 200000 1.2398 4.1538 24.5004 0.0000 -13901.2054 2415.0611 0.0000 0.0000 350.4780 -11105.7722 60.4520 -11456.2502 -11105.1421 60.4520 19.0724 59.9347 28490.2473 19.0724 59.9347
ENERGY: 300000 0.7918 5.4031 25.0662 0.0000 -13779.6553 2393.8742 0.0000 0.0000 513.9073 -10840.6128 88.6409 -11354.5201 -10839.5444 90.0656 248.5534 288.7804 28560.4627 2.5230 2.5238
TCL: Running 100000 steps at 120 kelvin.
TCL: Setting parameter langevinTemp to 120
TCL: Running for 100000 steps
ETITLE: TS BOND ANGLE DIHED IMPRP ELECT VDW BOUNDARY MISC KINETIC TOTAL TEMP POTENTIAL TOTAL3 TEMPAVG PRESSURE GPRESSURE VOLUME PRESSAVG GPRESSAVG
ENERGY: 300000 0.7918 5.4031 25.0662 0.0000 -13779.6553 2393.8742 0.0000 0.0000 513.6485 -10840.8716 88.5963 -11354.5201 -10839.7505 88.5963 235.6317 289.3318 28560.4627 235.6317 289.3318
ENERGY: 400000 0.6407 6.5449 25.0471 0.0000 -13633.8230 2413.1094 0.0000 0.0000 685.2995 -10503.1814 118.2034 -11188.4809 -10501.3544 119.7768 1039.3240 1091.2051 28528.0481 3.3667 3.4254
TCL: Running 100000 steps at 150 kelvin.
TCL: Setting parameter langevinTemp to 150
TCL: Running for 100000 steps
ETITLE: TS BOND ANGLE DIHED IMPRP ELECT VDW BOUNDARY MISC KINETIC TOTAL TEMP POTENTIAL TOTAL3 TEMPAVG PRESSURE GPRESSURE VOLUME PRESSAVG GPRESSAVG
ENERGY: 400000 0.6407 6.5449 25.0471 0.0000 -13633.8230 2413.1094 0.0000 0.0000 684.9593 -10503.5216 118.1447 -11188.4809 -10502.5738 118.1447 1033.4436 1091.5893 28528.0481 1033.4436 1091.5893
ENERGY: 500000 1.0358 8.8345 25.5982 0.0000 -13320.5394 2220.7312 0.0000 0.0000 853.7828 -10210.5569 147.2641 -11064.3397 -10209.3436 149.3652 -15.6176 61.4723 28551.2248 4.2099 4.1107
TCL: Running 100000 steps at 180 kelvin.
TCL: Setting parameter langevinTemp to 180
TCL: Running for 100000 steps
ETITLE: TS BOND ANGLE DIHED IMPRP ELECT VDW BOUNDARY MISC KINETIC TOTAL TEMP POTENTIAL TOTAL3 TEMPAVG PRESSURE GPRESSURE VOLUME PRESSAVG GPRESSAVG
ENERGY: 500000 1.0358 8.8345 25.5982 0.0000 -13320.5394 2220.7312 0.0000 0.0000 853.3414 -10210.9983 147.1880 -11064.3397 -10209.1723 147.1880 5.3541 59.9735 28551.2248 5.3541 59.9735
ENERGY: 600000 2.5724 8.1108 25.9378 0.0000 -13065.6915 2262.8490 0.0000 0.0000 1030.7971 -9735.4244 177.7963 -10766.2215 -9732.3124 179.7108 1770.6369 1869.9310 28067.4967 3.5342 3.5554
TCL: Running 100000 steps at 210 kelvin.
TCL: Setting parameter langevinTemp to 210
TCL: Running for 100000 steps
ETITLE: TS BOND ANGLE DIHED IMPRP ELECT VDW BOUNDARY MISC KINETIC TOTAL TEMP POTENTIAL TOTAL3 TEMPAVG PRESSURE GPRESSURE VOLUME PRESSAVG GPRESSAVG
ENERGY: 600000 2.5724 8.1108 25.9378 0.0000 -13065.6915 2262.8490 0.0000 0.0000 1030.2584 -9735.9631 177.7034 -10766.2215 -9734.4138 177.7034 1806.4739 1871.3192 28067.4967 1806.4739 1871.3192
ENERGY: 700000 1.1940 9.0028 26.1075 0.0000 -12228.1868 1888.0480 0.0000 0.0000 1182.1143 -9121.7202 203.8961 -10303.8345 -9117.7921 209.8528 144.2840 259.5436 28457.3642 4.0664 4.1781
TCL: Running 100000 steps at 240 kelvin.
TCL: Setting parameter langevinTemp to 240
TCL: Running for 100000 steps
ETITLE: TS BOND ANGLE DIHED IMPRP ELECT VDW BOUNDARY MISC KINETIC TOTAL TEMP POTENTIAL TOTAL3 TEMPAVG PRESSURE GPRESSURE VOLUME PRESSAVG GPRESSAVG
ENERGY: 700000 1.1940 9.0028 26.1075 0.0000 -12228.1868 1888.0480 0.0000 0.0000 1181.5241 -9122.3103 203.7943 -10303.8345 -9119.9156 203.7943 160.3008 259.2576 28457.3642 160.3008 259.2576
ENERGY: 800000 4.1000 8.3792 28.6868 0.0000 -11568.4165 1707.4457 0.0000 0.0000 1376.3680 -8443.4368 237.4018 -9819.8048 -8439.6930 240.0361 407.4145 563.9048 28545.6848 3.7968 3.6895
TCL: Running 100000 steps at 270 kelvin.
TCL: Setting parameter langevinTemp to 270
TCL: Running for 100000 steps
ETITLE: TS BOND ANGLE DIHED IMPRP ELECT VDW BOUNDARY MISC KINETIC TOTAL TEMP POTENTIAL TOTAL3 TEMPAVG PRESSURE GPRESSURE VOLUME PRESSAVG GPRESSAVG
ENERGY: 800000 4.1000 8.3792 28.6868 0.0000 -11568.4165 1707.4457 0.0000 0.0000 1375.6831 -8444.1217 237.2837 -9819.8048 -8441.8452 237.2837 466.8467 562.5829 28545.6848 466.8467 562.5829
ENERGY: 900000 3.6943 10.5888 26.5962 0.0000 -11115.8109 1555.7301 0.0000 0.0000 1552.0138 -7967.1878 267.6980 -9519.2016 -7963.1863 270.7317 -40.6530 37.0022 29317.7076 2.0562 2.1202
TCL: Running 1000000 steps at 300 kelvin.
TCL: Setting parameter langevinTemp to 300
TCL: Running for 1000000 steps
ETITLE: TS BOND ANGLE DIHED IMPRP ELECT VDW BOUNDARY MISC KINETIC TOTAL TEMP POTENTIAL TOTAL3 TEMPAVG PRESSURE GPRESSURE VOLUME PRESSAVG GPRESSAVG
ENERGY: 900000 3.6943 10.5888 26.5962 0.0000 -11115.8109 1555.7301 0.0000 0.0000 1551.2328 -7967.9688 267.5633 -9519.2016 -7966.3575 267.5633 -44.1308 38.4749 29317.7076 -44.1308 38.4749
ENERGY: 1100000 5.7490 12.9487 26.4985 0.0000 -10512.0679 1418.5147 0.0000 0.0000 1750.1862 -7298.1707 301.8796 -9048.3569 -7296.5504 300.3164 85.7278 207.6706 29970.1039 3.0445 3.0771
ENERGY: 1300000 2.1312 15.7700 28.5992 0.0000 -10404.5282 1269.4081 0.0000 0.0000 1774.7262 -7313.8935 306.1124 -9088.6197 -7310.2066 300.8337 -1196.4615 -1131.2361 30287.2812 2.5120 2.7304
ENERGY: 1500000 2.1395 14.9251 29.3160 0.0000 -10532.1749 1396.7914 0.0000 0.0000 1771.3532 -7317.6498 305.5306 -9089.0030 -7313.0179 300.2433 105.2478 183.6751 29585.4688 4.2584 4.3957
ENERGY: 1700000 4.2640 11.4362 27.7148 0.0000 -10605.9023 1445.1886 0.0000 0.0000 1750.2212 -7367.0776 301.8856 -9117.2988 -7363.2720 300.0033 228.2796 302.0357 29650.1146 3.4614 3.4262
ENERGY: 1900000 3.9633 11.0405 27.9318 0.0000 -10525.9807 1400.8024 0.0000 0.0000 1780.2231 -7302.0195 307.0605 -9082.2426 -7299.0724 300.9796 -32.5690 70.0503 30003.5674 3.3464 3.4509
TCL: Exiting due to exit command.
