Info: SIMULATION PARAMETERS:
Info: TIMESTEP               2
Info: NUMBER OF STEPS        0
Info: STEPS PER CYCLE        10
Info: PERIODIC CELL BASIS 1  34.986 0 0
Info: PERIODIC CELL BASIS 2  0 35.779 0
Info: PERIODIC CELL BASIS 3  0 0 35.644
Info: PERIODIC CELL CENTER   0 0 0
Info: WRAPPING WATERS AROUND PERIODIC BOUNDARIES ON OUTPUT.
Info: WRAPPING ALL CLUSTERS AROUND PERIODIC BOUNDARIES ON OUTPUT.
Info: FIRST LDB TIMESTEP     50
Info: LAST LDB TIMESTEP     -1
Info: HOM BACKGROUND SCALING 1
Info: PME BACKGROUND SCALING 1
Info: MIN ATOMS PER PATCH    40
Info: EMPTY PATCH LOAD       40 ATOMS
Info: INITIAL TEMPERATURE    300
Info: CENTER OF MASS MOVING INITIALLY? NO
Info: DIELECTRIC             1
Info: EXCLUDE                SCALED ONE-FOUR
Info: 1-4 ELECTROSTATICS SCALED BY 0.833333
Info: MODIFIED 1-4 VDW PARAMETERS WILL BE USED
Info: DCD FILENAME           mobley_5760563_equil.dcd
Info: DCD FREQUENCY          100000
Info: DCD FIRST STEP         100000
Info: DCD FILE WILL CONTAIN UNIT CELL DATA
Info: XST FILENAME           mobley_5760563_equil.xst
Info: XST FREQUENCY          100000
Info: NO VELOCITY DCD OUTPUT
Info: NO FORCE DCD OUTPUT
Info: OUTPUT FILENAME        mobley_5760563_equil
Info: BINARY OUTPUT FILES WILL BE USED
Info: RESTART FILENAME       mobley_5760563_equil.restart
Info: RESTART FREQUENCY      100000
Info: BINARY RESTART FILES WILL BE USED
Info: CUTOFF                 9
Info: PAIRLIST DISTANCE      11
Info: PAIRLIST SHRINK RATE   0.01
Info: PAIRLIST GROW RATE     0.01
Info: PAIRLIST TRIGGER       0.3
Info: PAIRLISTS PER CYCLE    2
Info: PAIRLISTS ENABLED
Info: MARGIN                 8
Info: HYDROGEN GROUP CUTOFF  2.5
Info: PATCH DIMENSION        21.5
Info: ENERGY OUTPUT STEPS    100000
Info: ENERGY EVALUATION STEPS    100000
Info: OUTPUT ENERGY PRECISION 4
Info: CROSSTERM ENERGY INCLUDED IN DIHEDRAL
Info: TIMING OUTPUT STEPS    1000000
Info: PRESSURE OUTPUT STEPS  100000
Info: LANGEVIN DYNAMICS ACTIVE
Info: LANGEVIN TEMPERATURE   30
Info: LANGEVIN USING BBK INTEGRATOR
Info: LANGEVIN DAMPING COEFFICIENT IS 1 INVERSE PS
Info: LANGEVIN DYNAMICS APPLIED TO HYDROGENS
Info: LANGEVIN PISTON PRESSURE CONTROL ACTIVE
Info:        TARGET PRESSURE IS 1.01325 BAR
Info:     OSCILLATION PERIOD IS 50 FS
Info:             DECAY TIME IS 25 FS
Info:     PISTON TEMPERATURE IS 300 K
Info:       PRESSURE CONTROL IS GROUP-BASED
Info:    INITIAL STRAIN RATE IS 0 0 0
Info:       CELL FLUCTUATION IS ISOTROPIC
Info: PARTICLE MESH EWALD (PME) ACTIVE
Info: PME TOLERANCE               1e-06
Info: PME EWALD COEFFICIENT       0.348832
Info: PME INTERPOLATION ORDER     4
Info: PME GRID DIMENSIONS         36 36 36
Info: PME MAXIMUM GRID SPACING    1
Info: FULL ELECTROSTATIC EVALUATION FREQUENCY      2
Info: USING VERLET I (r-RESPA) MTS SCHEME.
Info: C1 SPLITTING OF LONG RANGE ELECTROSTATICS
Info: PLACING ATOMS IN PATCHES BY HYDROGEN GROUPS
Info: RIGID BONDS TO HYDROGEN : ALL
Info:         ERROR TOLERANCE : 1e-08
Info:          MAX ITERATIONS : 100
Info: RIGID WATER USING SETTLE ALGORITHM
Info: RANDOM NUMBER SEED     1743241087
Info: USE HYDROGEN BONDS?    NO
Info: Using AMBER format force field!
Info: AMBER PARM FILE        mobley_5760563.prmtop
Info: COORDINATE PDB         mobley_5760563.pdb
Info: Exclusions will be read from PARM file!
Info: SCNB (VDW SCALING)     2
Info: USING ARITHMETIC MEAN TO COMBINE L-J SIGMA PARAMETERS
Info: BINARY COORDINATES     mobley_5760563_min.coor
Info: SUMMARY OF PARAMETERS:
Info: 6 BONDS
Info: 6 ANGLES
Info:   6 HARMONIC
Info:   0 COSINE-BASED
Info: 2 DIHEDRAL
Info: 0 IMPROPER
Info: 0 CROSSTERM
Info: 0 VDW
Info: 28 VDW_PAIRS
Info: 0 NBTHOLE_PAIRS
Info: STRUCTURE SUMMARY:
Info: 2929 ATOMS
Info: 2928 BONDS
Info: 20 ANGLES
Info: 12 DIHEDRALS
Info: 0 IMPROPERS
Info: 0 CROSSTERMS
Info: 2960 EXCLUSIONS
Info: 2922 RIGID BONDS
Info: 5865 DEGREES OF FREEDOM
Info: 979 HYDROGEN GROUPS
Info: 4 ATOMS IN LARGEST HYDROGEN GROUP
Info: 979 MIGRATION GROUPS
Info: 4 ATOMS IN LARGEST MIGRATION GROUP
Info: TOTAL MASS = 17637.7 amu
Info: TOTAL CHARGE = 0.000100158 e
Info: MASS DENSITY = 0.656435 g/cm^3
Info: ATOM DENSITY = 0.0656463 atoms/A^3
Info: ADDED 0 IMPLICIT EXCLUSIONS
Info: NONBONDED TABLE R-SQUARED SPACING: 0.0625
Info: NONBONDED TABLE SIZE: 705 POINTS
Info: REMOVING COM VELOCITY -0.0633138 -0.0909554 -0.0850579
TCL: Running for 100000 steps
ETITLE: TS BOND ANGLE DIHED IMPRP ELECT VDW BOUNDARY MISC KINETIC TOTAL TEMP POTENTIAL TOTAL3 TEMPAVG PRESSURE GPRESSURE VOLUME PRESSAVG GPRESSAVG
ENERGY: 0 0.0931 0.6196 6.3513 0.0000 -13675.9088 2428.0287 0.0000 0.0000 1783.9694 -9456.8467 306.1327 -11240.8161 -9456.4917 306.1327 609.4959 638.0292 44617.8794 609.4959 638.0292
ENERGY: 100000 0.4147 1.1534 6.4543 0.0000 -14205.4225 2501.6167 0.0000 0.0000 174.1364 -11521.6470 29.8822 -11695.7834 -11521.3031 30.9672 432.3954 483.7923 28773.1542 4.3770 4.3912
TCL: Running 100000 steps at 60 kelvin.
TCL: Setting parameter langevinTemp to 60
TCL: Running for 100000 steps
ETITLE: TS BOND ANGLE DIHED IMPRP ELECT VDW BOUNDARY MISC KINETIC TOTAL TEMP POTENTIAL TOTAL3 TEMPAVG PRESSURE GPRESSURE VOLUME PRESSAVG GPRESSAVG
ENERGY: 100000 0.4147 1.1534 6.4543 0.0000 -14205.4225 2501.6167 0.0000 0.0000 174.0469 -11521.7365 29.8668 -11695.7834 -11521.3367 29.8668 429.3210 483.9138 28773.1542 429.3210 483.9138
ENERGY: 200000 0.1623 2.1195 6.6590 0.0000 -13894.1367 2266.0621 0.0000 0.0000 342.7372 -11276.3965 58.8144 -11619.1338 -11274.8500 60.0749 -1387.8082 -1344.3161 28996.7113 4.2731 4.2732
TCL: Running 100000 steps at 90 kelvin.
TCL: Setting parameter langevinTemp to 90
TCL: Running for 100000 steps
ETITLE: TS BOND ANGLE DIHED IMPRP ELECT VDW BOUNDARY MISC KINETIC TOTAL TEMP POTENTIAL TOTAL3 TEMPAVG PRESSURE GPRESSURE VOLUME PRESSAVG GPRESSAVG
ENERGY: 200000 0.1623 2.1195 6.6590 0.0000 -13894.1367 2266.0621 0.0000 0.0000 342.5698 -11276.5640 58.7857 -11619.1338 -11275.8249 58.7857 -1409.0423 -1343.7214 28996.7113 -1409.0423 -1343.7214
ENERGY: 300000 0.9518 0.7980 6.2905 0.0000 -13855.1785 2344.6599 0.0000 0.0000 526.9913 -10975.4869 90.4328 -11502.4783 -10973.7011 89.9322 -279.0096 -213.9481 29186.9147 4.3453 4.3527
TCL: Running 100000 steps at 120 kelvin.
TCL: Setting parameter langevinTemp to 120
TCL: Running for 100000 steps
ETITLE: TS BOND ANGLE DIHED IMPRP ELECT VDW BOUNDARY MISC KINETIC TOTAL TEMP POTENTIAL TOTAL3 TEMPAVG PRESSURE GPRESSURE VOLUME PRESSAVG GPRESSAVG
ENERGY: 300000 0.9518 0.7980 6.2905 0.0000 -13855.1785 2344.6599 0.0000 0.0000 526.7344 -10975.7439 90.3887 -11502.4783 -10974.6061 90.3887 -283.0257 -214.1749 29186.9147 -283.0257 -214.1749
ENERGY: 400000 0.4303 5.3252 7.3165 0.0000 -13728.2851 2307.3407 0.0000 0.0000 694.0936 -10713.7787 119.1079 -11407.8724 -10712.4600 120.0514 -315.4450 -239.3204 29122.5765 5.1335 5.1090
TCL: Running 100000 steps at 150 kelvin.
TCL: Setting parameter langevinTemp to 150
TCL: Running for 100000 steps
ETITLE: TS BOND ANGLE DIHED IMPRP ELECT VDW BOUNDARY MISC KINETIC TOTAL TEMP POTENTIAL TOTAL3 TEMPAVG PRESSURE GPRESSURE VOLUME PRESSAVG GPRESSAVG
ENERGY: 400000 0.4303 5.3252 7.3165 0.0000 -13728.2851 2307.3407 0.0000 0.0000 693.7471 -10714.1253 119.0484 -11407.8724 -10712.7862 119.0484 -314.5172 -239.8580 29122.5765 -314.5172 -239.8580
ENERGY: 500000 1.1092 3.8819 7.1015 0.0000 -13575.3548 2338.1540 0.0000 0.0000 865.5370 -10359.5711 148.5279 -11225.1081 -10358.3975 149.9081 612.0716 700.1228 28861.1747 4.3967 4.4151
TCL: Running 100000 steps at 180 kelvin.
TCL: Setting parameter langevinTemp to 180
TCL: Running for 100000 steps
ETITLE: TS BOND ANGLE DIHED IMPRP ELECT VDW BOUNDARY MISC KINETIC TOTAL TEMP POTENTIAL TOTAL3 TEMPAVG PRESSURE GPRESSURE VOLUME PRESSAVG GPRESSAVG
ENERGY: 500000 1.1092 3.8819 7.1015 0.0000 -13575.3548 2338.1540 0.0000 0.0000 865.1095 -10359.9986 148.4545 -11225.1081 -10358.4811 148.4545 646.7604 698.9907 28861.1747 646.7604 698.9907
ENERGY: 600000 0.3978 2.3328 6.5902 0.0000 -13071.6660 2077.4369 0.0000 0.0000 1038.1861 -9946.7222 178.1548 -10984.9083 -9944.6768 179.8531 -316.9379 -221.6975 28404.2372 4.1532 4.1167
TCL: Running 100000 steps at 210 kelvin.
TCL: Setting parameter langevinTemp to 210
TCL: Running for 100000 steps
ETITLE: TS BOND ANGLE DIHED IMPRP ELECT VDW BOUNDARY MISC KINETIC TOTAL TEMP POTENTIAL TOTAL3 TEMPAVG PRESSURE GPRESSURE VOLUME PRESSAVG GPRESSAVG
ENERGY: 600000 0.3978 2.3328 6.5902 0.0000 -13071.6660 2077.4369 0.0000 0.0000 1037.6985 -9947.2098 178.0711 -10984.9083 -9945.1860 178.0711 -295.8009 -221.8455 28404.2372 -295.8009 -221.8455
ENERGY: 700000 0.4455 3.6239 6.6782 0.0000 -12452.8555 1910.9132 0.0000 0.0000 1206.5971 -9324.5975 207.0545 -10531.1946 -9322.8316 209.3785 151.4058 202.1106 28470.9566 4.2240 4.0785
TCL: Running 100000 steps at 240 kelvin.
TCL: Setting parameter langevinTemp to 240
TCL: Running for 100000 steps
ETITLE: TS BOND ANGLE DIHED IMPRP ELECT VDW BOUNDARY MISC KINETIC TOTAL TEMP POTENTIAL TOTAL3 TEMPAVG PRESSURE GPRESSURE VOLUME PRESSAVG GPRESSAVG
ENERGY: 700000 0.4455 3.6239 6.6782 0.0000 -12452.8555 1910.9132 0.0000 0.0000 1205.9960 -9325.1986 206.9513 -10531.1946 -9322.7672 206.9513 130.9416 201.6814 28470.9566 130.9416 201.6814
ENERGY: 800000 1.1163 4.9668 7.6744 0.0000 -11798.4267 1746.8173 0.0000 0.0000 1419.7373 -8618.1146 243.6298 -10037.8519 -8614.8406 240.2900 815.6741 873.1523 28370.3704 3.6447 3.6287
TCL: Running 100000 steps at 270 kelvin.
TCL: Setting parameter langevinTemp to 270
TCL: Running for 100000 steps
ETITLE: TS BOND ANGLE DIHED IMPRP ELECT VDW BOUNDARY MISC KINETIC TOTAL TEMP POTENTIAL TOTAL3 TEMPAVG PRESSURE GPRESSURE VOLUME PRESSAVG GPRESSAVG
ENERGY: 800000 1.1163 4.9668 7.6744 0.0000 -11798.4267 1746.8173 0.0000 0.0000 1419.0511 -8618.8008 243.5120 -10037.8519 -8616.9680 243.5120 793.9571 874.5798 28370.3704 793.9571 874.5798
ENERGY: 900000 1.0109 7.6007 6.4228 0.0000 -11322.9467 1632.5723 0.0000 0.0000 1566.4221 -8108.9179 268.8012 -9675.3400 -8105.3906 269.9407 350.4161 487.8378 29462.4054 3.3262 3.1828
TCL: Running 1000000 steps at 300 kelvin.
TCL: Setting parameter langevinTemp to 300
TCL: Running for 1000000 steps
ETITLE: TS BOND ANGLE DIHED IMPRP ELECT VDW BOUNDARY MISC KINETIC TOTAL TEMP POTENTIAL TOTAL3 TEMPAVG PRESSURE GPRESSURE VOLUME PRESSAVG GPRESSAVG
ENERGY: 900000 1.0109 7.6007 6.4228 0.0000 -11322.9467 1632.5723 0.0000 0.0000 1565.6089 -8109.7311 268.6616 -9675.3400 -8107.4409 268.6616 394.4044 489.9532 29462.4054 394.4044 489.9532
ENERGY: 1100000 1.9448 5.9469 9.1680 0.0000 -10676.2520 1409.4487 0.0000 0.0000 1744.7268 -7505.0169 299.3986 -9249.7437 -7503.5347 300.4349 -161.9765 -65.7792 29924.3579 2.2285 2.4063
ENERGY: 1300000 2.7269 4.4919 6.3658 0.0000 -10578.8257 1369.3244 0.0000 0.0000 1750.4435 -7445.4731 300.3796 -9195.9167 -7440.7758 299.7887 -360.8094 -306.9538 30231.8603 2.7502 2.6250
ENERGY: 1500000 1.9712 4.1695 7.7009 0.0000 -10721.3807 1443.3549 0.0000 0.0000 1744.9936 -7519.1905 299.4444 -9264.1841 -7513.8030 300.3725 126.0580 223.1397 29732.1500 3.3299 3.3630
ENERGY: 1700000 2.3499 7.3034 6.7337 0.0000 -10701.5061 1417.6043 0.0000 0.0000 1741.2163 -7526.2984 298.7962 -9267.5147 -7522.1432 300.0032 -87.5177 -20.9388 30206.7667 3.0859 3.1055
ENERGY: 1900000 1.2352 7.2108 6.7090 0.0000 -10656.0782 1445.6210 0.0000 0.0000 1737.5787 -7457.7235 298.1720 -9195.3021 -7455.1962 300.4162 283.0237 364.1582 30129.9470 2.4550 2.5417
TCL: Exiting due to exit command.
