Info: SIMULATION PARAMETERS:
Info: TIMESTEP               2
Info: NUMBER OF STEPS        0
Info: STEPS PER CYCLE        10
Info: PERIODIC CELL BASIS 1  34.207 0 0
Info: PERIODIC CELL BASIS 2  0 35.267 0
Info: PERIODIC CELL BASIS 3  0 0 35.856
Info: PERIODIC CELL CENTER   0 0 0
Info: WRAPPING WATERS AROUND PERIODIC BOUNDARIES ON OUTPUT.
Info: WRAPPING ALL CLUSTERS AROUND PERIODIC BOUNDARIES ON OUTPUT.
Info: FIRST LDB TIMESTEP     50
Info: LAST LDB TIMESTEP     -1
Info: HOM BACKGROUND SCALING 1
Info: PME BACKGROUND SCALING 1
Info: MIN ATOMS PER PATCH    40
Info: EMPTY PATCH LOAD       40 ATOMS
Info: INITIAL TEMPERATURE    300
Info: CENTER OF MASS MOVING INITIALLY? NO
Info: DIELECTRIC             1
Info: EXCLUDE                SCALED ONE-FOUR
Info: 1-4 ELECTROSTATICS SCALED BY 0.833333
Info: MODIFIED 1-4 VDW PARAMETERS WILL BE USED
Info: DCD FILENAME           mobley_9557440_equil.dcd
Info: DCD FREQUENCY          100000
Info: DCD FIRST STEP         100000
Info: DCD FILE WILL CONTAIN UNIT CELL DATA
Info: XST FILENAME           mobley_9557440_equil.xst
Info: XST FREQUENCY          100000
Info: NO VELOCITY DCD OUTPUT
Info: NO FORCE DCD OUTPUT
Info: OUTPUT FILENAME        mobley_9557440_equil
Info: BINARY OUTPUT FILES WILL BE USED
Info: RESTART FILENAME       mobley_9557440_equil.restart
Info: RESTART FREQUENCY      100000
Info: BINARY RESTART FILES WILL BE USED
Info: CUTOFF                 9
Info: PAIRLIST DISTANCE      11
Info: PAIRLIST SHRINK RATE   0.01
Info: PAIRLIST GROW RATE     0.01
Info: PAIRLIST TRIGGER       0.3
Info: PAIRLISTS PER CYCLE    2
Info: PAIRLISTS ENABLED
Info: MARGIN                 8
Info: HYDROGEN GROUP CUTOFF  2.5
Info: PATCH DIMENSION        21.5
Info: ENERGY OUTPUT STEPS    100000
Info: ENERGY EVALUATION STEPS    100000
Info: OUTPUT ENERGY PRECISION 4
Info: CROSSTERM ENERGY INCLUDED IN DIHEDRAL
Info: TIMING OUTPUT STEPS    1000000
Info: PRESSURE OUTPUT STEPS  100000
Info: LANGEVIN DYNAMICS ACTIVE
Info: LANGEVIN TEMPERATURE   30
Info: LANGEVIN USING BBK INTEGRATOR
Info: LANGEVIN DAMPING COEFFICIENT IS 1 INVERSE PS
Info: LANGEVIN DYNAMICS APPLIED TO HYDROGENS
Info: LANGEVIN PISTON PRESSURE CONTROL ACTIVE
Info:        TARGET PRESSURE IS 1.01325 BAR
Info:     OSCILLATION PERIOD IS 50 FS
Info:             DECAY TIME IS 25 FS
Info:     PISTON TEMPERATURE IS 300 K
Info:       PRESSURE CONTROL IS GROUP-BASED
Info:    INITIAL STRAIN RATE IS 0 0 0
Info:       CELL FLUCTUATION IS ISOTROPIC
Info: PARTICLE MESH EWALD (PME) ACTIVE
Info: PME TOLERANCE               1e-06
Info: PME EWALD COEFFICIENT       0.348832
Info: PME INTERPOLATION ORDER     4
Info: PME GRID DIMENSIONS         36 36 36
Info: PME MAXIMUM GRID SPACING    1
Info: FULL ELECTROSTATIC EVALUATION FREQUENCY      2
Info: USING VERLET I (r-RESPA) MTS SCHEME.
Info: C1 SPLITTING OF LONG RANGE ELECTROSTATICS
Info: PLACING ATOMS IN PATCHES BY HYDROGEN GROUPS
Info: RIGID BONDS TO HYDROGEN : ALL
Info:         ERROR TOLERANCE : 1e-08
Info:          MAX ITERATIONS : 100
Info: RIGID WATER USING SETTLE ALGORITHM
Info: RANDOM NUMBER SEED     1743164681
Info: USE HYDROGEN BONDS?    NO
Info: Using AMBER format force field!
Info: AMBER PARM FILE        mobley_9557440.prmtop
Info: COORDINATE PDB         mobley_9557440.pdb
Info: Exclusions will be read from PARM file!
Info: SCNB (VDW SCALING)     2
Info: USING ARITHMETIC MEAN TO COMBINE L-J SIGMA PARAMETERS
Info: BINARY COORDINATES     mobley_9557440_min.coor
Info: SUMMARY OF PARAMETERS:
Info: 10 BONDS
Info: 14 ANGLES
Info:   14 HARMONIC
Info:   0 COSINE-BASED
Info: 7 DIHEDRAL
Info: 0 IMPROPER
Info: 0 CROSSTERM
Info: 0 VDW
Info: 36 VDW_PAIRS
Info: 0 NBTHOLE_PAIRS
Info: STRUCTURE SUMMARY:
Info: 2922 ATOMS
Info: 2922 BONDS
Info: 18 ANGLES
Info: 33 DIHEDRALS
Info: 0 IMPROPERS
Info: 0 CROSSTERMS
Info: 2961 EXCLUSIONS
Info: 2913 RIGID BONDS
Info: 5853 DEGREES OF FREEDOM
Info: 979 HYDROGEN GROUPS
Info: 3 ATOMS IN LARGEST HYDROGEN GROUP
Info: 979 MIGRATION GROUPS
Info: 3 ATOMS IN LARGEST MIGRATION GROUP
Info: TOTAL MASS = 17622.1 amu
Info: TOTAL CHARGE = 0.000100046 e
Info: MASS DENSITY = 0.676504 g/cm^3
Info: ATOM DENSITY = 0.0675515 atoms/A^3
Info: ADDED 0 IMPLICIT EXCLUSIONS
Info: NONBONDED TABLE R-SQUARED SPACING: 0.0625
Info: NONBONDED TABLE SIZE: 705 POINTS
Info: REMOVING COM VELOCITY -0.0541667 0.129443 0.00209522
TCL: Running for 100000 steps
ETITLE: TS BOND ANGLE DIHED IMPRP ELECT VDW BOUNDARY MISC KINETIC TOTAL TEMP POTENTIAL TOTAL3 TEMPAVG PRESSURE GPRESSURE VOLUME PRESSAVG GPRESSAVG
ENERGY: 0 0.5276 1.0836 12.1273 0.0000 -13699.3540 2393.8222 0.0000 0.0000 1761.1131 -9530.6802 302.8302 -11291.7934 -9530.3390 302.8302 539.1103 578.3716 43255.8992 539.1103 578.3716
ENERGY: 100000 1.1662 1.0075 12.8417 0.0000 -14126.6095 2322.8728 0.0000 0.0000 171.5865 -11617.1348 29.5050 -11788.7213 -11616.7062 30.9968 -1126.5493 -1040.5259 29033.6967 3.4087 3.4022
TCL: Running 100000 steps at 60 kelvin.
TCL: Setting parameter langevinTemp to 60
TCL: Running for 100000 steps
ETITLE: TS BOND ANGLE DIHED IMPRP ELECT VDW BOUNDARY MISC KINETIC TOTAL TEMP POTENTIAL TOTAL3 TEMPAVG PRESSURE GPRESSURE VOLUME PRESSAVG GPRESSAVG
ENERGY: 100000 1.1662 1.0075 12.8417 0.0000 -14126.6095 2322.8728 0.0000 0.0000 171.5031 -11617.2181 29.4906 -11788.7213 -11616.7700 29.4906 -1114.5540 -1040.4029 29033.6967 -1114.5540 -1040.4029
ENERGY: 200000 2.0794 2.1537 12.3040 0.0000 -14172.1522 2448.1209 0.0000 0.0000 359.5832 -11347.9111 61.8317 -11707.4943 -11346.5862 59.9180 386.9395 428.8621 28625.8393 5.6056 5.6179
TCL: Running 100000 steps at 90 kelvin.
TCL: Setting parameter langevinTemp to 90
TCL: Running for 100000 steps
ETITLE: TS BOND ANGLE DIHED IMPRP ELECT VDW BOUNDARY MISC KINETIC TOTAL TEMP POTENTIAL TOTAL3 TEMPAVG PRESSURE GPRESSURE VOLUME PRESSAVG GPRESSAVG
ENERGY: 200000 2.0794 2.1537 12.3040 0.0000 -14172.1522 2448.1209 0.0000 0.0000 359.4064 -11348.0879 61.8013 -11707.4943 -11347.2114 61.8013 368.5757 429.2112 28625.8393 368.5757 429.2112
ENERGY: 300000 0.6170 2.3262 13.5067 0.0000 -14015.5832 2364.2059 0.0000 0.0000 507.5773 -11127.3500 87.2799 -11634.9273 -11125.7601 89.9152 -163.7406 -99.2878 28618.7407 3.1331 3.1001
TCL: Running 100000 steps at 120 kelvin.
TCL: Setting parameter langevinTemp to 120
TCL: Running for 100000 steps
ETITLE: TS BOND ANGLE DIHED IMPRP ELECT VDW BOUNDARY MISC KINETIC TOTAL TEMP POTENTIAL TOTAL3 TEMPAVG PRESSURE GPRESSURE VOLUME PRESSAVG GPRESSAVG
ENERGY: 300000 0.6170 2.3262 13.5067 0.0000 -14015.5832 2364.2059 0.0000 0.0000 507.3116 -11127.6157 87.2342 -11634.9273 -11126.4374 87.2342 -153.8292 -98.9823 28618.7407 -153.8292 -98.9823
ENERGY: 400000 1.0047 3.0871 13.3445 0.0000 -13887.0109 2378.6955 0.0000 0.0000 690.9033 -10799.9758 118.8035 -11490.8791 -10798.0758 119.8690 648.3306 675.2974 28498.2615 4.6830 4.6005
TCL: Running 100000 steps at 150 kelvin.
TCL: Setting parameter langevinTemp to 150
TCL: Running for 100000 steps
ETITLE: TS BOND ANGLE DIHED IMPRP ELECT VDW BOUNDARY MISC KINETIC TOTAL TEMP POTENTIAL TOTAL3 TEMPAVG PRESSURE GPRESSURE VOLUME PRESSAVG GPRESSAVG
ENERGY: 400000 1.0047 3.0871 13.3445 0.0000 -13887.0109 2378.6955 0.0000 0.0000 690.5516 -10800.3275 118.7430 -11490.8791 -10799.0624 118.7430 621.5866 675.3772 28498.2615 621.5866 675.3772
ENERGY: 500000 2.8283 2.6604 13.0049 0.0000 -13529.6558 2180.2620 0.0000 0.0000 851.5344 -10479.3659 146.4246 -11330.9002 -10477.4845 150.1468 -360.2149 -336.9860 28678.7748 3.0801 3.1727
TCL: Running 100000 steps at 180 kelvin.
TCL: Setting parameter langevinTemp to 180
TCL: Running for 100000 steps
ETITLE: TS BOND ANGLE DIHED IMPRP ELECT VDW BOUNDARY MISC KINETIC TOTAL TEMP POTENTIAL TOTAL3 TEMPAVG PRESSURE GPRESSURE VOLUME PRESSAVG GPRESSAVG
ENERGY: 500000 2.8283 2.6604 13.0049 0.0000 -13529.6558 2180.2620 0.0000 0.0000 851.0998 -10479.8004 146.3499 -11330.9002 -10477.8078 146.3499 -403.6973 -337.1069 28678.7748 -403.6973 -337.1069
ENERGY: 600000 3.1975 3.5946 13.5953 0.0000 -13164.9159 2144.6936 0.0000 0.0000 1024.9195 -9974.9156 176.2388 -10999.8350 -9972.4249 179.8121 479.2650 503.7949 28580.2530 3.4212 3.4671
TCL: Running 100000 steps at 210 kelvin.
TCL: Setting parameter langevinTemp to 210
TCL: Running for 100000 steps
ETITLE: TS BOND ANGLE DIHED IMPRP ELECT VDW BOUNDARY MISC KINETIC TOTAL TEMP POTENTIAL TOTAL3 TEMPAVG PRESSURE GPRESSURE VOLUME PRESSAVG GPRESSAVG
ENERGY: 600000 3.1975 3.5946 13.5953 0.0000 -13164.9159 2144.6936 0.0000 0.0000 1024.3928 -9975.4423 176.1483 -10999.8350 -9973.6565 176.1483 462.2461 503.7968 28580.2530 462.2461 503.7968
ENERGY: 700000 4.7651 4.3081 15.6787 0.0000 -12494.1448 1928.3241 0.0000 0.0000 1209.3707 -9331.6982 207.9559 -10541.0688 -9330.5587 209.7295 601.8255 647.0402 28450.7006 2.7555 2.6131
TCL: Running 100000 steps at 240 kelvin.
TCL: Setting parameter langevinTemp to 240
TCL: Running for 100000 steps
ETITLE: TS BOND ANGLE DIHED IMPRP ELECT VDW BOUNDARY MISC KINETIC TOTAL TEMP POTENTIAL TOTAL3 TEMPAVG PRESSURE GPRESSURE VOLUME PRESSAVG GPRESSAVG
ENERGY: 700000 4.7651 4.3081 15.6787 0.0000 -12494.1448 1928.3241 0.0000 0.0000 1208.7658 -9332.3030 207.8519 -10541.0688 -9330.4599 207.8519 566.5522 645.4594 28450.7006 566.5522 645.4594
ENERGY: 800000 3.3045 2.6511 14.3300 0.0000 -11851.9804 1684.8328 0.0000 0.0000 1398.2144 -8748.6475 240.4283 -10146.8620 -8745.2147 240.0822 -140.0730 -28.6863 28670.0955 4.3728 4.4527
TCL: Running 100000 steps at 270 kelvin.
TCL: Setting parameter langevinTemp to 270
TCL: Running for 100000 steps
ETITLE: TS BOND ANGLE DIHED IMPRP ELECT VDW BOUNDARY MISC KINETIC TOTAL TEMP POTENTIAL TOTAL3 TEMPAVG PRESSURE GPRESSURE VOLUME PRESSAVG GPRESSAVG
ENERGY: 800000 3.3045 2.6511 14.3300 0.0000 -11851.9804 1684.8328 0.0000 0.0000 1397.5349 -8749.3270 240.3115 -10146.8620 -8747.5464 240.3115 -109.4685 -27.4487 28670.0955 -109.4685 -27.4487
ENERGY: 900000 2.5206 3.1678 13.0596 0.0000 -11359.7841 1582.6584 0.0000 0.0000 1587.0440 -8171.3337 272.8983 -9758.3777 -8168.1759 269.4923 266.4990 398.0221 29076.1874 3.2753 3.4612
TCL: Running 1000000 steps at 300 kelvin.
TCL: Setting parameter langevinTemp to 300
TCL: Running for 1000000 steps
ETITLE: TS BOND ANGLE DIHED IMPRP ELECT VDW BOUNDARY MISC KINETIC TOTAL TEMP POTENTIAL TOTAL3 TEMPAVG PRESSURE GPRESSURE VOLUME PRESSAVG GPRESSAVG
ENERGY: 900000 2.5206 3.1678 13.0596 0.0000 -11359.7841 1582.6584 0.0000 0.0000 1586.2557 -8172.1220 272.7627 -9758.3777 -8169.8632 272.7627 329.5719 397.9737 29076.1874 329.5719 397.9737
ENERGY: 1100000 3.8371 4.1335 14.8062 0.0000 -10888.2556 1511.2874 0.0000 0.0000 1777.0504 -7577.1410 305.5706 -9354.1914 -7572.8167 300.1750 739.4824 841.7708 30031.0805 3.1989 3.3011
ENERGY: 1300000 4.6751 4.9374 16.2140 0.0000 -10757.6839 1411.8393 0.0000 0.0000 1719.3320 -7600.6861 295.6457 -9320.0181 -7594.7666 300.1105 -291.2933 -178.6497 30050.7024 4.8856 4.8783
ENERGY: 1500000 6.2051 2.6202 16.9662 0.0000 -10733.0737 1420.7329 0.0000 0.0000 1737.7899 -7548.7594 298.8196 -9286.5492 -7546.0272 300.1713 223.2397 288.7236 29838.3773 2.7407 2.5852
ENERGY: 1700000 4.3753 3.4483 13.3042 0.0000 -10754.7600 1450.8855 0.0000 0.0000 1691.8160 -7590.9307 290.9143 -9282.7467 -7587.2544 301.3635 420.8845 506.6349 30126.7839 4.1060 4.0669
ENERGY: 1900000 2.0120 3.9530 16.9950 0.0000 -10830.1192 1416.1248 0.0000 0.0000 1788.4052 -7602.6293 307.5231 -9391.0345 -7599.8194 299.7091 -295.7827 -181.2189 30017.1547 2.0560 1.9493
TCL: Exiting due to exit command.
