Info: SIMULATION PARAMETERS:
Info: TIMESTEP               2
Info: NUMBER OF STEPS        0
Info: STEPS PER CYCLE        10
Info: PERIODIC CELL BASIS 1  37.133 0 0
Info: PERIODIC CELL BASIS 2  0 37.796 0
Info: PERIODIC CELL BASIS 3  0 0 31.349
Info: PERIODIC CELL CENTER   0 0 0
Info: WRAPPING WATERS AROUND PERIODIC BOUNDARIES ON OUTPUT.
Info: WRAPPING ALL CLUSTERS AROUND PERIODIC BOUNDARIES ON OUTPUT.
Info: FIRST LDB TIMESTEP     50
Info: LAST LDB TIMESTEP     -1
Info: HOM BACKGROUND SCALING 1
Info: PME BACKGROUND SCALING 1
Info: MIN ATOMS PER PATCH    40
Info: EMPTY PATCH LOAD       40 ATOMS
Info: INITIAL TEMPERATURE    300
Info: CENTER OF MASS MOVING INITIALLY? NO
Info: DIELECTRIC             1
Info: EXCLUDE                SCALED ONE-FOUR
Info: 1-4 ELECTROSTATICS SCALED BY 0.833333
Info: MODIFIED 1-4 VDW PARAMETERS WILL BE USED
Info: DCD FILENAME           mobley_7239499_equil.dcd
Info: DCD FREQUENCY          100000
Info: DCD FIRST STEP         100000
Info: DCD FILE WILL CONTAIN UNIT CELL DATA
Info: XST FILENAME           mobley_7239499_equil.xst
Info: XST FREQUENCY          100000
Info: NO VELOCITY DCD OUTPUT
Info: NO FORCE DCD OUTPUT
Info: OUTPUT FILENAME        mobley_7239499_equil
Info: BINARY OUTPUT FILES WILL BE USED
Info: RESTART FILENAME       mobley_7239499_equil.restart
Info: RESTART FREQUENCY      100000
Info: BINARY RESTART FILES WILL BE USED
Info: CUTOFF                 9
Info: PAIRLIST DISTANCE      11
Info: PAIRLIST SHRINK RATE   0.01
Info: PAIRLIST GROW RATE     0.01
Info: PAIRLIST TRIGGER       0.3
Info: PAIRLISTS PER CYCLE    2
Info: PAIRLISTS ENABLED
Info: MARGIN                 8
Info: HYDROGEN GROUP CUTOFF  2.5
Info: PATCH DIMENSION        21.5
Info: ENERGY OUTPUT STEPS    100000
Info: ENERGY EVALUATION STEPS    100000
Info: OUTPUT ENERGY PRECISION 4
Info: CROSSTERM ENERGY INCLUDED IN DIHEDRAL
Info: TIMING OUTPUT STEPS    1000000
Info: PRESSURE OUTPUT STEPS  100000
Info: LANGEVIN DYNAMICS ACTIVE
Info: LANGEVIN TEMPERATURE   30
Info: LANGEVIN USING BBK INTEGRATOR
Info: LANGEVIN DAMPING COEFFICIENT IS 1 INVERSE PS
Info: LANGEVIN DYNAMICS APPLIED TO HYDROGENS
Info: LANGEVIN PISTON PRESSURE CONTROL ACTIVE
Info:        TARGET PRESSURE IS 1.01325 BAR
Info:     OSCILLATION PERIOD IS 50 FS
Info:             DECAY TIME IS 25 FS
Info:     PISTON TEMPERATURE IS 300 K
Info:       PRESSURE CONTROL IS GROUP-BASED
Info:    INITIAL STRAIN RATE IS 0 0 0
Info:       CELL FLUCTUATION IS ISOTROPIC
Info: PARTICLE MESH EWALD (PME) ACTIVE
Info: PME TOLERANCE               1e-06
Info: PME EWALD COEFFICIENT       0.348832
Info: PME INTERPOLATION ORDER     4
Info: PME GRID DIMENSIONS         40 40 32
Info: PME MAXIMUM GRID SPACING    1
Info: FULL ELECTROSTATIC EVALUATION FREQUENCY      2
Info: USING VERLET I (r-RESPA) MTS SCHEME.
Info: C1 SPLITTING OF LONG RANGE ELECTROSTATICS
Info: PLACING ATOMS IN PATCHES BY HYDROGEN GROUPS
Info: RIGID BONDS TO HYDROGEN : ALL
Info:         ERROR TOLERANCE : 1e-08
Info:          MAX ITERATIONS : 100
Info: RIGID WATER USING SETTLE ALGORITHM
Info: RANDOM NUMBER SEED     1743220279
Info: USE HYDROGEN BONDS?    NO
Info: Using AMBER format force field!
Info: AMBER PARM FILE        mobley_7239499.prmtop
Info: COORDINATE PDB         mobley_7239499.pdb
Info: Exclusions will be read from PARM file!
Info: SCNB (VDW SCALING)     2
Info: USING ARITHMETIC MEAN TO COMBINE L-J SIGMA PARAMETERS
Info: BINARY COORDINATES     mobley_7239499_min.coor
Info: SUMMARY OF PARAMETERS:
Info: 6 BONDS
Info: 5 ANGLES
Info:   5 HARMONIC
Info:   0 COSINE-BASED
Info: 3 DIHEDRAL
Info: 0 IMPROPER
Info: 0 CROSSTERM
Info: 0 VDW
Info: 21 VDW_PAIRS
Info: 0 NBTHOLE_PAIRS
Info: STRUCTURE SUMMARY:
Info: 2905 ATOMS
Info: 2907 BONDS
Info: 38 ANGLES
Info: 68 DIHEDRALS
Info: 0 IMPROPERS
Info: 0 CROSSTERMS
Info: 2992 EXCLUSIONS
Info: 2890 RIGID BONDS
Info: 5825 DEGREES OF FREEDOM
Info: 976 HYDROGEN GROUPS
Info: 3 ATOMS IN LARGEST HYDROGEN GROUP
Info: 976 MIGRATION GROUPS
Info: 3 ATOMS IN LARGEST MIGRATION GROUP
Info: TOTAL MASS = 17532 amu
Info: TOTAL CHARGE = -1.11759e-08 e
Info: MASS DENSITY = 0.6617 g/cm^3
Info: ATOM DENSITY = 0.0660262 atoms/A^3
Info: ADDED 0 IMPLICIT EXCLUSIONS
Info: NONBONDED TABLE R-SQUARED SPACING: 0.0625
Info: NONBONDED TABLE SIZE: 705 POINTS
Info: REMOVING COM VELOCITY 0.0679485 0.0142145 -0.0769825
TCL: Running for 100000 steps
ETITLE: TS BOND ANGLE DIHED IMPRP ELECT VDW BOUNDARY MISC KINETIC TOTAL TEMP POTENTIAL TOTAL3 TEMPAVG PRESSURE GPRESSURE VOLUME PRESSAVG GPRESSAVG
ENERGY: 0 0.4540 0.1943 0.1650 0.0000 -13401.5411 2349.9006 0.0000 0.0000 1749.0832 -9301.7440 302.2073 -11050.8271 -9301.4099 302.2073 341.4134 368.8798 43997.6590 341.4134 368.8798
ENERGY: 100000 0.9155 0.9001 0.7560 0.0000 -13938.0438 2420.9877 0.0000 0.0000 173.8979 -11340.5867 30.0461 -11514.4845 -11340.1688 30.9181 -6.1090 42.3470 28455.6873 5.3546 5.3936
TCL: Running 100000 steps at 60 kelvin.
TCL: Setting parameter langevinTemp to 60
TCL: Running for 100000 steps
ETITLE: TS BOND ANGLE DIHED IMPRP ELECT VDW BOUNDARY MISC KINETIC TOTAL TEMP POTENTIAL TOTAL3 TEMPAVG PRESSURE GPRESSURE VOLUME PRESSAVG GPRESSAVG
ENERGY: 100000 0.9155 0.9001 0.7560 0.0000 -13938.0438 2420.9877 0.0000 0.0000 173.8117 -11340.6728 30.0313 -11514.4845 -11340.3556 30.0313 -5.6933 42.4360 28455.6873 -5.6933 42.4360
ENERGY: 200000 1.4997 0.8817 0.8718 0.0000 -13821.5234 2398.9039 0.0000 0.0000 348.0869 -11071.2794 60.1426 -11419.3663 -11070.2069 59.8474 222.3948 229.3736 28324.4997 3.6081 3.6304
TCL: Running 100000 steps at 90 kelvin.
TCL: Setting parameter langevinTemp to 90
TCL: Running for 100000 steps
ETITLE: TS BOND ANGLE DIHED IMPRP ELECT VDW BOUNDARY MISC KINETIC TOTAL TEMP POTENTIAL TOTAL3 TEMPAVG PRESSURE GPRESSURE VOLUME PRESSAVG GPRESSAVG
ENERGY: 200000 1.4997 0.8817 0.8718 0.0000 -13821.5234 2398.9039 0.0000 0.0000 347.9170 -11071.4493 60.1132 -11419.3663 -11070.6752 60.1132 173.2021 229.6256 28324.4997 173.2021 229.6256
ENERGY: 300000 2.0216 1.8431 3.2198 0.0000 -13880.6678 2543.6841 0.0000 0.0000 536.6696 -10793.2296 92.7260 -11329.8993 -10792.2828 89.9841 2112.9657 2202.2716 27841.6941 4.5958 4.7383
TCL: Running 100000 steps at 120 kelvin.
TCL: Setting parameter langevinTemp to 120
TCL: Running for 100000 steps
ETITLE: TS BOND ANGLE DIHED IMPRP ELECT VDW BOUNDARY MISC KINETIC TOTAL TEMP POTENTIAL TOTAL3 TEMPAVG PRESSURE GPRESSURE VOLUME PRESSAVG GPRESSAVG
ENERGY: 300000 2.0216 1.8431 3.2198 0.0000 -13880.6678 2543.6841 0.0000 0.0000 536.4131 -10793.4862 92.6817 -11329.8993 -10792.3873 92.6817 2149.5653 2201.5401 27841.6941 2149.5653 2201.5401
ENERGY: 400000 2.0807 1.3757 1.3927 0.0000 -13556.7695 2326.7914 0.0000 0.0000 710.2708 -10514.8582 122.7209 -11225.1290 -10513.3780 120.2426 370.9683 486.5631 28316.9303 3.1154 3.1923
TCL: Running 100000 steps at 150 kelvin.
TCL: Setting parameter langevinTemp to 150
TCL: Running for 100000 steps
ETITLE: TS BOND ANGLE DIHED IMPRP ELECT VDW BOUNDARY MISC KINETIC TOTAL TEMP POTENTIAL TOTAL3 TEMPAVG PRESSURE GPRESSURE VOLUME PRESSAVG GPRESSAVG
ENERGY: 400000 2.0807 1.3757 1.3927 0.0000 -13556.7695 2326.7914 0.0000 0.0000 709.9202 -10515.2088 122.6603 -11225.1290 -10513.3947 122.6603 431.2810 484.8587 28316.9303 431.2810 484.8587
ENERGY: 500000 2.0317 2.2058 3.1953 0.0000 -13362.2398 2326.7192 0.0000 0.0000 884.6756 -10143.4122 152.8546 -11028.0878 -10140.7084 150.0316 1244.9066 1281.4836 28351.2364 4.2539 4.3344
TCL: Running 100000 steps at 180 kelvin.
TCL: Setting parameter langevinTemp to 180
TCL: Running for 100000 steps
ETITLE: TS BOND ANGLE DIHED IMPRP ELECT VDW BOUNDARY MISC KINETIC TOTAL TEMP POTENTIAL TOTAL3 TEMPAVG PRESSURE GPRESSURE VOLUME PRESSAVG GPRESSAVG
ENERGY: 500000 2.0317 2.2058 3.1953 0.0000 -13362.2398 2326.7192 0.0000 0.0000 884.2514 -10143.8364 152.7813 -11028.0878 -10142.3574 152.7813 1240.2972 1282.9632 28351.2364 1240.2972 1282.9632
ENERGY: 600000 2.4656 4.7042 2.6628 0.0000 -12806.0268 2042.9525 0.0000 0.0000 1043.5596 -9709.6821 180.3066 -10753.2417 -9707.1495 180.2874 -146.2335 -81.5476 28459.9601 3.5424 3.5322
TCL: Running 100000 steps at 210 kelvin.
TCL: Setting parameter langevinTemp to 210
TCL: Running for 100000 steps
ETITLE: TS BOND ANGLE DIHED IMPRP ELECT VDW BOUNDARY MISC KINETIC TOTAL TEMP POTENTIAL TOTAL3 TEMPAVG PRESSURE GPRESSURE VOLUME PRESSAVG GPRESSAVG
ENERGY: 600000 2.4656 4.7042 2.6628 0.0000 -12806.0268 2042.9525 0.0000 0.0000 1043.0385 -9710.2032 180.2166 -10753.2417 -9708.5175 180.2166 -158.3434 -82.9823 28459.9601 -158.3434 -82.9823
ENERGY: 700000 2.6963 2.2160 4.2290 0.0000 -12278.5186 1889.2480 0.0000 0.0000 1262.9933 -9117.1361 218.2205 -10380.1294 -9113.5439 210.0497 92.0835 165.6494 28330.6380 4.2538 4.4716
TCL: Running 100000 steps at 240 kelvin.
TCL: Setting parameter langevinTemp to 240
TCL: Running for 100000 steps
ETITLE: TS BOND ANGLE DIHED IMPRP ELECT VDW BOUNDARY MISC KINETIC TOTAL TEMP POTENTIAL TOTAL3 TEMPAVG PRESSURE GPRESSURE VOLUME PRESSAVG GPRESSAVG
ENERGY: 700000 2.6963 2.2160 4.2290 0.0000 -12278.5186 1889.2480 0.0000 0.0000 1262.3875 -9117.7419 218.1158 -10380.1294 -9115.2901 218.1158 79.2751 166.8425 28330.6380 79.2751 166.8425
ENERGY: 800000 3.6448 5.5899 1.8531 0.0000 -11576.2332 1692.2567 0.0000 0.0000 1357.5634 -8515.3253 234.5603 -9872.8887 -8511.5390 239.6888 247.8996 310.1380 28387.1537 3.6132 3.7467
TCL: Running 100000 steps at 270 kelvin.
TCL: Setting parameter langevinTemp to 270
TCL: Running for 100000 steps
ETITLE: TS BOND ANGLE DIHED IMPRP ELECT VDW BOUNDARY MISC KINETIC TOTAL TEMP POTENTIAL TOTAL3 TEMPAVG PRESSURE GPRESSURE VOLUME PRESSAVG GPRESSAVG
ENERGY: 800000 3.6448 5.5899 1.8531 0.0000 -11576.2332 1692.2567 0.0000 0.0000 1356.8835 -8516.0052 234.4429 -9872.8887 -8513.6335 234.4429 230.9364 309.6432 28387.1537 230.9364 309.6432
ENERGY: 900000 2.4080 5.1807 4.6874 0.0000 -11063.8291 1541.0217 0.0000 0.0000 1582.3346 -7928.1967 273.3964 -9510.5313 -7926.4673 269.0692 256.2568 382.1651 28864.8855 2.4326 2.4168
TCL: Running 1000000 steps at 300 kelvin.
TCL: Setting parameter langevinTemp to 300
TCL: Running for 1000000 steps
ETITLE: TS BOND ANGLE DIHED IMPRP ELECT VDW BOUNDARY MISC KINETIC TOTAL TEMP POTENTIAL TOTAL3 TEMPAVG PRESSURE GPRESSURE VOLUME PRESSAVG GPRESSAVG
ENERGY: 900000 2.4080 5.1807 4.6874 0.0000 -11063.8291 1541.0217 0.0000 0.0000 1581.5338 -7928.9974 273.2580 -9510.5313 -7926.2184 273.2580 291.6825 379.7085 28864.8855 291.6825 379.7085
ENERGY: 1100000 6.7334 8.2540 3.7435 0.0000 -10471.6557 1408.4912 0.0000 0.0000 1719.9829 -7324.4506 297.1793 -9044.4335 -7320.6162 300.2778 -49.2004 41.7433 30116.1862 4.7985 4.9466
ENERGY: 1300000 5.9863 3.6940 6.8615 0.0000 -10551.5877 1447.2226 0.0000 0.0000 1713.7755 -7374.0479 296.1068 -9087.8234 -7369.8158 300.0941 180.3978 315.2145 29860.4136 2.4434 2.4112
ENERGY: 1500000 10.4393 6.8297 7.0593 0.0000 -10505.2385 1424.8693 0.0000 0.0000 1715.0961 -7340.9447 296.3350 -9056.0408 -7337.1071 300.2455 345.4590 479.3304 29780.9318 2.7621 2.6563
ENERGY: 1700000 6.4135 5.2670 4.8553 0.0000 -10337.1616 1291.0832 0.0000 0.0000 1732.6050 -7296.9376 299.3602 -9029.5426 -7291.2096 300.2177 -1024.7249 -951.4018 30269.9968 2.9021 2.7559
ENERGY: 1900000 6.5453 9.4240 2.9918 0.0000 -10562.3890 1449.0215 0.0000 0.0000 1676.7871 -7417.6193 289.7159 -9094.4064 -7413.9207 299.4476 487.6279 584.1296 29401.9020 2.4150 2.2049
TCL: Exiting due to exit command.
