Info: SIMULATION PARAMETERS:
Info: TIMESTEP               2
Info: NUMBER OF STEPS        0
Info: STEPS PER CYCLE        10
Info: PERIODIC CELL BASIS 1  34.207 0 0
Info: PERIODIC CELL BASIS 2  0 33.542 0
Info: PERIODIC CELL BASIS 3  0 0 37.451
Info: PERIODIC CELL CENTER   0 0 0
Info: WRAPPING WATERS AROUND PERIODIC BOUNDARIES ON OUTPUT.
Info: WRAPPING ALL CLUSTERS AROUND PERIODIC BOUNDARIES ON OUTPUT.
Info: FIRST LDB TIMESTEP     50
Info: LAST LDB TIMESTEP     -1
Info: HOM BACKGROUND SCALING 1
Info: PME BACKGROUND SCALING 1
Info: MIN ATOMS PER PATCH    40
Info: EMPTY PATCH LOAD       40 ATOMS
Info: INITIAL TEMPERATURE    300
Info: CENTER OF MASS MOVING INITIALLY? NO
Info: DIELECTRIC             1
Info: EXCLUDE                SCALED ONE-FOUR
Info: 1-4 ELECTROSTATICS SCALED BY 0.833333
Info: MODIFIED 1-4 VDW PARAMETERS WILL BE USED
Info: DCD FILENAME           mobley_1189457_equil.dcd
Info: DCD FREQUENCY          100000
Info: DCD FIRST STEP         100000
Info: DCD FILE WILL CONTAIN UNIT CELL DATA
Info: XST FILENAME           mobley_1189457_equil.xst
Info: XST FREQUENCY          100000
Info: NO VELOCITY DCD OUTPUT
Info: NO FORCE DCD OUTPUT
Info: OUTPUT FILENAME        mobley_1189457_equil
Info: BINARY OUTPUT FILES WILL BE USED
Info: RESTART FILENAME       mobley_1189457_equil.restart
Info: RESTART FREQUENCY      100000
Info: BINARY RESTART FILES WILL BE USED
Info: CUTOFF                 9
Info: PAIRLIST DISTANCE      11
Info: PAIRLIST SHRINK RATE   0.01
Info: PAIRLIST GROW RATE     0.01
Info: PAIRLIST TRIGGER       0.3
Info: PAIRLISTS PER CYCLE    2
Info: PAIRLISTS ENABLED
Info: MARGIN                 8
Info: HYDROGEN GROUP CUTOFF  2.5
Info: PATCH DIMENSION        21.5
Info: ENERGY OUTPUT STEPS    100000
Info: ENERGY EVALUATION STEPS    100000
Info: OUTPUT ENERGY PRECISION 4
Info: CROSSTERM ENERGY INCLUDED IN DIHEDRAL
Info: TIMING OUTPUT STEPS    1000000
Info: PRESSURE OUTPUT STEPS  100000
Info: LANGEVIN DYNAMICS ACTIVE
Info: LANGEVIN TEMPERATURE   30
Info: LANGEVIN USING BBK INTEGRATOR
Info: LANGEVIN DAMPING COEFFICIENT IS 1 INVERSE PS
Info: LANGEVIN DYNAMICS APPLIED TO HYDROGENS
Info: LANGEVIN PISTON PRESSURE CONTROL ACTIVE
Info:        TARGET PRESSURE IS 1.01325 BAR
Info:     OSCILLATION PERIOD IS 50 FS
Info:             DECAY TIME IS 25 FS
Info:     PISTON TEMPERATURE IS 300 K
Info:       PRESSURE CONTROL IS GROUP-BASED
Info:    INITIAL STRAIN RATE IS 0 0 0
Info:       CELL FLUCTUATION IS ISOTROPIC
Info: PARTICLE MESH EWALD (PME) ACTIVE
Info: PME TOLERANCE               1e-06
Info: PME EWALD COEFFICIENT       0.348832
Info: PME INTERPOLATION ORDER     4
Info: PME GRID DIMENSIONS         36 36 40
Info: PME MAXIMUM GRID SPACING    1
Info: FULL ELECTROSTATIC EVALUATION FREQUENCY      2
Info: USING VERLET I (r-RESPA) MTS SCHEME.
Info: C1 SPLITTING OF LONG RANGE ELECTROSTATICS
Info: PLACING ATOMS IN PATCHES BY HYDROGEN GROUPS
Info: RIGID BONDS TO HYDROGEN : ALL
Info:         ERROR TOLERANCE : 1e-08
Info:          MAX ITERATIONS : 100
Info: RIGID WATER USING SETTLE ALGORITHM
Info: RANDOM NUMBER SEED     1743229456
Info: USE HYDROGEN BONDS?    NO
Info: Using AMBER format force field!
Info: AMBER PARM FILE        mobley_1189457.prmtop
Info: COORDINATE PDB         mobley_1189457.pdb
Info: Exclusions will be read from PARM file!
Info: SCNB (VDW SCALING)     2
Info: USING ARITHMETIC MEAN TO COMBINE L-J SIGMA PARAMETERS
Info: BINARY COORDINATES     mobley_1189457_min.coor
Info: SUMMARY OF PARAMETERS:
Info: 7 BONDS
Info: 6 ANGLES
Info:   6 HARMONIC
Info:   0 COSINE-BASED
Info: 4 DIHEDRAL
Info: 0 IMPROPER
Info: 0 CROSSTERM
Info: 0 VDW
Info: 28 VDW_PAIRS
Info: 0 NBTHOLE_PAIRS
Info: STRUCTURE SUMMARY:
Info: 2950 ATOMS
Info: 2950 BONDS
Info: 25 ANGLES
Info: 35 DIHEDRALS
Info: 0 IMPROPERS
Info: 0 CROSSTERMS
Info: 3001 EXCLUSIONS
Info: 2942 RIGID BONDS
Info: 5908 DEGREES OF FREEDOM
Info: 986 HYDROGEN GROUPS
Info: 4 ATOMS IN LARGEST HYDROGEN GROUP
Info: 986 MIGRATION GROUPS
Info: 4 ATOMS IN LARGEST MIGRATION GROUP
Info: TOTAL MASS = 17743.8 amu
Info: TOTAL CHARGE = 0.000199981 e
Info: MASS DENSITY = 0.685709 g/cm^3
Info: ATOM DENSITY = 0.0686522 atoms/A^3
Info: ADDED 0 IMPLICIT EXCLUSIONS
Info: NONBONDED TABLE R-SQUARED SPACING: 0.0625
Info: NONBONDED TABLE SIZE: 705 POINTS
Info: REMOVING COM VELOCITY 0.0201388 0.0551939 -0.00388642
TCL: Running for 100000 steps
ETITLE: TS BOND ANGLE DIHED IMPRP ELECT VDW BOUNDARY MISC KINETIC TOTAL TEMP POTENTIAL TOTAL3 TEMPAVG PRESSURE GPRESSURE VOLUME PRESSAVG GPRESSAVG
ENERGY: 0 0.1203 0.0744 1.6133 0.0000 -13626.5618 2394.7728 0.0000 0.0000 1786.7918 -9443.1892 304.3854 -11229.9810 -9442.8403 304.3854 459.5786 492.9905 42970.1986 459.5786 492.9905
ENERGY: 100000 0.3442 1.0774 0.5856 0.0000 -14060.1406 2337.5488 0.0000 0.0000 181.4448 -11539.1398 30.9097 -11720.5846 -11538.5269 30.9026 -1069.8928 -1020.9333 28840.3459 4.1132 4.1660
TCL: Running 100000 steps at 60 kelvin.
TCL: Setting parameter langevinTemp to 60
TCL: Running for 100000 steps
ETITLE: TS BOND ANGLE DIHED IMPRP ELECT VDW BOUNDARY MISC KINETIC TOTAL TEMP POTENTIAL TOTAL3 TEMPAVG PRESSURE GPRESSURE VOLUME PRESSAVG GPRESSAVG
ENERGY: 100000 0.3442 1.0774 0.5856 0.0000 -14060.1406 2337.5488 0.0000 0.0000 181.3547 -11539.2299 30.8943 -11720.5846 -11538.8454 30.8943 -1078.4426 -1020.8246 28840.3459 -1078.4426 -1020.8246
ENERGY: 200000 0.5682 1.7616 1.6747 0.0000 -13970.3325 2330.8306 0.0000 0.0000 350.6376 -11284.8597 59.7322 -11635.4974 -11284.0559 59.9350 -767.0695 -723.1880 28824.2122 4.4373 4.4370
TCL: Running 100000 steps at 90 kelvin.
TCL: Setting parameter langevinTemp to 90
TCL: Running for 100000 steps
ETITLE: TS BOND ANGLE DIHED IMPRP ELECT VDW BOUNDARY MISC KINETIC TOTAL TEMP POTENTIAL TOTAL3 TEMPAVG PRESSURE GPRESSURE VOLUME PRESSAVG GPRESSAVG
ENERGY: 200000 0.5682 1.7616 1.6747 0.0000 -13970.3325 2330.8306 0.0000 0.0000 350.4669 -11285.0305 59.7031 -11635.4974 -11284.3767 59.7031 -787.5682 -722.6582 28824.2122 -787.5682 -722.6582
ENERGY: 300000 1.4041 1.7523 0.6040 0.0000 -13891.0958 2330.5197 0.0000 0.0000 517.1145 -11039.7013 88.0920 -11556.8158 -11038.0011 89.9722 -461.3536 -419.5479 28745.4105 4.6891 4.6885
TCL: Running 100000 steps at 120 kelvin.
TCL: Setting parameter langevinTemp to 120
TCL: Running for 100000 steps
ETITLE: TS BOND ANGLE DIHED IMPRP ELECT VDW BOUNDARY MISC KINETIC TOTAL TEMP POTENTIAL TOTAL3 TEMPAVG PRESSURE GPRESSURE VOLUME PRESSAVG GPRESSAVG
ENERGY: 300000 1.4041 1.7523 0.6040 0.0000 -13891.0958 2330.5197 0.0000 0.0000 516.8549 -11039.9609 88.0478 -11556.8158 -11038.8230 88.0478 -476.4304 -419.0480 28745.4105 -476.4304 -419.0480
ENERGY: 400000 0.8222 2.0142 2.8457 0.0000 -13849.9832 2408.9656 0.0000 0.0000 706.5562 -10728.7793 120.3640 -11435.3355 -10727.3122 120.0873 584.5041 656.8757 28831.0054 3.0583 2.9309
TCL: Running 100000 steps at 150 kelvin.
TCL: Setting parameter langevinTemp to 150
TCL: Running for 100000 steps
ETITLE: TS BOND ANGLE DIHED IMPRP ELECT VDW BOUNDARY MISC KINETIC TOTAL TEMP POTENTIAL TOTAL3 TEMPAVG PRESSURE GPRESSURE VOLUME PRESSAVG GPRESSAVG
ENERGY: 400000 0.8222 2.0142 2.8457 0.0000 -13849.9832 2408.9656 0.0000 0.0000 706.2200 -10729.1156 120.3067 -11435.3355 -10727.7605 120.3067 591.6074 657.0324 28831.0054 591.6074 657.0324
ENERGY: 500000 0.7508 2.6263 2.0665 0.0000 -13514.5074 2219.5602 0.0000 0.0000 896.6543 -10392.8495 152.7478 -11289.5037 -10390.1748 149.9102 -359.6365 -276.2652 28758.2819 2.7522 2.7742
TCL: Running 100000 steps at 180 kelvin.
TCL: Setting parameter langevinTemp to 180
TCL: Running for 100000 steps
ETITLE: TS BOND ANGLE DIHED IMPRP ELECT VDW BOUNDARY MISC KINETIC TOTAL TEMP POTENTIAL TOTAL3 TEMPAVG PRESSURE GPRESSURE VOLUME PRESSAVG GPRESSAVG
ENERGY: 500000 0.7508 2.6263 2.0665 0.0000 -13514.5074 2219.5602 0.0000 0.0000 896.2135 -10393.2902 152.6727 -11289.5037 -10391.6777 152.6727 -345.7378 -276.7609 28758.2819 -345.7378 -276.7609
ENERGY: 600000 1.7512 2.8153 1.8007 0.0000 -13192.2700 2180.0038 0.0000 0.0000 1078.2167 -9927.6823 183.6775 -11005.8990 -9924.7819 180.4333 160.7051 216.9252 29163.6130 3.0755 3.1124
TCL: Running 100000 steps at 210 kelvin.
TCL: Setting parameter langevinTemp to 210
TCL: Running for 100000 steps
ETITLE: TS BOND ANGLE DIHED IMPRP ELECT VDW BOUNDARY MISC KINETIC TOTAL TEMP POTENTIAL TOTAL3 TEMPAVG PRESSURE GPRESSURE VOLUME PRESSAVG GPRESSAVG
ENERGY: 600000 1.7512 2.8153 1.8007 0.0000 -13192.2700 2180.0038 0.0000 0.0000 1077.6795 -9928.2196 183.5860 -11005.8990 -9925.9445 183.5860 157.6941 217.6267 29163.6130 157.6941 217.6267
ENERGY: 700000 2.6134 3.7850 3.4687 0.0000 -12570.8869 2005.0895 0.0000 0.0000 1239.1965 -9316.7337 211.1009 -10555.9303 -9314.4362 210.0371 775.2022 875.6022 28421.5639 2.2183 2.2056
TCL: Running 100000 steps at 240 kelvin.
TCL: Setting parameter langevinTemp to 240
TCL: Running for 100000 steps
ETITLE: TS BOND ANGLE DIHED IMPRP ELECT VDW BOUNDARY MISC KINETIC TOTAL TEMP POTENTIAL TOTAL3 TEMPAVG PRESSURE GPRESSURE VOLUME PRESSAVG GPRESSAVG
ENERGY: 700000 2.6134 3.7850 3.4687 0.0000 -12570.8869 2005.0895 0.0000 0.0000 1238.6005 -9317.3298 210.9994 -10555.9303 -9315.2724 210.9994 807.0856 874.6139 28421.5639 807.0856 874.6139
ENERGY: 800000 4.4610 5.1294 3.4636 0.0000 -11719.1050 1649.6666 0.0000 0.0000 1412.6721 -8643.7123 240.6530 -10056.3844 -8640.6795 240.0549 -705.9560 -619.5563 29120.8951 3.2553 3.2928
TCL: Running 100000 steps at 270 kelvin.
TCL: Setting parameter langevinTemp to 270
TCL: Running for 100000 steps
ETITLE: TS BOND ANGLE DIHED IMPRP ELECT VDW BOUNDARY MISC KINETIC TOTAL TEMP POTENTIAL TOTAL3 TEMPAVG PRESSURE GPRESSURE VOLUME PRESSAVG GPRESSAVG
ENERGY: 800000 4.4610 5.1294 3.4636 0.0000 -11719.1050 1649.6666 0.0000 0.0000 1411.9699 -8644.4145 240.5334 -10056.3844 -8642.3110 240.5334 -702.1637 -619.3252 29120.8951 -702.1637 -619.3252
ENERGY: 900000 1.6680 4.3096 3.5344 0.0000 -11206.6144 1582.1993 0.0000 0.0000 1614.9725 -7999.9306 275.1155 -9614.9031 -7997.0851 269.7943 349.7978 453.6677 29399.6190 4.0579 4.0969
TCL: Running 1000000 steps at 300 kelvin.
TCL: Setting parameter langevinTemp to 300
TCL: Running for 1000000 steps
ETITLE: TS BOND ANGLE DIHED IMPRP ELECT VDW BOUNDARY MISC KINETIC TOTAL TEMP POTENTIAL TOTAL3 TEMPAVG PRESSURE GPRESSURE VOLUME PRESSAVG GPRESSAVG
ENERGY: 900000 1.6680 4.3096 3.5344 0.0000 -11206.6144 1582.1993 0.0000 0.0000 1614.1568 -8000.7463 274.9765 -9614.9031 -7998.8316 274.9765 365.4244 452.9737 29399.6190 365.4244 452.9737
ENERGY: 1100000 1.8889 4.6234 3.9300 0.0000 -10766.8686 1506.5499 0.0000 0.0000 1753.8411 -7496.0352 298.7722 -9249.8763 -7494.3820 299.7427 414.1933 492.0643 30415.3073 4.1183 4.3928
ENERGY: 1300000 0.9498 4.7618 3.6453 0.0000 -10683.7992 1454.7173 0.0000 0.0000 1771.9485 -7447.7764 301.8568 -9219.7249 -7445.0851 300.0346 267.7857 376.9510 30478.0753 2.5599 2.8773
ENERGY: 1500000 3.5587 6.3221 5.6860 0.0000 -10689.4025 1436.4347 0.0000 0.0000 1791.1156 -7446.2854 305.1220 -9237.4010 -7441.8940 300.6722 -230.3096 -140.9752 30383.2135 3.5169 3.6875
ENERGY: 1700000 3.3805 3.3252 5.0153 0.0000 -10510.4038 1328.7708 0.0000 0.0000 1789.8832 -7380.0288 304.9120 -9169.9120 -7376.4571 301.1519 -672.6740 -667.2670 30515.4049 2.1215 1.9317
ENERGY: 1900000 1.2627 3.4900 3.1272 0.0000 -10792.6134 1502.0616 0.0000 0.0000 1740.1710 -7542.5009 296.4434 -9282.6719 -7539.2784 299.7919 563.1483 663.6076 30160.7236 3.8218 3.7045
TCL: Exiting due to exit command.
