Info: SIMULATION PARAMETERS:
Info: TIMESTEP               2
Info: NUMBER OF STEPS        0
Info: STEPS PER CYCLE        10
Info: PERIODIC CELL BASIS 1  36.281 0 0
Info: PERIODIC CELL BASIS 2  0 35.847 0
Info: PERIODIC CELL BASIS 3  0 0 34.68
Info: PERIODIC CELL CENTER   0 0 0
Info: WRAPPING WATERS AROUND PERIODIC BOUNDARIES ON OUTPUT.
Info: WRAPPING ALL CLUSTERS AROUND PERIODIC BOUNDARIES ON OUTPUT.
Info: FIRST LDB TIMESTEP     50
Info: LAST LDB TIMESTEP     -1
Info: HOM BACKGROUND SCALING 1
Info: PME BACKGROUND SCALING 1
Info: MIN ATOMS PER PATCH    40
Info: EMPTY PATCH LOAD       40 ATOMS
Info: INITIAL TEMPERATURE    300
Info: CENTER OF MASS MOVING INITIALLY? NO
Info: DIELECTRIC             1
Info: EXCLUDE                SCALED ONE-FOUR
Info: 1-4 ELECTROSTATICS SCALED BY 0.833333
Info: MODIFIED 1-4 VDW PARAMETERS WILL BE USED
Info: DCD FILENAME           mobley_5690766_equil.dcd
Info: DCD FREQUENCY          100000
Info: DCD FIRST STEP         100000
Info: DCD FILE WILL CONTAIN UNIT CELL DATA
Info: XST FILENAME           mobley_5690766_equil.xst
Info: XST FREQUENCY          100000
Info: NO VELOCITY DCD OUTPUT
Info: NO FORCE DCD OUTPUT
Info: OUTPUT FILENAME        mobley_5690766_equil
Info: BINARY OUTPUT FILES WILL BE USED
Info: RESTART FILENAME       mobley_5690766_equil.restart
Info: RESTART FREQUENCY      100000
Info: BINARY RESTART FILES WILL BE USED
Info: CUTOFF                 9
Info: PAIRLIST DISTANCE      11
Info: PAIRLIST SHRINK RATE   0.01
Info: PAIRLIST GROW RATE     0.01
Info: PAIRLIST TRIGGER       0.3
Info: PAIRLISTS PER CYCLE    2
Info: PAIRLISTS ENABLED
Info: MARGIN                 8
Info: HYDROGEN GROUP CUTOFF  2.5
Info: PATCH DIMENSION        21.5
Info: ENERGY OUTPUT STEPS    100000
Info: ENERGY EVALUATION STEPS    100000
Info: OUTPUT ENERGY PRECISION 4
Info: CROSSTERM ENERGY INCLUDED IN DIHEDRAL
Info: TIMING OUTPUT STEPS    1000000
Info: PRESSURE OUTPUT STEPS  100000
Info: LANGEVIN DYNAMICS ACTIVE
Info: LANGEVIN TEMPERATURE   30
Info: LANGEVIN USING BBK INTEGRATOR
Info: LANGEVIN DAMPING COEFFICIENT IS 1 INVERSE PS
Info: LANGEVIN DYNAMICS APPLIED TO HYDROGENS
Info: LANGEVIN PISTON PRESSURE CONTROL ACTIVE
Info:        TARGET PRESSURE IS 1.01325 BAR
Info:     OSCILLATION PERIOD IS 50 FS
Info:             DECAY TIME IS 25 FS
Info:     PISTON TEMPERATURE IS 300 K
Info:       PRESSURE CONTROL IS GROUP-BASED
Info:    INITIAL STRAIN RATE IS 0 0 0
Info:       CELL FLUCTUATION IS ISOTROPIC
Info: PARTICLE MESH EWALD (PME) ACTIVE
Info: PME TOLERANCE               1e-06
Info: PME EWALD COEFFICIENT       0.348832
Info: PME INTERPOLATION ORDER     4
Info: PME GRID DIMENSIONS         40 36 36
Info: PME MAXIMUM GRID SPACING    1
Info: FULL ELECTROSTATIC EVALUATION FREQUENCY      2
Info: USING VERLET I (r-RESPA) MTS SCHEME.
Info: C1 SPLITTING OF LONG RANGE ELECTROSTATICS
Info: PLACING ATOMS IN PATCHES BY HYDROGEN GROUPS
Info: RIGID BONDS TO HYDROGEN : ALL
Info:         ERROR TOLERANCE : 1e-08
Info:          MAX ITERATIONS : 100
Info: RIGID WATER USING SETTLE ALGORITHM
Info: RANDOM NUMBER SEED     1743247763
Info: USE HYDROGEN BONDS?    NO
Info: Using AMBER format force field!
Info: AMBER PARM FILE        mobley_5690766.prmtop
Info: COORDINATE PDB         mobley_5690766.pdb
Info: Exclusions will be read from PARM file!
Info: SCNB (VDW SCALING)     2
Info: USING ARITHMETIC MEAN TO COMBINE L-J SIGMA PARAMETERS
Info: BINARY COORDINATES     mobley_5690766_min.coor
Info: SUMMARY OF PARAMETERS:
Info: 7 BONDS
Info: 8 ANGLES
Info: 7 DIHEDRAL
Info: 0 IMPROPER
Info: 0 CROSSTERM
Info: 0 VDW
Info: 21 VDW_PAIRS
Info: 0 NBTHOLE_PAIRS
Info: STRUCTURE SUMMARY:
Info: 2959 ATOMS
Info: 2958 BONDS
Info: 24 ANGLES
Info: 41 DIHEDRALS
Info: 0 IMPROPERS
Info: 0 CROSSTERMS
Info: 3011 EXCLUSIONS
Info: 2953 RIGID BONDS
Info: 5924 DEGREES OF FREEDOM
Info: 987 HYDROGEN GROUPS
Info: 3 ATOMS IN LARGEST HYDROGEN GROUP
Info: 987 MIGRATION GROUPS
Info: 3 ATOMS IN LARGEST MIGRATION GROUP
Info: TOTAL MASS = 17755.8 amu
Info: TOTAL CHARGE = -2.23517e-08 e
Info: MASS DENSITY = 0.653716 g/cm^3
Info: ATOM DENSITY = 0.0656045 atoms/A^3
Info: ADDED 0 IMPLICIT EXCLUSIONS
Info: NONBONDED TABLE R-SQUARED SPACING: 0.0625
Info: NONBONDED TABLE SIZE: 705 POINTS
Info: REMOVING COM VELOCITY -0.180929 -0.0372219 0.13642
TCL: Running for 100000 steps
ETITLE: TS BOND ANGLE DIHED IMPRP ELECT VDW BOUNDARY MISC KINETIC TOTAL TEMP POTENTIAL TOTAL3 TEMPAVG PRESSURE GPRESSURE VOLUME PRESSAVG GPRESSAVG
ENERGY: 0 0.0355 0.2274 5.7534 0.0000 -13675.7955 2413.9899 0.0000 0.0000 1739.7492 -9516.0401 295.5711 -11255.7893 -9515.6983 295.5711 496.1612 531.0131 45103.5944 496.1612 531.0131
ENERGY: 100000 0.3446 0.8004 5.9697 0.0000 -14143.5780 2421.5511 0.0000 0.0000 180.9175 -11533.9947 30.7366 -11714.9122 -11533.5815 30.9141 -568.1667 -538.3368 29798.4670 3.8351 3.8994
TCL: Running 100000 steps at 60 kelvin.
TCL: Setting parameter langevinTemp to 60
TCL: Running for 100000 steps
ETITLE: TS BOND ANGLE DIHED IMPRP ELECT VDW BOUNDARY MISC KINETIC TOTAL TEMP POTENTIAL TOTAL3 TEMPAVG PRESSURE GPRESSURE VOLUME PRESSAVG GPRESSAVG
ENERGY: 100000 0.3446 0.8004 5.9697 0.0000 -14143.5780 2421.5511 0.0000 0.0000 180.8304 -11534.0817 30.7218 -11714.9122 -11533.6702 30.7218 -581.7232 -538.2737 29798.4670 -581.7232 -538.2737
ENERGY: 200000 0.2100 1.2245 6.1368 0.0000 -14010.9066 2345.2358 0.0000 0.0000 367.9119 -11290.1877 62.5056 -11658.0996 -11288.9966 60.0596 -850.9710 -769.0600 29864.3239 2.7838 2.6785
TCL: Running 100000 steps at 90 kelvin.
TCL: Setting parameter langevinTemp to 90
TCL: Running for 100000 steps
ETITLE: TS BOND ANGLE DIHED IMPRP ELECT VDW BOUNDARY MISC KINETIC TOTAL TEMP POTENTIAL TOTAL3 TEMPAVG PRESSURE GPRESSURE VOLUME PRESSAVG GPRESSAVG
ENERGY: 200000 0.2100 1.2245 6.1368 0.0000 -14010.9066 2345.2358 0.0000 0.0000 367.7368 -11290.3628 62.4759 -11658.0996 -11289.4663 62.4759 -820.7292 -768.7587 29864.3239 -820.7292 -768.7587
ENERGY: 300000 0.9203 1.6798 7.1115 0.0000 -13913.5372 2353.7613 0.0000 0.0000 550.2069 -10999.8573 93.4763 -11550.0643 -10998.5198 90.0328 -355.5010 -302.0373 29426.0702 3.4580 3.4208
TCL: Running 100000 steps at 120 kelvin.
TCL: Setting parameter langevinTemp to 120
TCL: Running for 100000 steps
ETITLE: TS BOND ANGLE DIHED IMPRP ELECT VDW BOUNDARY MISC KINETIC TOTAL TEMP POTENTIAL TOTAL3 TEMPAVG PRESSURE GPRESSURE VOLUME PRESSAVG GPRESSAVG
ENERGY: 300000 0.9203 1.6798 7.1115 0.0000 -13913.5372 2353.7613 0.0000 0.0000 549.9470 -11000.1172 93.4321 -11550.0643 -10998.9871 93.4321 -345.7456 -301.6980 29426.0702 -345.7456 -301.6980
ENERGY: 400000 0.8205 2.4745 6.8079 0.0000 -13783.0037 2356.7824 0.0000 0.0000 691.3602 -10724.7582 117.4572 -11416.1184 -10723.7279 119.9930 267.9299 361.9459 28796.7363 4.5095 4.5864
TCL: Running 100000 steps at 150 kelvin.
TCL: Setting parameter langevinTemp to 150
TCL: Running for 100000 steps
ETITLE: TS BOND ANGLE DIHED IMPRP ELECT VDW BOUNDARY MISC KINETIC TOTAL TEMP POTENTIAL TOTAL3 TEMPAVG PRESSURE GPRESSURE VOLUME PRESSAVG GPRESSAVG
ENERGY: 400000 0.8205 2.4745 6.8079 0.0000 -13783.0037 2356.7824 0.0000 0.0000 691.0083 -10725.1101 117.3974 -11416.1184 -10723.8562 117.3974 295.6077 360.7231 28796.7363 295.6077 360.7231
ENERGY: 500000 0.1362 1.5410 8.4950 0.0000 -13471.7825 2167.1903 0.0000 0.0000 874.4431 -10419.9769 148.5617 -11294.4200 -10417.9370 149.8967 -876.0079 -758.8984 29015.7233 2.9987 3.1430
TCL: Running 100000 steps at 180 kelvin.
TCL: Setting parameter langevinTemp to 180
TCL: Running for 100000 steps
ETITLE: TS BOND ANGLE DIHED IMPRP ELECT VDW BOUNDARY MISC KINETIC TOTAL TEMP POTENTIAL TOTAL3 TEMPAVG PRESSURE GPRESSURE VOLUME PRESSAVG GPRESSAVG
ENERGY: 500000 0.1362 1.5410 8.4950 0.0000 -13471.7825 2167.1903 0.0000 0.0000 874.0171 -10420.4029 148.4893 -11294.4200 -10418.5900 148.4893 -822.7875 -758.7106 29015.7233 -822.7875 -758.7106
ENERGY: 600000 0.1464 4.3696 5.9374 0.0000 -13216.8877 2174.1810 0.0000 0.0000 1053.9724 -9978.2809 179.0625 -11032.2533 -9975.8199 180.0302 256.4528 325.2404 28957.5922 2.3552 2.2982
TCL: Running 100000 steps at 210 kelvin.
TCL: Setting parameter langevinTemp to 210
TCL: Running for 100000 steps
ETITLE: TS BOND ANGLE DIHED IMPRP ELECT VDW BOUNDARY MISC KINETIC TOTAL TEMP POTENTIAL TOTAL3 TEMPAVG PRESSURE GPRESSURE VOLUME PRESSAVG GPRESSAVG
ENERGY: 600000 0.1464 4.3696 5.9374 0.0000 -13216.8877 2174.1810 0.0000 0.0000 1053.4536 -9978.7997 178.9743 -11032.2533 -9976.6091 178.9743 264.8194 324.0014 28957.5922 264.8194 324.0014
ENERGY: 700000 2.9933 4.2756 5.0284 0.0000 -12416.7725 1867.6944 0.0000 0.0000 1236.5904 -9300.1905 210.0880 -10536.7808 -9297.3797 209.9043 -549.3352 -448.7641 28942.8035 3.3315 3.2161
TCL: Running 100000 steps at 240 kelvin.
TCL: Setting parameter langevinTemp to 240
TCL: Running for 100000 steps
ETITLE: TS BOND ANGLE DIHED IMPRP ELECT VDW BOUNDARY MISC KINETIC TOTAL TEMP POTENTIAL TOTAL3 TEMPAVG PRESSURE GPRESSURE VOLUME PRESSAVG GPRESSAVG
ENERGY: 700000 2.9933 4.2756 5.0284 0.0000 -12416.7725 1867.6944 0.0000 0.0000 1235.9723 -9300.8085 209.9830 -10536.7808 -9298.7176 209.9830 -539.4863 -447.4960 28942.8035 -539.4863 -447.4960
ENERGY: 800000 0.4756 10.0314 7.1872 0.0000 -11828.5779 1708.9293 0.0000 0.0000 1422.8753 -8679.0792 241.7365 -10101.9545 -8678.7488 239.5550 -352.2606 -305.5343 29247.0667 3.2411 3.1266
TCL: Running 100000 steps at 270 kelvin.
TCL: Setting parameter langevinTemp to 270
TCL: Running for 100000 steps
ETITLE: TS BOND ANGLE DIHED IMPRP ELECT VDW BOUNDARY MISC KINETIC TOTAL TEMP POTENTIAL TOTAL3 TEMPAVG PRESSURE GPRESSURE VOLUME PRESSAVG GPRESSAVG
ENERGY: 800000 0.4756 10.0314 7.1872 0.0000 -11828.5779 1708.9293 0.0000 0.0000 1422.1822 -8679.7723 241.6187 -10101.9545 -8677.2756 241.6187 -377.7328 -308.6591 29247.0667 -377.7328 -308.6591
ENERGY: 900000 1.3364 6.7314 7.0845 0.0000 -11285.0087 1567.3471 0.0000 0.0000 1602.5858 -8099.9235 272.2680 -9702.5094 -8097.4092 269.8835 -365.4959 -263.2508 29955.4218 2.8120 2.9275
TCL: Running 1000000 steps at 300 kelvin.
TCL: Setting parameter langevinTemp to 300
TCL: Running for 1000000 steps
ETITLE: TS BOND ANGLE DIHED IMPRP ELECT VDW BOUNDARY MISC KINETIC TOTAL TEMP POTENTIAL TOTAL3 TEMPAVG PRESSURE GPRESSURE VOLUME PRESSAVG GPRESSAVG
ENERGY: 900000 1.3364 6.7314 7.0845 0.0000 -11285.0087 1567.3471 0.0000 0.0000 1601.7510 -8100.7584 272.1262 -9702.5094 -8098.3089 272.1262 -346.0617 -265.3085 29955.4218 -346.0617 -265.3085
ENERGY: 1100000 0.9076 4.1744 9.2127 0.0000 -10670.0549 1373.1596 0.0000 0.0000 1725.7070 -7556.8937 293.1854 -9282.6007 -7552.1302 300.2687 -583.9607 -477.6150 30461.9967 4.1413 4.4646
ENERGY: 1300000 2.7260 6.9227 9.6068 0.0000 -10440.6867 1304.6433 0.0000 0.0000 1813.8169 -7302.9709 308.1547 -9116.7879 -7298.2619 300.6432 -276.1009 -144.5819 29896.8505 4.1008 4.2364
ENERGY: 1500000 1.4412 2.5779 8.3638 0.0000 -10777.4159 1439.9584 0.0000 0.0000 1799.1661 -7525.9085 305.6656 -9325.0746 -7519.9382 299.7601 15.6888 110.3189 30343.0280 4.7906 4.7669
ENERGY: 1700000 1.6333 3.7369 7.2919 0.0000 -10685.2884 1393.4179 0.0000 0.0000 1772.1877 -7507.0207 301.0822 -9279.2084 -7502.5897 299.7727 -292.6406 -216.1104 30284.2768 2.0318 2.1606
ENERGY: 1900000 1.8016 5.6714 11.1751 0.0000 -10626.4003 1399.9259 0.0000 0.0000 1815.3918 -7392.4345 308.4223 -9207.8263 -7389.6631 299.7034 -81.0703 -8.3526 30559.8388 2.8706 2.8991
TCL: Exiting due to exit command.
