Info: SIMULATION PARAMETERS:
Info: TIMESTEP               2
Info: NUMBER OF STEPS        0
Info: STEPS PER CYCLE        10
Info: PERIODIC CELL BASIS 1  35.89 0 0
Info: PERIODIC CELL BASIS 2  0 35.779 0
Info: PERIODIC CELL BASIS 3  0 0 34.954
Info: PERIODIC CELL CENTER   0 0 0
Info: WRAPPING WATERS AROUND PERIODIC BOUNDARIES ON OUTPUT.
Info: WRAPPING ALL CLUSTERS AROUND PERIODIC BOUNDARIES ON OUTPUT.
Info: FIRST LDB TIMESTEP     50
Info: LAST LDB TIMESTEP     -1
Info: HOM BACKGROUND SCALING 1
Info: PME BACKGROUND SCALING 1
Info: MIN ATOMS PER PATCH    40
Info: EMPTY PATCH LOAD       40 ATOMS
Info: INITIAL TEMPERATURE    300
Info: CENTER OF MASS MOVING INITIALLY? NO
Info: DIELECTRIC             1
Info: EXCLUDE                SCALED ONE-FOUR
Info: 1-4 ELECTROSTATICS SCALED BY 0.833333
Info: MODIFIED 1-4 VDW PARAMETERS WILL BE USED
Info: DCD FILENAME           mobley_9671033_equil.dcd
Info: DCD FREQUENCY          100000
Info: DCD FIRST STEP         100000
Info: DCD FILE WILL CONTAIN UNIT CELL DATA
Info: XST FILENAME           mobley_9671033_equil.xst
Info: XST FREQUENCY          100000
Info: NO VELOCITY DCD OUTPUT
Info: NO FORCE DCD OUTPUT
Info: OUTPUT FILENAME        mobley_9671033_equil
Info: BINARY OUTPUT FILES WILL BE USED
Info: RESTART FILENAME       mobley_9671033_equil.restart
Info: RESTART FREQUENCY      100000
Info: BINARY RESTART FILES WILL BE USED
Info: CUTOFF                 9
Info: PAIRLIST DISTANCE      11
Info: PAIRLIST SHRINK RATE   0.01
Info: PAIRLIST GROW RATE     0.01
Info: PAIRLIST TRIGGER       0.3
Info: PAIRLISTS PER CYCLE    2
Info: PAIRLISTS ENABLED
Info: MARGIN                 8
Info: HYDROGEN GROUP CUTOFF  2.5
Info: PATCH DIMENSION        21.5
Info: ENERGY OUTPUT STEPS    100000
Info: ENERGY EVALUATION STEPS    100000
Info: OUTPUT ENERGY PRECISION 4
Info: CROSSTERM ENERGY INCLUDED IN DIHEDRAL
Info: TIMING OUTPUT STEPS    1000000
Info: PRESSURE OUTPUT STEPS  100000
Info: LANGEVIN DYNAMICS ACTIVE
Info: LANGEVIN TEMPERATURE   30
Info: LANGEVIN USING BBK INTEGRATOR
Info: LANGEVIN DAMPING COEFFICIENT IS 1 INVERSE PS
Info: LANGEVIN DYNAMICS APPLIED TO HYDROGENS
Info: LANGEVIN PISTON PRESSURE CONTROL ACTIVE
Info:        TARGET PRESSURE IS 1.01325 BAR
Info:     OSCILLATION PERIOD IS 50 FS
Info:             DECAY TIME IS 25 FS
Info:     PISTON TEMPERATURE IS 300 K
Info:       PRESSURE CONTROL IS GROUP-BASED
Info:    INITIAL STRAIN RATE IS 0 0 0
Info:       CELL FLUCTUATION IS ISOTROPIC
Info: PARTICLE MESH EWALD (PME) ACTIVE
Info: PME TOLERANCE               1e-06
Info: PME EWALD COEFFICIENT       0.348832
Info: PME INTERPOLATION ORDER     4
Info: PME GRID DIMENSIONS         36 36 36
Info: PME MAXIMUM GRID SPACING    1
Info: FULL ELECTROSTATIC EVALUATION FREQUENCY      2
Info: USING VERLET I (r-RESPA) MTS SCHEME.
Info: C1 SPLITTING OF LONG RANGE ELECTROSTATICS
Info: PLACING ATOMS IN PATCHES BY HYDROGEN GROUPS
Info: RIGID BONDS TO HYDROGEN : ALL
Info:         ERROR TOLERANCE : 1e-08
Info:          MAX ITERATIONS : 100
Info: RIGID WATER USING SETTLE ALGORITHM
Info: RANDOM NUMBER SEED     1743238992
Info: USE HYDROGEN BONDS?    NO
Info: Using AMBER format force field!
Info: AMBER PARM FILE        mobley_9671033.prmtop
Info: COORDINATE PDB         mobley_9671033.pdb
Info: Exclusions will be read from PARM file!
Info: SCNB (VDW SCALING)     2
Info: USING ARITHMETIC MEAN TO COMBINE L-J SIGMA PARAMETERS
Info: BINARY COORDINATES     mobley_9671033_min.coor
Info: SUMMARY OF PARAMETERS:
Info: 7 BONDS
Info: 9 ANGLES
Info:   9 HARMONIC
Info:   0 COSINE-BASED
Info: 4 DIHEDRAL
Info: 0 IMPROPER
Info: 0 CROSSTERM
Info: 0 VDW
Info: 28 VDW_PAIRS
Info: 0 NBTHOLE_PAIRS
Info: STRUCTURE SUMMARY:
Info: 2935 ATOMS
Info: 2934 BONDS
Info: 21 ANGLES
Info: 24 DIHEDRALS
Info: 0 IMPROPERS
Info: 0 CROSSTERMS
Info: 2979 EXCLUSIONS
Info: 2929 RIGID BONDS
Info: 5876 DEGREES OF FREEDOM
Info: 980 HYDROGEN GROUPS
Info: 4 ATOMS IN LARGEST HYDROGEN GROUP
Info: 980 MIGRATION GROUPS
Info: 4 ATOMS IN LARGEST MIGRATION GROUP
Info: TOTAL MASS = 17636.7 amu
Info: TOTAL CHARGE = -4.47035e-08 e
Info: MASS DENSITY = 0.652496 g/cm^3
Info: ATOM DENSITY = 0.0653897 atoms/A^3
Info: ADDED 0 IMPLICIT EXCLUSIONS
Info: NONBONDED TABLE R-SQUARED SPACING: 0.0625
Info: NONBONDED TABLE SIZE: 705 POINTS
Info: REMOVING COM VELOCITY 0.101379 -0.179297 0.176338
TCL: Running for 100000 steps
ETITLE: TS BOND ANGLE DIHED IMPRP ELECT VDW BOUNDARY MISC KINETIC TOTAL TEMP POTENTIAL TOTAL3 TEMPAVG PRESSURE GPRESSURE VOLUME PRESSAVG GPRESSAVG
ENERGY: 0 0.0341 0.3241 0.0141 0.0000 -13604.3699 2413.0873 0.0000 0.0000 1699.7759 -9491.1344 291.1389 -11190.9103 -9490.8173 291.1389 513.3293 538.4818 44884.7219 513.3293 538.4818
ENERGY: 100000 0.6583 0.8531 0.0060 0.0000 -14112.6169 2442.7745 0.0000 0.0000 174.2772 -11494.0478 29.8503 -11668.3250 -11493.4904 30.8710 -401.8250 -330.9775 29298.4587 4.0626 4.1078
TCL: Running 100000 steps at 60 kelvin.
TCL: Setting parameter langevinTemp to 60
TCL: Running for 100000 steps
ETITLE: TS BOND ANGLE DIHED IMPRP ELECT VDW BOUNDARY MISC KINETIC TOTAL TEMP POTENTIAL TOTAL3 TEMPAVG PRESSURE GPRESSURE VOLUME PRESSAVG GPRESSAVG
ENERGY: 100000 0.6583 0.8531 0.0060 0.0000 -14112.6169 2442.7745 0.0000 0.0000 174.1872 -11494.1378 29.8349 -11668.3250 -11493.7606 29.8349 -403.1137 -330.7744 29298.4587 -403.1137 -330.7744
ENERGY: 200000 0.3961 1.4358 0.1490 0.0000 -14119.5861 2488.0161 0.0000 0.0000 365.9008 -11263.6883 62.6718 -11629.5891 -11262.3104 59.8371 434.8592 528.7415 28398.5270 2.4618 2.3762
TCL: Running 100000 steps at 90 kelvin.
TCL: Setting parameter langevinTemp to 90
TCL: Running for 100000 steps
ETITLE: TS BOND ANGLE DIHED IMPRP ELECT VDW BOUNDARY MISC KINETIC TOTAL TEMP POTENTIAL TOTAL3 TEMPAVG PRESSURE GPRESSURE VOLUME PRESSAVG GPRESSAVG
ENERGY: 200000 0.3961 1.4358 0.1490 0.0000 -14119.5861 2488.0161 0.0000 0.0000 365.7299 -11263.8593 62.6425 -11629.5891 -11262.9825 62.6425 461.8690 529.2411 28398.5270 461.8690 529.2411
ENERGY: 300000 0.4313 1.7073 0.0469 0.0000 -13952.0239 2448.0070 0.0000 0.0000 509.3565 -10992.4749 87.2430 -11501.8314 -10992.0021 90.1522 658.8826 718.4426 28329.7438 4.3103 4.3777
TCL: Running 100000 steps at 120 kelvin.
TCL: Setting parameter langevinTemp to 120
TCL: Running for 100000 steps
ETITLE: TS BOND ANGLE DIHED IMPRP ELECT VDW BOUNDARY MISC KINETIC TOTAL TEMP POTENTIAL TOTAL3 TEMPAVG PRESSURE GPRESSURE VOLUME PRESSAVG GPRESSAVG
ENERGY: 300000 0.4313 1.7073 0.0469 0.0000 -13952.0239 2448.0070 0.0000 0.0000 509.0971 -10992.7343 87.1985 -11501.8314 -10991.8248 87.1985 659.2173 718.0779 28329.7438 659.2173 718.0779
ENERGY: 400000 0.8750 1.6884 0.2644 0.0000 -13601.9749 2234.1991 0.0000 0.0000 681.5788 -10683.3692 116.7413 -11364.9480 -10682.0149 120.0968 -677.1009 -637.0013 28669.6129 3.7168 3.6652
TCL: Running 100000 steps at 150 kelvin.
TCL: Setting parameter langevinTemp to 150
TCL: Running for 100000 steps
ETITLE: TS BOND ANGLE DIHED IMPRP ELECT VDW BOUNDARY MISC KINETIC TOTAL TEMP POTENTIAL TOTAL3 TEMPAVG PRESSURE GPRESSURE VOLUME PRESSAVG GPRESSAVG
ENERGY: 400000 0.8750 1.6884 0.2644 0.0000 -13601.9749 2234.1991 0.0000 0.0000 681.2382 -10683.7098 116.6830 -11364.9480 -10682.7317 116.6830 -705.4219 -637.8531 28669.6129 -705.4219 -637.8531
ENERGY: 500000 0.4579 2.6875 0.5683 0.0000 -13392.2616 2177.6336 0.0000 0.0000 865.7253 -10345.1890 148.2821 -11210.9143 -10343.4501 150.1479 -695.8201 -639.2904 28946.1065 2.5520 2.6015
TCL: Running 100000 steps at 180 kelvin.
TCL: Setting parameter langevinTemp to 180
TCL: Running for 100000 steps
ETITLE: TS BOND ANGLE DIHED IMPRP ELECT VDW BOUNDARY MISC KINETIC TOTAL TEMP POTENTIAL TOTAL3 TEMPAVG PRESSURE GPRESSURE VOLUME PRESSAVG GPRESSAVG
ENERGY: 500000 0.4579 2.6875 0.5683 0.0000 -13392.2616 2177.6336 0.0000 0.0000 865.2888 -10345.6256 148.2073 -11210.9143 -10343.5144 148.2073 -700.6488 -639.7736 28946.1065 -700.6488 -639.7736
ENERGY: 600000 0.8693 4.7579 0.6459 0.0000 -13045.2825 2122.5884 0.0000 0.0000 1031.2588 -9885.1622 176.6348 -10916.4210 -9883.2594 179.9025 95.5955 164.2719 28544.1771 3.6289 3.5534
TCL: Running 100000 steps at 210 kelvin.
TCL: Setting parameter langevinTemp to 210
TCL: Running for 100000 steps
ETITLE: TS BOND ANGLE DIHED IMPRP ELECT VDW BOUNDARY MISC KINETIC TOTAL TEMP POTENTIAL TOTAL3 TEMPAVG PRESSURE GPRESSURE VOLUME PRESSAVG GPRESSAVG
ENERGY: 600000 0.8693 4.7579 0.6459 0.0000 -13045.2825 2122.5884 0.0000 0.0000 1030.7455 -9885.6756 176.5469 -10916.4210 -9883.9498 176.5469 104.7857 162.6682 28544.1771 104.7857 162.6682
ENERGY: 700000 0.6415 4.1115 0.6110 0.0000 -12398.3526 1911.1596 0.0000 0.0000 1232.3001 -9249.5290 211.0693 -10481.8291 -9245.6659 210.0637 237.8017 250.5004 28611.3944 2.6746 2.6059
TCL: Running 100000 steps at 240 kelvin.
TCL: Setting parameter langevinTemp to 240
TCL: Running for 100000 steps
ETITLE: TS BOND ANGLE DIHED IMPRP ELECT VDW BOUNDARY MISC KINETIC TOTAL TEMP POTENTIAL TOTAL3 TEMPAVG PRESSURE GPRESSURE VOLUME PRESSAVG GPRESSAVG
ENERGY: 700000 0.6415 4.1115 0.6110 0.0000 -12398.3526 1911.1596 0.0000 0.0000 1231.6693 -9250.1598 210.9613 -10481.8291 -9248.0038 210.9613 171.4445 251.3649 28611.3944 171.4445 251.3649
ENERGY: 800000 0.4719 3.6973 1.6891 0.0000 -11716.8041 1666.0479 0.0000 0.0000 1411.4465 -8633.4515 241.7536 -10044.8980 -8630.4660 239.7664 -373.3273 -265.1693 28998.4519 2.5331 2.5988
TCL: Running 100000 steps at 270 kelvin.
TCL: Setting parameter langevinTemp to 270
TCL: Running for 100000 steps
ETITLE: TS BOND ANGLE DIHED IMPRP ELECT VDW BOUNDARY MISC KINETIC TOTAL TEMP POTENTIAL TOTAL3 TEMPAVG PRESSURE GPRESSURE VOLUME PRESSAVG GPRESSAVG
ENERGY: 800000 0.4719 3.6973 1.6891 0.0000 -11716.8041 1666.0479 0.0000 0.0000 1410.7255 -8634.1725 241.6301 -10044.8980 -8631.6891 241.6301 -338.2485 -266.1719 28998.4519 -338.2485 -266.1719
ENERGY: 900000 0.6331 1.9715 0.1814 0.0000 -11151.3990 1543.3442 0.0000 0.0000 1551.3008 -8053.9680 265.7080 -9605.2688 -8048.6998 270.7141 -233.8512 -92.5838 29463.4550 5.6132 5.5269
TCL: Running 1000000 steps at 300 kelvin.
TCL: Setting parameter langevinTemp to 300
TCL: Running for 1000000 steps
ETITLE: TS BOND ANGLE DIHED IMPRP ELECT VDW BOUNDARY MISC KINETIC TOTAL TEMP POTENTIAL TOTAL3 TEMPAVG PRESSURE GPRESSURE VOLUME PRESSAVG GPRESSAVG
ENERGY: 900000 0.6331 1.9715 0.1814 0.0000 -11151.3990 1543.3442 0.0000 0.0000 1550.5204 -8054.7484 265.5743 -9605.2688 -8052.4155 265.5743 -172.9065 -89.6174 29463.4550 -172.9065 -89.6174
ENERGY: 1100000 1.0807 3.3278 0.3852 0.0000 -10548.8781 1285.5251 0.0000 0.0000 1798.9891 -7459.5702 308.1322 -9258.5593 -7455.7733 300.2452 -1028.7846 -938.6390 29916.1131 3.0356 3.0472
ENERGY: 1300000 1.1592 7.9672 0.8091 0.0000 -10597.1114 1421.4704 0.0000 0.0000 1729.5325 -7436.1729 296.2357 -9165.7055 -7434.5721 300.0130 149.9640 215.4775 30406.9958 4.6040 4.5101
ENERGY: 1500000 0.2075 3.5696 0.8541 0.0000 -10682.4048 1496.9813 0.0000 0.0000 1801.4901 -7379.3022 308.5606 -9180.7923 -7376.7084 300.1903 553.9123 608.9876 30445.7910 2.1040 2.0318
ENERGY: 1700000 0.0866 6.6932 0.3887 0.0000 -10618.1339 1406.4300 0.0000 0.0000 1737.9333 -7466.6021 297.6746 -9204.5354 -7461.5987 300.4331 -64.1497 51.4364 30158.9206 4.3616 4.4802
ENERGY: 1900000 0.9156 4.3364 1.1739 0.0000 -10570.3975 1403.1667 0.0000 0.0000 1790.1024 -7370.7025 306.6101 -9160.8049 -7367.0997 299.8703 -292.4389 -171.9315 30695.2761 4.0336 3.8254
TCL: Exiting due to exit command.
