Info: SIMULATION PARAMETERS:
Info: TIMESTEP               2
Info: NUMBER OF STEPS        0
Info: STEPS PER CYCLE        10
Info: PERIODIC CELL BASIS 1  37.133 0 0
Info: PERIODIC CELL BASIS 2  0 32.862 0
Info: PERIODIC CELL BASIS 3  0 0 36.199
Info: PERIODIC CELL CENTER   0 0 0
Info: WRAPPING WATERS AROUND PERIODIC BOUNDARIES ON OUTPUT.
Info: WRAPPING ALL CLUSTERS AROUND PERIODIC BOUNDARIES ON OUTPUT.
Info: FIRST LDB TIMESTEP     50
Info: LAST LDB TIMESTEP     -1
Info: HOM BACKGROUND SCALING 1
Info: PME BACKGROUND SCALING 1
Info: MIN ATOMS PER PATCH    40
Info: EMPTY PATCH LOAD       40 ATOMS
Info: INITIAL TEMPERATURE    300
Info: CENTER OF MASS MOVING INITIALLY? NO
Info: DIELECTRIC             1
Info: EXCLUDE                SCALED ONE-FOUR
Info: 1-4 ELECTROSTATICS SCALED BY 0.833333
Info: MODIFIED 1-4 VDW PARAMETERS WILL BE USED
Info: DCD FILENAME           mobley_5393242_equil.dcd
Info: DCD FREQUENCY          100000
Info: DCD FIRST STEP         100000
Info: DCD FILE WILL CONTAIN UNIT CELL DATA
Info: XST FILENAME           mobley_5393242_equil.xst
Info: XST FREQUENCY          100000
Info: NO VELOCITY DCD OUTPUT
Info: NO FORCE DCD OUTPUT
Info: OUTPUT FILENAME        mobley_5393242_equil
Info: BINARY OUTPUT FILES WILL BE USED
Info: RESTART FILENAME       mobley_5393242_equil.restart
Info: RESTART FREQUENCY      100000
Info: BINARY RESTART FILES WILL BE USED
Info: CUTOFF                 9
Info: PAIRLIST DISTANCE      11
Info: PAIRLIST SHRINK RATE   0.01
Info: PAIRLIST GROW RATE     0.01
Info: PAIRLIST TRIGGER       0.3
Info: PAIRLISTS PER CYCLE    2
Info: PAIRLISTS ENABLED
Info: MARGIN                 8
Info: HYDROGEN GROUP CUTOFF  2.5
Info: PATCH DIMENSION        21.5
Info: ENERGY OUTPUT STEPS    100000
Info: ENERGY EVALUATION STEPS    100000
Info: OUTPUT ENERGY PRECISION 4
Info: CROSSTERM ENERGY INCLUDED IN DIHEDRAL
Info: TIMING OUTPUT STEPS    1000000
Info: PRESSURE OUTPUT STEPS  100000
Info: LANGEVIN DYNAMICS ACTIVE
Info: LANGEVIN TEMPERATURE   30
Info: LANGEVIN USING BBK INTEGRATOR
Info: LANGEVIN DAMPING COEFFICIENT IS 1 INVERSE PS
Info: LANGEVIN DYNAMICS APPLIED TO HYDROGENS
Info: LANGEVIN PISTON PRESSURE CONTROL ACTIVE
Info:        TARGET PRESSURE IS 1.01325 BAR
Info:     OSCILLATION PERIOD IS 50 FS
Info:             DECAY TIME IS 25 FS
Info:     PISTON TEMPERATURE IS 300 K
Info:       PRESSURE CONTROL IS GROUP-BASED
Info:    INITIAL STRAIN RATE IS 0 0 0
Info:       CELL FLUCTUATION IS ISOTROPIC
Info: PARTICLE MESH EWALD (PME) ACTIVE
Info: PME TOLERANCE               1e-06
Info: PME EWALD COEFFICIENT       0.348832
Info: PME INTERPOLATION ORDER     4
Info: PME GRID DIMENSIONS         40 36 40
Info: PME MAXIMUM GRID SPACING    1
Info: FULL ELECTROSTATIC EVALUATION FREQUENCY      2
Info: USING VERLET I (r-RESPA) MTS SCHEME.
Info: C1 SPLITTING OF LONG RANGE ELECTROSTATICS
Info: PLACING ATOMS IN PATCHES BY HYDROGEN GROUPS
Info: RIGID BONDS TO HYDROGEN : ALL
Info:         ERROR TOLERANCE : 1e-08
Info:          MAX ITERATIONS : 100
Info: RIGID WATER USING SETTLE ALGORITHM
Info: RANDOM NUMBER SEED     1743265175
Info: USE HYDROGEN BONDS?    NO
Info: Using AMBER format force field!
Info: AMBER PARM FILE        mobley_5393242.prmtop
Info: COORDINATE PDB         mobley_5393242.pdb
Info: Exclusions will be read from PARM file!
Info: SCNB (VDW SCALING)     2
Info: USING ARITHMETIC MEAN TO COMBINE L-J SIGMA PARAMETERS
Info: BINARY COORDINATES     mobley_5393242_min.coor
Info: SUMMARY OF PARAMETERS:
Info: 13 BONDS
Info: 22 ANGLES
Info:   22 HARMONIC
Info:   0 COSINE-BASED
Info: 16 DIHEDRAL
Info: 0 IMPROPER
Info: 0 CROSSTERM
Info: 0 VDW
Info: 66 VDW_PAIRS
Info: 0 NBTHOLE_PAIRS
Info: STRUCTURE SUMMARY:
Info: 2968 ATOMS
Info: 2968 BONDS
Info: 71 ANGLES
Info: 97 DIHEDRALS
Info: 0 IMPROPERS
Info: 0 CROSSTERMS
Info: 3117 EXCLUSIONS
Info: 2949 RIGID BONDS
Info: 5955 DEGREES OF FREEDOM
Info: 995 HYDROGEN GROUPS
Info: 4 ATOMS IN LARGEST HYDROGEN GROUP
Info: 995 MIGRATION GROUPS
Info: 4 ATOMS IN LARGEST MIGRATION GROUP
Info: TOTAL MASS = 17888 amu
Info: TOTAL CHARGE = 0.000200048 e
Info: MASS DENSITY = 0.672464 g/cm^3
Info: ATOM DENSITY = 0.0671913 atoms/A^3
Info: ADDED 0 IMPLICIT EXCLUSIONS
Info: NONBONDED TABLE R-SQUARED SPACING: 0.0625
Info: NONBONDED TABLE SIZE: 705 POINTS
Info: REMOVING COM VELOCITY 0.0784088 -0.00243584 0.313575
TCL: Running for 100000 steps
ETITLE: TS BOND ANGLE DIHED IMPRP ELECT VDW BOUNDARY MISC KINETIC TOTAL TEMP POTENTIAL TOTAL3 TEMPAVG PRESSURE GPRESSURE VOLUME PRESSAVG GPRESSAVG
ENERGY: 0 0.6964 2.8591 26.7477 0.0000 -13890.5348 2389.7285 0.0000 0.0000 1796.6625 -9673.8407 303.6513 -11470.5032 -9673.4792 303.6513 436.0563 462.9587 44172.3599 436.0563 462.9587
ENERGY: 100000 1.1640 3.9633 27.1319 0.0000 -14637.0040 2646.6096 0.0000 0.0000 179.4066 -11778.7287 30.3212 -11958.1353 -11778.1476 30.8998 1531.9491 1593.4901 29287.4306 4.0175 4.0135
TCL: Running 100000 steps at 60 kelvin.
TCL: Setting parameter langevinTemp to 60
TCL: Running for 100000 steps
ETITLE: TS BOND ANGLE DIHED IMPRP ELECT VDW BOUNDARY MISC KINETIC TOTAL TEMP POTENTIAL TOTAL3 TEMPAVG PRESSURE GPRESSURE VOLUME PRESSAVG GPRESSAVG
ENERGY: 100000 1.1640 3.9633 27.1319 0.0000 -14637.0040 2646.6096 0.0000 0.0000 179.3210 -11778.8142 30.3068 -11958.1353 -11778.4357 30.3068 1525.5556 1593.4968 29287.4306 1525.5556 1593.4968
ENERGY: 200000 3.0229 5.2949 28.1812 0.0000 -14216.0010 2291.7682 0.0000 0.0000 367.2928 -11520.4410 62.0756 -11887.7338 -11519.2942 59.9543 -1360.9945 -1296.7148 29529.6990 4.2014 4.2062
TCL: Running 100000 steps at 90 kelvin.
TCL: Setting parameter langevinTemp to 90
TCL: Running for 100000 steps
ETITLE: TS BOND ANGLE DIHED IMPRP ELECT VDW BOUNDARY MISC KINETIC TOTAL TEMP POTENTIAL TOTAL3 TEMPAVG PRESSURE GPRESSURE VOLUME PRESSAVG GPRESSAVG
ENERGY: 200000 3.0229 5.2949 28.1812 0.0000 -14216.0010 2291.7682 0.0000 0.0000 367.1184 -11520.6154 62.0461 -11887.7338 -11519.9882 62.0461 -1361.7906 -1296.1759 29529.6990 -1361.7906 -1296.1759
ENERGY: 300000 1.4674 9.4548 25.3065 0.0000 -14174.4346 2355.2387 0.0000 0.0000 538.2158 -11244.7513 90.9631 -11782.9670 -11242.8056 90.0991 -278.6206 -215.7887 29423.5250 3.9322 3.9334
TCL: Running 100000 steps at 120 kelvin.
TCL: Setting parameter langevinTemp to 120
TCL: Running for 100000 steps
ETITLE: TS BOND ANGLE DIHED IMPRP ELECT VDW BOUNDARY MISC KINETIC TOTAL TEMP POTENTIAL TOTAL3 TEMPAVG PRESSURE GPRESSURE VOLUME PRESSAVG GPRESSAVG
ENERGY: 300000 1.4674 9.4548 25.3065 0.0000 -14174.4346 2355.2387 0.0000 0.0000 537.9508 -11245.0163 90.9183 -11782.9670 -11243.7841 90.9183 -266.0547 -215.3320 29423.5250 -266.0547 -215.3320
ENERGY: 400000 3.8437 15.7812 17.6311 0.0000 -13965.3637 2298.5322 0.0000 0.0000 710.2844 -10919.2910 120.0441 -11629.5754 -10917.5788 120.0856 -222.3089 -199.3259 29433.8586 3.9808 4.1550
TCL: Running 100000 steps at 150 kelvin.
TCL: Setting parameter langevinTemp to 150
TCL: Running for 100000 steps
ETITLE: TS BOND ANGLE DIHED IMPRP ELECT VDW BOUNDARY MISC KINETIC TOTAL TEMP POTENTIAL TOTAL3 TEMPAVG PRESSURE GPRESSURE VOLUME PRESSAVG GPRESSAVG
ENERGY: 400000 3.8437 15.7812 17.6311 0.0000 -13965.3637 2298.5322 0.0000 0.0000 709.9246 -10919.6509 119.9833 -11629.5754 -10918.2716 119.9833 -263.4739 -199.5220 29433.8586 -263.4739 -199.5220
ENERGY: 500000 2.4392 14.5689 17.8355 0.0000 -13809.5490 2234.6330 0.0000 0.0000 865.1354 -10674.9372 146.2153 -11540.0726 -10672.1418 149.8691 -237.6954 -211.6944 29244.3132 4.3457 4.3656
TCL: Running 100000 steps at 180 kelvin.
TCL: Setting parameter langevinTemp to 180
TCL: Running for 100000 steps
ETITLE: TS BOND ANGLE DIHED IMPRP ELECT VDW BOUNDARY MISC KINETIC TOTAL TEMP POTENTIAL TOTAL3 TEMPAVG PRESSURE GPRESSURE VOLUME PRESSAVG GPRESSAVG
ENERGY: 500000 2.4392 14.5689 17.8355 0.0000 -13809.5490 2234.6330 0.0000 0.0000 864.7069 -10675.3657 146.1428 -11540.0726 -10673.3552 146.1428 -254.8576 -212.2097 29244.3132 -254.8576 -212.2097
ENERGY: 600000 4.9022 15.4119 18.1111 0.0000 -13280.2450 2048.1123 0.0000 0.0000 1090.3189 -10103.3886 184.2732 -11193.7075 -10100.0111 180.0860 -260.3515 -251.5625 29323.9160 3.2239 3.3152
TCL: Running 100000 steps at 210 kelvin.
TCL: Setting parameter langevinTemp to 210
TCL: Running for 100000 steps
ETITLE: TS BOND ANGLE DIHED IMPRP ELECT VDW BOUNDARY MISC KINETIC TOTAL TEMP POTENTIAL TOTAL3 TEMPAVG PRESSURE GPRESSURE VOLUME PRESSAVG GPRESSAVG
ENERGY: 600000 4.9022 15.4119 18.1111 0.0000 -13280.2450 2048.1123 0.0000 0.0000 1089.7617 -10103.9458 184.1790 -11193.7075 -10101.6109 184.1790 -309.6538 -250.8316 29323.9160 -309.6538 -250.8316
ENERGY: 700000 3.4538 10.9929 16.8845 0.0000 -12546.2876 1824.0912 0.0000 0.0000 1280.8098 -9410.0555 216.4678 -10690.8653 -9407.2483 210.1520 -223.3751 -143.2595 28978.3014 2.9742 3.0021
TCL: Running 100000 steps at 240 kelvin.
TCL: Setting parameter langevinTemp to 240
TCL: Running for 100000 steps
ETITLE: TS BOND ANGLE DIHED IMPRP ELECT VDW BOUNDARY MISC KINETIC TOTAL TEMP POTENTIAL TOTAL3 TEMPAVG PRESSURE GPRESSURE VOLUME PRESSAVG GPRESSAVG
ENERGY: 700000 3.4538 10.9929 16.8845 0.0000 -12546.2876 1824.0912 0.0000 0.0000 1280.1998 -9410.6654 216.3647 -10690.8653 -9407.7920 216.3647 -213.8297 -142.6605 28978.3014 -213.8297 -142.6605
ENERGY: 800000 6.5264 17.5579 21.5710 0.0000 -12124.6467 1789.7932 0.0000 0.0000 1390.6985 -8898.4997 235.0399 -10289.1982 -8895.0977 240.4343 932.4607 1045.4671 28823.3132 3.1148 3.2262
TCL: Running 100000 steps at 270 kelvin.
TCL: Setting parameter langevinTemp to 270
TCL: Running for 100000 steps
ETITLE: TS BOND ANGLE DIHED IMPRP ELECT VDW BOUNDARY MISC KINETIC TOTAL TEMP POTENTIAL TOTAL3 TEMPAVG PRESSURE GPRESSURE VOLUME PRESSAVG GPRESSAVG
ENERGY: 800000 6.5264 17.5579 21.5710 0.0000 -12124.6467 1789.7932 0.0000 0.0000 1389.9986 -8899.1995 234.9216 -10289.1982 -8896.2879 234.9216 976.1355 1046.4711 28823.3132 976.1355 1046.4711
ENERGY: 900000 6.6780 16.5414 19.2529 0.0000 -11427.8375 1535.5191 0.0000 0.0000 1574.9380 -8274.9081 266.1780 -9849.8461 -8270.5359 270.1465 -233.0609 -173.0053 30008.4071 2.2644 1.9571
TCL: Running 1000000 steps at 300 kelvin.
TCL: Setting parameter langevinTemp to 300
TCL: Running for 1000000 steps
ETITLE: TS BOND ANGLE DIHED IMPRP ELECT VDW BOUNDARY MISC KINETIC TOTAL TEMP POTENTIAL TOTAL3 TEMPAVG PRESSURE GPRESSURE VOLUME PRESSAVG GPRESSAVG
ENERGY: 900000 6.6780 16.5414 19.2529 0.0000 -11427.8375 1535.5191 0.0000 0.0000 1574.1436 -8275.7026 266.0437 -9849.8461 -8273.1141 266.0437 -256.4775 -170.0112 30008.4071 -256.4775 -170.0112
ENERGY: 1100000 4.9656 18.9090 20.9779 0.0000 -10984.2025 1407.5302 0.0000 0.0000 1778.3385 -7753.4814 300.5544 -9531.8199 -7751.1089 299.7690 -384.4500 -308.4168 30392.7760 2.8512 3.0896
ENERGY: 1300000 12.5067 14.1877 22.5743 0.0000 -10968.5081 1461.3233 0.0000 0.0000 1810.7665 -7647.1495 306.0350 -9457.9160 -7646.1077 300.1539 491.0497 500.2009 30229.6832 2.0426 2.0111
ENERGY: 1500000 6.4924 17.9653 17.9738 0.0000 -10962.4953 1455.4582 0.0000 0.0000 1746.7446 -7717.8611 295.2147 -9464.6057 -7712.6160 300.4601 162.8217 212.1889 30577.1367 3.9425 3.8429
ENERGY: 1700000 6.4385 16.3888 23.0073 0.0000 -11094.0887 1453.4087 0.0000 0.0000 1771.3426 -7823.5029 299.3720 -9594.8455 -7821.8955 300.9122 57.0364 147.0400 30114.6063 1.9089 1.9634
ENERGY: 1900000 3.2045 15.9871 22.9102 0.0000 -11069.2169 1497.4470 0.0000 0.0000 1759.9306 -7769.7374 297.4433 -9529.6680 -7767.0296 300.3393 524.8599 616.2922 30359.3970 3.1660 3.2553
TCL: Exiting due to exit command.
