Info: SIMULATION PARAMETERS:
Info: TIMESTEP               2
Info: NUMBER OF STEPS        0
Info: STEPS PER CYCLE        10
Info: PERIODIC CELL BASIS 1  36.592 0 0
Info: PERIODIC CELL BASIS 2  0 34.26 0
Info: PERIODIC CELL BASIS 3  0 0 34.933
Info: PERIODIC CELL CENTER   0 0 0
Info: WRAPPING WATERS AROUND PERIODIC BOUNDARIES ON OUTPUT.
Info: WRAPPING ALL CLUSTERS AROUND PERIODIC BOUNDARIES ON OUTPUT.
Info: FIRST LDB TIMESTEP     50
Info: LAST LDB TIMESTEP     -1
Info: HOM BACKGROUND SCALING 1
Info: PME BACKGROUND SCALING 1
Info: MIN ATOMS PER PATCH    40
Info: EMPTY PATCH LOAD       40 ATOMS
Info: INITIAL TEMPERATURE    300
Info: CENTER OF MASS MOVING INITIALLY? NO
Info: DIELECTRIC             1
Info: EXCLUDE                SCALED ONE-FOUR
Info: 1-4 ELECTROSTATICS SCALED BY 0.833333
Info: MODIFIED 1-4 VDW PARAMETERS WILL BE USED
Info: DCD FILENAME           mobley_2198613_equil.dcd
Info: DCD FREQUENCY          100000
Info: DCD FIRST STEP         100000
Info: DCD FILE WILL CONTAIN UNIT CELL DATA
Info: XST FILENAME           mobley_2198613_equil.xst
Info: XST FREQUENCY          100000
Info: NO VELOCITY DCD OUTPUT
Info: NO FORCE DCD OUTPUT
Info: OUTPUT FILENAME        mobley_2198613_equil
Info: BINARY OUTPUT FILES WILL BE USED
Info: RESTART FILENAME       mobley_2198613_equil.restart
Info: RESTART FREQUENCY      100000
Info: BINARY RESTART FILES WILL BE USED
Info: CUTOFF                 9
Info: PAIRLIST DISTANCE      11
Info: PAIRLIST SHRINK RATE   0.01
Info: PAIRLIST GROW RATE     0.01
Info: PAIRLIST TRIGGER       0.3
Info: PAIRLISTS PER CYCLE    2
Info: PAIRLISTS ENABLED
Info: MARGIN                 8
Info: HYDROGEN GROUP CUTOFF  2.5
Info: PATCH DIMENSION        21.5
Info: ENERGY OUTPUT STEPS    100000
Info: ENERGY EVALUATION STEPS    100000
Info: OUTPUT ENERGY PRECISION 4
Info: CROSSTERM ENERGY INCLUDED IN DIHEDRAL
Info: TIMING OUTPUT STEPS    1000000
Info: PRESSURE OUTPUT STEPS  100000
Info: LANGEVIN DYNAMICS ACTIVE
Info: LANGEVIN TEMPERATURE   30
Info: LANGEVIN USING BBK INTEGRATOR
Info: LANGEVIN DAMPING COEFFICIENT IS 1 INVERSE PS
Info: LANGEVIN DYNAMICS APPLIED TO HYDROGENS
Info: LANGEVIN PISTON PRESSURE CONTROL ACTIVE
Info:        TARGET PRESSURE IS 1.01325 BAR
Info:     OSCILLATION PERIOD IS 50 FS
Info:             DECAY TIME IS 25 FS
Info:     PISTON TEMPERATURE IS 300 K
Info:       PRESSURE CONTROL IS GROUP-BASED
Info:    INITIAL STRAIN RATE IS 0 0 0
Info:       CELL FLUCTUATION IS ISOTROPIC
Info: PARTICLE MESH EWALD (PME) ACTIVE
Info: PME TOLERANCE               1e-06
Info: PME EWALD COEFFICIENT       0.348832
Info: PME INTERPOLATION ORDER     4
Info: PME GRID DIMENSIONS         40 36 36
Info: PME MAXIMUM GRID SPACING    1
Info: FULL ELECTROSTATIC EVALUATION FREQUENCY      2
Info: USING VERLET I (r-RESPA) MTS SCHEME.
Info: C1 SPLITTING OF LONG RANGE ELECTROSTATICS
Info: PLACING ATOMS IN PATCHES BY HYDROGEN GROUPS
Info: RIGID BONDS TO HYDROGEN : ALL
Info:         ERROR TOLERANCE : 1e-08
Info:          MAX ITERATIONS : 100
Info: RIGID WATER USING SETTLE ALGORITHM
Info: RANDOM NUMBER SEED     1743157249
Info: USE HYDROGEN BONDS?    NO
Info: Using AMBER format force field!
Info: AMBER PARM FILE        mobley_2198613.prmtop
Info: COORDINATE PDB         mobley_2198613.pdb
Info: Exclusions will be read from PARM file!
Info: SCNB (VDW SCALING)     2
Info: USING ARITHMETIC MEAN TO COMBINE L-J SIGMA PARAMETERS
Info: BINARY COORDINATES     mobley_2198613_min.coor
Info: SUMMARY OF PARAMETERS:
Info: 6 BONDS
Info: 6 ANGLES
Info:   6 HARMONIC
Info:   0 COSINE-BASED
Info: 3 DIHEDRAL
Info: 0 IMPROPER
Info: 0 CROSSTERM
Info: 0 VDW
Info: 21 VDW_PAIRS
Info: 0 NBTHOLE_PAIRS
Info: STRUCTURE SUMMARY:
Info: 2939 ATOMS
Info: 2938 BONDS
Info: 12 ANGLES
Info: 12 DIHEDRALS
Info: 0 IMPROPERS
Info: 0 CROSSTERMS
Info: 2959 EXCLUSIONS
Info: 2936 RIGID BONDS
Info: 5881 DEGREES OF FREEDOM
Info: 980 HYDROGEN GROUPS
Info: 4 ATOMS IN LARGEST HYDROGEN GROUP
Info: 980 MIGRATION GROUPS
Info: 4 ATOMS IN LARGEST MIGRATION GROUP
Info: TOTAL MASS = 17666.1 amu
Info: TOTAL CHARGE = 0 e
Info: MASS DENSITY = 0.669872 g/cm^3
Info: ATOM DENSITY = 0.0671105 atoms/A^3
Info: ADDED 0 IMPLICIT EXCLUSIONS
Info: NONBONDED TABLE R-SQUARED SPACING: 0.0625
Info: NONBONDED TABLE SIZE: 705 POINTS
Info: REMOVING COM VELOCITY 0.0392641 -0.129012 -0.0470252
TCL: Running for 100000 steps
ETITLE: TS BOND ANGLE DIHED IMPRP ELECT VDW BOUNDARY MISC KINETIC TOTAL TEMP POTENTIAL TOTAL3 TEMPAVG PRESSURE GPRESSURE VOLUME PRESSAVG GPRESSAVG
ENERGY: 0 0.0006 0.1229 0.7684 0.0000 -13576.2627 2368.8784 0.0000 0.0000 1774.7951 -9431.6974 303.7298 -11206.4925 -9431.3253 303.7298 403.0553 437.8406 43793.4732 403.0553 437.8406
ENERGY: 100000 0.0875 0.5080 0.7427 0.0000 -14207.3183 2508.6249 0.0000 0.0000 171.2665 -11526.0886 29.3097 -11697.3551 -11525.8522 30.8844 653.1962 700.3372 28343.7079 4.6410 4.6411
TCL: Running 100000 steps at 60 kelvin.
TCL: Setting parameter langevinTemp to 60
TCL: Running for 100000 steps
ETITLE: TS BOND ANGLE DIHED IMPRP ELECT VDW BOUNDARY MISC KINETIC TOTAL TEMP POTENTIAL TOTAL3 TEMPAVG PRESSURE GPRESSURE VOLUME PRESSAVG GPRESSAVG
ENERGY: 100000 0.0875 0.5080 0.7427 0.0000 -14207.3183 2508.6249 0.0000 0.0000 171.1803 -11526.1748 29.2950 -11697.3551 -11525.9315 29.2950 656.5190 700.2738 28343.7079 656.5190 700.2738
ENERGY: 200000 0.0698 0.6488 0.7924 0.0000 -13952.5700 2320.5512 0.0000 0.0000 342.4730 -11288.0348 58.6092 -11630.5078 -11286.9220 59.9894 -758.7975 -726.9212 28663.9566 5.2768 5.2451
TCL: Running 100000 steps at 90 kelvin.
TCL: Setting parameter langevinTemp to 90
TCL: Running for 100000 steps
ETITLE: TS BOND ANGLE DIHED IMPRP ELECT VDW BOUNDARY MISC KINETIC TOTAL TEMP POTENTIAL TOTAL3 TEMPAVG PRESSURE GPRESSURE VOLUME PRESSAVG GPRESSAVG
ENERGY: 200000 0.0698 0.6488 0.7924 0.0000 -13952.5700 2320.5512 0.0000 0.0000 342.3021 -11288.2056 58.5799 -11630.5078 -11287.3895 58.5799 -775.5867 -726.8437 28663.9566 -775.5867 -726.8437
ENERGY: 300000 0.2578 0.8967 0.8401 0.0000 -13900.8350 2373.2844 0.0000 0.0000 543.7407 -10981.8153 93.0531 -11525.5560 -10980.0661 89.8824 150.9377 194.5149 28418.9944 4.4741 4.3707
TCL: Running 100000 steps at 120 kelvin.
TCL: Setting parameter langevinTemp to 120
TCL: Running for 100000 steps
ETITLE: TS BOND ANGLE DIHED IMPRP ELECT VDW BOUNDARY MISC KINETIC TOTAL TEMP POTENTIAL TOTAL3 TEMPAVG PRESSURE GPRESSURE VOLUME PRESSAVG GPRESSAVG
ENERGY: 300000 0.2578 0.8967 0.8401 0.0000 -13900.8350 2373.2844 0.0000 0.0000 543.4746 -10982.0814 93.0076 -11525.5560 -10981.2158 93.0076 138.2967 195.0939 28418.9944 138.2967 195.0939
ENERGY: 400000 0.2001 1.0575 0.7539 0.0000 -13799.2929 2381.1264 0.0000 0.0000 689.4497 -10726.7052 117.9891 -11416.1550 -10725.3953 119.9296 466.8395 532.5680 28505.8328 3.9682 3.9224
TCL: Running 100000 steps at 150 kelvin.
TCL: Setting parameter langevinTemp to 150
TCL: Running for 100000 steps
ETITLE: TS BOND ANGLE DIHED IMPRP ELECT VDW BOUNDARY MISC KINETIC TOTAL TEMP POTENTIAL TOTAL3 TEMPAVG PRESSURE GPRESSURE VOLUME PRESSAVG GPRESSAVG
ENERGY: 400000 0.2001 1.0575 0.7539 0.0000 -13799.2929 2381.1264 0.0000 0.0000 689.1008 -10727.0542 117.9294 -11416.1550 -10725.6449 117.9294 478.8793 532.0924 28505.8328 478.8793 532.0924
ENERGY: 500000 0.7644 1.2901 0.7596 0.0000 -13429.1224 2195.2567 0.0000 0.0000 858.8841 -10372.1675 146.9852 -11231.0516 -10369.3484 150.0366 -547.7151 -501.5379 28939.2044 3.7590 3.7968
TCL: Running 100000 steps at 180 kelvin.
TCL: Setting parameter langevinTemp to 180
TCL: Running for 100000 steps
ETITLE: TS BOND ANGLE DIHED IMPRP ELECT VDW BOUNDARY MISC KINETIC TOTAL TEMP POTENTIAL TOTAL3 TEMPAVG PRESSURE GPRESSURE VOLUME PRESSAVG GPRESSAVG
ENERGY: 500000 0.7644 1.2901 0.7596 0.0000 -13429.1224 2195.2567 0.0000 0.0000 858.4525 -10372.5991 146.9114 -11231.0516 -10370.9930 146.9114 -559.0337 -501.0373 28939.2044 -559.0337 -501.0373
ENERGY: 600000 0.0837 2.2413 1.1327 0.0000 -13083.8545 2157.5161 0.0000 0.0000 1052.4155 -9870.4654 180.1053 -10922.8808 -9869.4617 180.0089 736.4491 832.7709 28347.1307 3.9845 3.8463
TCL: Running 100000 steps at 210 kelvin.
TCL: Setting parameter langevinTemp to 210
TCL: Running for 100000 steps
ETITLE: TS BOND ANGLE DIHED IMPRP ELECT VDW BOUNDARY MISC KINETIC TOTAL TEMP POTENTIAL TOTAL3 TEMPAVG PRESSURE GPRESSURE VOLUME PRESSAVG GPRESSAVG
ENERGY: 600000 0.0837 2.2413 1.1327 0.0000 -13083.8545 2157.5161 0.0000 0.0000 1051.8835 -9870.9973 180.0142 -10922.8808 -9869.1581 180.0142 771.0944 832.4399 28347.1307 771.0944 832.4399
ENERGY: 700000 0.5402 1.1069 1.2655 0.0000 -12416.6753 1930.1893 0.0000 0.0000 1198.6132 -9284.9602 205.1248 -10483.5734 -9283.7258 209.4595 228.7543 239.4741 28748.7039 3.6584 3.6216
TCL: Running 100000 steps at 240 kelvin.
TCL: Setting parameter langevinTemp to 240
TCL: Running for 100000 steps
ETITLE: TS BOND ANGLE DIHED IMPRP ELECT VDW BOUNDARY MISC KINETIC TOTAL TEMP POTENTIAL TOTAL3 TEMPAVG PRESSURE GPRESSURE VOLUME PRESSAVG GPRESSAVG
ENERGY: 700000 0.5402 1.1069 1.2655 0.0000 -12416.6753 1930.1893 0.0000 0.0000 1198.0035 -9285.5699 205.0205 -10483.5734 -9284.0742 205.0205 163.1451 238.4017 28748.7039 163.1451 238.4017
ENERGY: 800000 0.7896 1.2296 0.7537 0.0000 -11655.0800 1651.0027 0.0000 0.0000 1417.1406 -8584.1638 242.5226 -10001.3044 -8581.6545 239.6988 -160.5835 -84.6941 28609.5502 2.0359 2.0429
TCL: Running 100000 steps at 270 kelvin.
TCL: Setting parameter langevinTemp to 270
TCL: Running for 100000 steps
ETITLE: TS BOND ANGLE DIHED IMPRP ELECT VDW BOUNDARY MISC KINETIC TOTAL TEMP POTENTIAL TOTAL3 TEMPAVG PRESSURE GPRESSURE VOLUME PRESSAVG GPRESSAVG
ENERGY: 800000 0.7896 1.2296 0.7537 0.0000 -11655.0800 1651.0027 0.0000 0.0000 1416.4371 -8584.8673 242.4022 -10001.3044 -8583.0556 242.4022 -172.3988 -84.7894 28609.5502 -172.3988 -84.7894
ENERGY: 900000 0.0583 3.1174 0.7957 0.0000 -11219.3602 1549.6055 0.0000 0.0000 1592.4495 -8073.3338 272.5241 -9665.7832 -8070.4628 270.4530 -161.3516 -66.5532 29294.3551 3.7339 3.7207
TCL: Running 1000000 steps at 300 kelvin.
TCL: Setting parameter langevinTemp to 300
TCL: Running for 1000000 steps
ETITLE: TS BOND ANGLE DIHED IMPRP ELECT VDW BOUNDARY MISC KINETIC TOTAL TEMP POTENTIAL TOTAL3 TEMPAVG PRESSURE GPRESSURE VOLUME PRESSAVG GPRESSAVG
ENERGY: 900000 0.0583 3.1174 0.7957 0.0000 -11219.3602 1549.6055 0.0000 0.0000 1591.6660 -8074.1172 272.3900 -9665.7832 -8071.5609 272.3900 -150.3389 -67.6047 29294.3551 -150.3389 -67.6047
ENERGY: 1100000 1.1802 2.7042 1.2403 0.0000 -10759.2818 1470.2260 0.0000 0.0000 1723.0818 -7560.8492 294.8799 -9283.9311 -7557.3045 300.8138 -0.3548 64.6061 30531.0858 2.6872 2.7114
ENERGY: 1300000 0.0532 1.5742 0.9918 0.0000 -10747.4158 1458.4595 0.0000 0.0000 1752.5770 -7533.7602 299.9275 -9286.3371 -7530.7279 300.2156 46.9867 207.8002 29872.2625 2.3173 2.3575
ENERGY: 1500000 0.5358 1.9284 1.0508 0.0000 -10691.2097 1477.2190 0.0000 0.0000 1755.0447 -7455.4310 300.3498 -9210.4757 -7453.3204 299.5036 403.8465 492.5852 30245.1983 2.7747 2.7195
ENERGY: 1700000 0.5644 2.7367 0.9734 0.0000 -10741.2685 1482.4008 0.0000 0.0000 1746.3753 -7508.2180 298.8662 -9254.5933 -7506.7473 299.9649 340.0107 422.0124 30157.8468 2.3161 2.2400
ENERGY: 1900000 0.0045 2.9453 0.7950 0.0000 -10572.1518 1385.6502 0.0000 0.0000 1763.5982 -7419.1586 301.8136 -9182.7568 -7415.8698 300.8758 -388.9851 -282.5678 30748.6288 2.8342 2.6714
TCL: Exiting due to exit command.
