Info: SIMULATION PARAMETERS:
Info: TIMESTEP               2
Info: NUMBER OF STEPS        0
Info: STEPS PER CYCLE        10
Info: PERIODIC CELL BASIS 1  34.207 0 0
Info: PERIODIC CELL BASIS 2  0 34.696 0
Info: PERIODIC CELL BASIS 3  0 0 37.195
Info: PERIODIC CELL CENTER   0 0 0
Info: WRAPPING WATERS AROUND PERIODIC BOUNDARIES ON OUTPUT.
Info: WRAPPING ALL CLUSTERS AROUND PERIODIC BOUNDARIES ON OUTPUT.
Info: FIRST LDB TIMESTEP     50
Info: LAST LDB TIMESTEP     -1
Info: HOM BACKGROUND SCALING 1
Info: PME BACKGROUND SCALING 1
Info: MIN ATOMS PER PATCH    40
Info: EMPTY PATCH LOAD       40 ATOMS
Info: INITIAL TEMPERATURE    300
Info: CENTER OF MASS MOVING INITIALLY? NO
Info: DIELECTRIC             1
Info: EXCLUDE                SCALED ONE-FOUR
Info: 1-4 ELECTROSTATICS SCALED BY 0.833333
Info: MODIFIED 1-4 VDW PARAMETERS WILL BE USED
Info: DCD FILENAME           mobley_7463408_equil.dcd
Info: DCD FREQUENCY          100000
Info: DCD FIRST STEP         100000
Info: DCD FILE WILL CONTAIN UNIT CELL DATA
Info: XST FILENAME           mobley_7463408_equil.xst
Info: XST FREQUENCY          100000
Info: NO VELOCITY DCD OUTPUT
Info: NO FORCE DCD OUTPUT
Info: OUTPUT FILENAME        mobley_7463408_equil
Info: BINARY OUTPUT FILES WILL BE USED
Info: RESTART FILENAME       mobley_7463408_equil.restart
Info: RESTART FREQUENCY      100000
Info: BINARY RESTART FILES WILL BE USED
Info: CUTOFF                 9
Info: PAIRLIST DISTANCE      11
Info: PAIRLIST SHRINK RATE   0.01
Info: PAIRLIST GROW RATE     0.01
Info: PAIRLIST TRIGGER       0.3
Info: PAIRLISTS PER CYCLE    2
Info: PAIRLISTS ENABLED
Info: MARGIN                 8
Info: HYDROGEN GROUP CUTOFF  2.5
Info: PATCH DIMENSION        21.5
Info: ENERGY OUTPUT STEPS    100000
Info: ENERGY EVALUATION STEPS    100000
Info: OUTPUT ENERGY PRECISION 4
Info: CROSSTERM ENERGY INCLUDED IN DIHEDRAL
Info: TIMING OUTPUT STEPS    1000000
Info: PRESSURE OUTPUT STEPS  100000
Info: LANGEVIN DYNAMICS ACTIVE
Info: LANGEVIN TEMPERATURE   30
Info: LANGEVIN USING BBK INTEGRATOR
Info: LANGEVIN DAMPING COEFFICIENT IS 1 INVERSE PS
Info: LANGEVIN DYNAMICS APPLIED TO HYDROGENS
Info: LANGEVIN PISTON PRESSURE CONTROL ACTIVE
Info:        TARGET PRESSURE IS 1.01325 BAR
Info:     OSCILLATION PERIOD IS 50 FS
Info:             DECAY TIME IS 25 FS
Info:     PISTON TEMPERATURE IS 300 K
Info:       PRESSURE CONTROL IS GROUP-BASED
Info:    INITIAL STRAIN RATE IS 0 0 0
Info:       CELL FLUCTUATION IS ISOTROPIC
Info: PARTICLE MESH EWALD (PME) ACTIVE
Info: PME TOLERANCE               1e-06
Info: PME EWALD COEFFICIENT       0.348832
Info: PME INTERPOLATION ORDER     4
Info: PME GRID DIMENSIONS         36 36 40
Info: PME MAXIMUM GRID SPACING    1
Info: FULL ELECTROSTATIC EVALUATION FREQUENCY      2
Info: USING VERLET I (r-RESPA) MTS SCHEME.
Info: C1 SPLITTING OF LONG RANGE ELECTROSTATICS
Info: PLACING ATOMS IN PATCHES BY HYDROGEN GROUPS
Info: RIGID BONDS TO HYDROGEN : ALL
Info:         ERROR TOLERANCE : 1e-08
Info:          MAX ITERATIONS : 100
Info: RIGID WATER USING SETTLE ALGORITHM
Info: RANDOM NUMBER SEED     1743245394
Info: USE HYDROGEN BONDS?    NO
Info: Using AMBER format force field!
Info: AMBER PARM FILE        mobley_7463408.prmtop
Info: COORDINATE PDB         mobley_7463408.pdb
Info: Exclusions will be read from PARM file!
Info: SCNB (VDW SCALING)     2
Info: USING ARITHMETIC MEAN TO COMBINE L-J SIGMA PARAMETERS
Info: BINARY COORDINATES     mobley_7463408_min.coor
Info: SUMMARY OF PARAMETERS:
Info: 12 BONDS
Info: 14 ANGLES
Info:   14 HARMONIC
Info:   0 COSINE-BASED
Info: 14 DIHEDRAL
Info: 0 IMPROPER
Info: 0 CROSSTERM
Info: 0 VDW
Info: 55 VDW_PAIRS
Info: 0 NBTHOLE_PAIRS
Info: STRUCTURE SUMMARY:
Info: 2989 ATOMS
Info: 2989 BONDS
Info: 36 ANGLES
Info: 61 DIHEDRALS
Info: 0 IMPROPERS
Info: 0 CROSSTERMS
Info: 3069 EXCLUSIONS
Info: 2976 RIGID BONDS
Info: 5991 DEGREES OF FREEDOM
Info: 1002 HYDROGEN GROUPS
Info: 4 ATOMS IN LARGEST HYDROGEN GROUP
Info: 1002 MIGRATION GROUPS
Info: 4 ATOMS IN LARGEST MIGRATION GROUP
Info: TOTAL MASS = 18035.9 amu
Info: TOTAL CHARGE = -9.99626e-05 e
Info: MASS DENSITY = 0.67845 g/cm^3
Info: ATOM DENSITY = 0.0677091 atoms/A^3
Info: ADDED 0 IMPLICIT EXCLUSIONS
Info: NONBONDED TABLE R-SQUARED SPACING: 0.0625
Info: NONBONDED TABLE SIZE: 705 POINTS
Info: REMOVING COM VELOCITY 0.0217592 0.0606559 0.100677
TCL: Running for 100000 steps
ETITLE: TS BOND ANGLE DIHED IMPRP ELECT VDW BOUNDARY MISC KINETIC TOTAL TEMP POTENTIAL TOTAL3 TEMPAVG PRESSURE GPRESSURE VOLUME PRESSAVG GPRESSAVG
ENERGY: 0 0.1661 0.6987 3.5396 0.0000 -13771.7068 2396.1566 0.0000 0.0000 1827.0000 -9544.1458 306.9231 -11371.1458 -9543.7846 306.9231 478.9382 522.8803 44144.7396 478.9382 522.8803
ENERGY: 100000 0.5450 1.9960 2.3302 0.0000 -14396.2924 2481.2781 0.0000 0.0000 184.9608 -11725.1822 31.0721 -11910.1430 -11724.7300 30.9522 28.2127 86.5972 29039.5763 2.8663 2.8814
TCL: Running 100000 steps at 60 kelvin.
TCL: Setting parameter langevinTemp to 60
TCL: Running for 100000 steps
ETITLE: TS BOND ANGLE DIHED IMPRP ELECT VDW BOUNDARY MISC KINETIC TOTAL TEMP POTENTIAL TOTAL3 TEMPAVG PRESSURE GPRESSURE VOLUME PRESSAVG GPRESSAVG
ENERGY: 100000 0.5450 1.9960 2.3302 0.0000 -14396.2924 2481.2781 0.0000 0.0000 184.8665 -11725.2766 31.0563 -11910.1430 -11724.8368 31.0563 26.9807 86.3315 29039.5763 26.9807 86.3315
ENERGY: 200000 0.7908 2.6520 2.6945 0.0000 -14294.9833 2422.8983 0.0000 0.0000 353.8970 -11512.0506 59.4522 -11865.9476 -11511.5124 60.0065 -159.1166 -98.9137 28870.9879 5.4738 5.4735
TCL: Running 100000 steps at 90 kelvin.
TCL: Setting parameter langevinTemp to 90
TCL: Running for 100000 steps
ETITLE: TS BOND ANGLE DIHED IMPRP ELECT VDW BOUNDARY MISC KINETIC TOTAL TEMP POTENTIAL TOTAL3 TEMPAVG PRESSURE GPRESSURE VOLUME PRESSAVG GPRESSAVG
ENERGY: 200000 0.7908 2.6520 2.6945 0.0000 -14294.9833 2422.8983 0.0000 0.0000 353.7225 -11512.2251 59.4229 -11865.9476 -11511.5003 59.4229 -156.6310 -99.6023 28870.9879 -156.6310 -99.6023
ENERGY: 300000 2.5318 3.4274 2.3144 0.0000 -14161.9507 2415.8783 0.0000 0.0000 527.6657 -11210.1332 88.6441 -11737.7989 -11208.2787 89.9579 338.7436 386.3112 28797.1563 3.5277 3.5357
TCL: Running 100000 steps at 120 kelvin.
TCL: Setting parameter langevinTemp to 120
TCL: Running for 100000 steps
ETITLE: TS BOND ANGLE DIHED IMPRP ELECT VDW BOUNDARY MISC KINETIC TOTAL TEMP POTENTIAL TOTAL3 TEMPAVG PRESSURE GPRESSURE VOLUME PRESSAVG GPRESSAVG
ENERGY: 300000 2.5318 3.4274 2.3144 0.0000 -14161.9507 2415.8783 0.0000 0.0000 527.4000 -11210.3989 88.5995 -11737.7989 -11209.1933 88.5995 344.3927 386.4990 28797.1563 344.3927 386.4990
ENERGY: 400000 2.0241 1.7860 4.1539 0.0000 -13977.9687 2363.2964 0.0000 0.0000 689.1212 -10917.5871 115.7675 -11606.7084 -10917.0575 120.2393 111.2379 167.7914 29183.1244 5.2447 5.2859
TCL: Running 100000 steps at 150 kelvin.
TCL: Setting parameter langevinTemp to 150
TCL: Running for 100000 steps
ETITLE: TS BOND ANGLE DIHED IMPRP ELECT VDW BOUNDARY MISC KINETIC TOTAL TEMP POTENTIAL TOTAL3 TEMPAVG PRESSURE GPRESSURE VOLUME PRESSAVG GPRESSAVG
ENERGY: 400000 2.0241 1.7860 4.1539 0.0000 -13977.9687 2363.2964 0.0000 0.0000 688.7505 -10917.9579 115.7052 -11606.7084 -10916.3891 115.7052 108.6859 166.7692 29183.1244 108.6859 166.7692
ENERGY: 500000 2.3719 8.3358 5.8808 0.0000 -13762.9885 2307.9372 0.0000 0.0000 892.9338 -10545.5289 150.0066 -11438.4627 -10542.3725 150.3968 226.1882 251.7318 29488.3798 2.9152 3.0808
TCL: Running 100000 steps at 180 kelvin.
TCL: Setting parameter langevinTemp to 180
TCL: Running for 100000 steps
ETITLE: TS BOND ANGLE DIHED IMPRP ELECT VDW BOUNDARY MISC KINETIC TOTAL TEMP POTENTIAL TOTAL3 TEMPAVG PRESSURE GPRESSURE VOLUME PRESSAVG GPRESSAVG
ENERGY: 500000 2.3719 8.3358 5.8808 0.0000 -13762.9885 2307.9372 0.0000 0.0000 892.4858 -10545.9769 149.9313 -11438.4627 -10544.0207 149.9313 207.3892 252.6597 29488.3798 207.3892 252.6597
ENERGY: 600000 2.1223 8.4264 3.3783 0.0000 -13343.3586 2171.6343 0.0000 0.0000 1068.8581 -10088.9391 179.5606 -11157.7971 -10087.4004 179.9381 192.3759 219.9936 29515.9195 4.0015 3.9925
TCL: Running 100000 steps at 210 kelvin.
TCL: Setting parameter langevinTemp to 210
TCL: Running for 100000 steps
ETITLE: TS BOND ANGLE DIHED IMPRP ELECT VDW BOUNDARY MISC KINETIC TOTAL TEMP POTENTIAL TOTAL3 TEMPAVG PRESSURE GPRESSURE VOLUME PRESSAVG GPRESSAVG
ENERGY: 600000 2.1223 8.4264 3.3783 0.0000 -13343.3586 2171.6343 0.0000 0.0000 1068.3412 -10089.4559 179.4738 -11157.7971 -10087.6120 179.4738 167.6368 218.2934 29515.9195 167.6368 218.2934
ENERGY: 700000 3.5159 4.9226 7.3609 0.0000 -12430.4116 1774.3191 0.0000 0.0000 1252.2642 -9388.0289 210.3716 -10640.2932 -9384.9719 210.0169 -1049.3334 -981.8915 29235.3378 4.3159 4.3650
TCL: Running 100000 steps at 240 kelvin.
TCL: Setting parameter langevinTemp to 240
TCL: Running for 100000 steps
ETITLE: TS BOND ANGLE DIHED IMPRP ELECT VDW BOUNDARY MISC KINETIC TOTAL TEMP POTENTIAL TOTAL3 TEMPAVG PRESSURE GPRESSURE VOLUME PRESSAVG GPRESSAVG
ENERGY: 700000 3.5159 4.9226 7.3609 0.0000 -12430.4116 1774.3191 0.0000 0.0000 1251.6366 -9388.6566 210.2661 -10640.2932 -9386.3990 210.2661 -1066.7795 -982.0358 29235.3378 -1066.7795 -982.0358
ENERGY: 800000 3.4882 8.3183 7.6737 0.0000 -11934.6535 1697.9736 0.0000 0.0000 1457.4693 -8759.7304 244.8446 -10217.1997 -8759.1526 239.3574 -324.2303 -229.1285 29686.1670 3.6934 3.6096
TCL: Running 100000 steps at 270 kelvin.
TCL: Setting parameter langevinTemp to 270
TCL: Running for 100000 steps
ETITLE: TS BOND ANGLE DIHED IMPRP ELECT VDW BOUNDARY MISC KINETIC TOTAL TEMP POTENTIAL TOTAL3 TEMPAVG PRESSURE GPRESSURE VOLUME PRESSAVG GPRESSAVG
ENERGY: 800000 3.4882 8.3183 7.6737 0.0000 -11934.6535 1697.9736 0.0000 0.0000 1456.7541 -8760.4456 244.7244 -10217.1997 -8758.5480 244.7244 -305.0028 -230.0296 29686.1670 -305.0028 -230.0296
ENERGY: 900000 3.2166 5.8525 5.6522 0.0000 -11214.4731 1433.7893 0.0000 0.0000 1598.5463 -8167.4162 268.5445 -9765.9625 -8163.1388 269.8842 -1359.0260 -1256.9372 30400.8916 3.8547 3.9700
TCL: Running 1000000 steps at 300 kelvin.
TCL: Setting parameter langevinTemp to 300
TCL: Running for 1000000 steps
ETITLE: TS BOND ANGLE DIHED IMPRP ELECT VDW BOUNDARY MISC KINETIC TOTAL TEMP POTENTIAL TOTAL3 TEMPAVG PRESSURE GPRESSURE VOLUME PRESSAVG GPRESSAVG
ENERGY: 900000 3.2166 5.8525 5.6522 0.0000 -11214.4731 1433.7893 0.0000 0.0000 1597.7593 -8168.2032 268.4123 -9765.9625 -8166.4614 268.4123 -1328.6418 -1255.9135 30400.8916 -1328.6418 -1255.9135
ENERGY: 1100000 4.8497 10.1019 8.5973 0.0000 -10833.1685 1421.4086 0.0000 0.0000 1794.7232 -7593.4878 301.5008 -9388.2110 -7590.9957 300.0241 -169.1254 -95.6356 30736.0181 4.2440 4.0466
ENERGY: 1300000 7.1990 5.3364 8.8456 0.0000 -10769.2528 1371.8910 0.0000 0.0000 1795.7054 -7580.2753 301.6659 -9375.9807 -7575.4673 300.0301 -506.2511 -445.2238 30716.0600 2.7304 2.8678
ENERGY: 1500000 3.8501 3.9517 10.1925 0.0000 -10823.8359 1404.1908 0.0000 0.0000 1763.4646 -7638.1861 296.2496 -9401.6507 -7635.0712 300.6223 -510.3890 -378.0818 30808.3546 3.6689 3.7470
ENERGY: 1700000 1.3800 6.5663 6.3097 0.0000 -10839.3748 1476.4452 0.0000 0.0000 1766.7338 -7581.9399 296.7988 -9348.6737 -7578.6278 299.8765 209.5181 274.5891 31234.3624 3.1697 3.2951
ENERGY: 1900000 2.2518 4.5596 6.8712 0.0000 -10766.3703 1426.5141 0.0000 0.0000 1797.2781 -7528.8955 301.9301 -9326.1736 -7523.5328 300.6653 -0.7573 87.8361 30864.5472 4.1801 4.2500
TCL: Exiting due to exit command.
