Info: SIMULATION PARAMETERS:
Info: TIMESTEP               2
Info: NUMBER OF STEPS        0
Info: STEPS PER CYCLE        10
Info: PERIODIC CELL BASIS 1  36.592 0 0
Info: PERIODIC CELL BASIS 2  0 35.267 0
Info: PERIODIC CELL BASIS 3  0 0 34.954
Info: PERIODIC CELL CENTER   0 0 0
Info: WRAPPING WATERS AROUND PERIODIC BOUNDARIES ON OUTPUT.
Info: WRAPPING ALL CLUSTERS AROUND PERIODIC BOUNDARIES ON OUTPUT.
Info: FIRST LDB TIMESTEP     50
Info: LAST LDB TIMESTEP     -1
Info: HOM BACKGROUND SCALING 1
Info: PME BACKGROUND SCALING 1
Info: MIN ATOMS PER PATCH    40
Info: EMPTY PATCH LOAD       40 ATOMS
Info: INITIAL TEMPERATURE    300
Info: CENTER OF MASS MOVING INITIALLY? NO
Info: DIELECTRIC             1
Info: EXCLUDE                SCALED ONE-FOUR
Info: 1-4 ELECTROSTATICS SCALED BY 0.833333
Info: MODIFIED 1-4 VDW PARAMETERS WILL BE USED
Info: DCD FILENAME           mobley_8117218_equil.dcd
Info: DCD FREQUENCY          100000
Info: DCD FIRST STEP         100000
Info: DCD FILE WILL CONTAIN UNIT CELL DATA
Info: XST FILENAME           mobley_8117218_equil.xst
Info: XST FREQUENCY          100000
Info: NO VELOCITY DCD OUTPUT
Info: NO FORCE DCD OUTPUT
Info: OUTPUT FILENAME        mobley_8117218_equil
Info: BINARY OUTPUT FILES WILL BE USED
Info: RESTART FILENAME       mobley_8117218_equil.restart
Info: RESTART FREQUENCY      100000
Info: BINARY RESTART FILES WILL BE USED
Info: CUTOFF                 9
Info: PAIRLIST DISTANCE      11
Info: PAIRLIST SHRINK RATE   0.01
Info: PAIRLIST GROW RATE     0.01
Info: PAIRLIST TRIGGER       0.3
Info: PAIRLISTS PER CYCLE    2
Info: PAIRLISTS ENABLED
Info: MARGIN                 8
Info: HYDROGEN GROUP CUTOFF  2.5
Info: PATCH DIMENSION        21.5
Info: ENERGY OUTPUT STEPS    100000
Info: ENERGY EVALUATION STEPS    100000
Info: OUTPUT ENERGY PRECISION 4
Info: CROSSTERM ENERGY INCLUDED IN DIHEDRAL
Info: TIMING OUTPUT STEPS    1000000
Info: PRESSURE OUTPUT STEPS  100000
Info: LANGEVIN DYNAMICS ACTIVE
Info: LANGEVIN TEMPERATURE   30
Info: LANGEVIN USING BBK INTEGRATOR
Info: LANGEVIN DAMPING COEFFICIENT IS 1 INVERSE PS
Info: LANGEVIN DYNAMICS APPLIED TO HYDROGENS
Info: LANGEVIN PISTON PRESSURE CONTROL ACTIVE
Info:        TARGET PRESSURE IS 1.01325 BAR
Info:     OSCILLATION PERIOD IS 50 FS
Info:             DECAY TIME IS 25 FS
Info:     PISTON TEMPERATURE IS 300 K
Info:       PRESSURE CONTROL IS GROUP-BASED
Info:    INITIAL STRAIN RATE IS 0 0 0
Info:       CELL FLUCTUATION IS ISOTROPIC
Info: PARTICLE MESH EWALD (PME) ACTIVE
Info: PME TOLERANCE               1e-06
Info: PME EWALD COEFFICIENT       0.348832
Info: PME INTERPOLATION ORDER     4
Info: PME GRID DIMENSIONS         40 36 36
Info: PME MAXIMUM GRID SPACING    1
Info: FULL ELECTROSTATIC EVALUATION FREQUENCY      2
Info: USING VERLET I (r-RESPA) MTS SCHEME.
Info: C1 SPLITTING OF LONG RANGE ELECTROSTATICS
Info: PLACING ATOMS IN PATCHES BY HYDROGEN GROUPS
Info: RIGID BONDS TO HYDROGEN : ALL
Info:         ERROR TOLERANCE : 1e-08
Info:          MAX ITERATIONS : 100
Info: RIGID WATER USING SETTLE ALGORITHM
Info: RANDOM NUMBER SEED     1743223149
Info: USE HYDROGEN BONDS?    NO
Info: Using AMBER format force field!
Info: AMBER PARM FILE        mobley_8117218.prmtop
Info: COORDINATE PDB         mobley_8117218.pdb
Info: Exclusions will be read from PARM file!
Info: SCNB (VDW SCALING)     2
Info: USING ARITHMETIC MEAN TO COMBINE L-J SIGMA PARAMETERS
Info: BINARY COORDINATES     mobley_8117218_min.coor
Info: SUMMARY OF PARAMETERS:
Info: 12 BONDS
Info: 19 ANGLES
Info:   19 HARMONIC
Info:   0 COSINE-BASED
Info: 16 DIHEDRAL
Info: 0 IMPROPER
Info: 0 CROSSTERM
Info: 0 VDW
Info: 36 VDW_PAIRS
Info: 0 NBTHOLE_PAIRS
Info: STRUCTURE SUMMARY:
Info: 2976 ATOMS
Info: 2980 BONDS
Info: 67 ANGLES
Info: 180 DIHEDRALS
Info: 0 IMPROPERS
Info: 0 CROSSTERMS
Info: 3138 EXCLUSIONS
Info: 2957 RIGID BONDS
Info: 5971 DEGREES OF FREEDOM
Info: 1002 HYDROGEN GROUPS
Info: 3 ATOMS IN LARGEST HYDROGEN GROUP
Info: 1002 MIGRATION GROUPS
Info: 3 ATOMS IN LARGEST MIGRATION GROUP
Info: TOTAL MASS = 18090.6 amu
Info: TOTAL CHARGE = 9.99887e-05 e
Info: MASS DENSITY = 0.66598 g/cm^3
Info: ATOM DENSITY = 0.0659753 atoms/A^3
Info: ADDED 0 IMPLICIT EXCLUSIONS
Info: NONBONDED TABLE R-SQUARED SPACING: 0.0625
Info: NONBONDED TABLE SIZE: 705 POINTS
Info: REMOVING COM VELOCITY 0.0460582 -0.067231 0.101676
TCL: Running for 100000 steps
ETITLE: TS BOND ANGLE DIHED IMPRP ELECT VDW BOUNDARY MISC KINETIC TOTAL TEMP POTENTIAL TOTAL3 TEMPAVG PRESSURE GPRESSURE VOLUME PRESSAVG GPRESSAVG
ENERGY: 0 10.5759 215.6401 21.9254 0.0000 -13654.3725 2421.8268 0.0000 0.0000 1735.1118 -9249.2925 292.4629 -10984.4043 -9248.9805 292.4629 436.0971 466.9553 45107.7897 436.0971 466.9553
ENERGY: 100000 10.7939 217.1727 22.2011 0.0000 -14246.4118 2471.9247 0.0000 0.0000 180.3080 -11344.0114 30.3919 -11524.3194 -11343.6608 30.8827 -342.2706 -278.2400 29604.5146 3.1407 3.1749
TCL: Running 100000 steps at 60 kelvin.
TCL: Setting parameter langevinTemp to 60
TCL: Running for 100000 steps
ETITLE: TS BOND ANGLE DIHED IMPRP ELECT VDW BOUNDARY MISC KINETIC TOTAL TEMP POTENTIAL TOTAL3 TEMPAVG PRESSURE GPRESSURE VOLUME PRESSAVG GPRESSAVG
ENERGY: 100000 10.7939 217.1727 22.2011 0.0000 -14246.4118 2471.9247 0.0000 0.0000 180.2216 -11344.0978 30.3774 -11524.3194 -11343.7138 30.3774 -339.1339 -278.3207 29604.5146 -339.1339 -278.3207
ENERGY: 200000 12.7468 218.0105 22.3215 0.0000 -14114.6747 2399.3151 0.0000 0.0000 355.6968 -11106.5840 59.9547 -11462.2808 -11105.7284 60.1575 -556.5828 -506.7516 29202.5541 4.4008 4.4280
TCL: Running 100000 steps at 90 kelvin.
TCL: Setting parameter langevinTemp to 90
TCL: Running for 100000 steps
ETITLE: TS BOND ANGLE DIHED IMPRP ELECT VDW BOUNDARY MISC KINETIC TOTAL TEMP POTENTIAL TOTAL3 TEMPAVG PRESSURE GPRESSURE VOLUME PRESSAVG GPRESSAVG
ENERGY: 200000 12.7468 218.0105 22.3215 0.0000 -14114.6747 2399.3151 0.0000 0.0000 355.5214 -11106.7594 59.9251 -11462.2808 -11106.1278 59.9251 -566.3180 -507.1303 29202.5541 -566.3180 -507.1303
ENERGY: 300000 10.7540 218.5195 21.9045 0.0000 -13974.3555 2405.6494 0.0000 0.0000 530.0455 -10787.4825 89.3422 -11317.5281 -10786.5987 89.9264 426.3626 470.8466 28901.0769 4.5792 4.5772
TCL: Running 100000 steps at 120 kelvin.
TCL: Setting parameter langevinTemp to 120
TCL: Running for 100000 steps
ETITLE: TS BOND ANGLE DIHED IMPRP ELECT VDW BOUNDARY MISC KINETIC TOTAL TEMP POTENTIAL TOTAL3 TEMPAVG PRESSURE GPRESSURE VOLUME PRESSAVG GPRESSAVG
ENERGY: 300000 10.7540 218.5195 21.9045 0.0000 -13974.3555 2405.6494 0.0000 0.0000 529.7859 -10787.7422 89.2984 -11317.5281 -10786.5007 89.2984 412.3182 470.5686 28901.0769 412.3182 470.5686
ENERGY: 400000 8.9818 224.1942 22.1362 0.0000 -14013.9131 2520.2987 0.0000 0.0000 708.7618 -10529.5403 119.4658 -11238.3021 -10528.0059 120.1219 1654.3204 1696.3527 28802.9608 4.0361 4.1119
TCL: Running 100000 steps at 150 kelvin.
TCL: Setting parameter langevinTemp to 150
TCL: Running for 100000 steps
ETITLE: TS BOND ANGLE DIHED IMPRP ELECT VDW BOUNDARY MISC KINETIC TOTAL TEMP POTENTIAL TOTAL3 TEMPAVG PRESSURE GPRESSURE VOLUME PRESSAVG GPRESSAVG
ENERGY: 400000 8.9818 224.1942 22.1362 0.0000 -14013.9131 2520.2987 0.0000 0.0000 708.4005 -10529.9016 119.4049 -11238.3021 -10528.5234 119.4049 1657.2972 1695.1383 28802.9608 1657.2972 1695.1383
ENERGY: 500000 14.0522 219.4230 23.4164 0.0000 -13528.9816 2230.6664 0.0000 0.0000 880.1429 -10161.2807 148.3531 -11041.4236 -10159.0945 149.9082 -310.0903 -252.6407 29664.8118 3.6755 3.7099
TCL: Running 100000 steps at 180 kelvin.
TCL: Setting parameter langevinTemp to 180
TCL: Running for 100000 steps
ETITLE: TS BOND ANGLE DIHED IMPRP ELECT VDW BOUNDARY MISC KINETIC TOTAL TEMP POTENTIAL TOTAL3 TEMPAVG PRESSURE GPRESSURE VOLUME PRESSAVG GPRESSAVG
ENERGY: 500000 14.0522 219.4230 23.4164 0.0000 -13528.9816 2230.6664 0.0000 0.0000 879.7143 -10161.7092 148.2808 -11041.4236 -10159.8687 148.2808 -309.0316 -253.6546 29664.8118 -309.0316 -253.6546
ENERGY: 600000 15.5797 219.8303 22.9662 0.0000 -13271.0503 2204.0939 0.0000 0.0000 1105.1802 -9703.4001 186.2844 -10808.5803 -9700.2158 179.9583 224.7490 259.6317 29624.7958 3.6169 3.4836
TCL: Running 100000 steps at 210 kelvin.
TCL: Setting parameter langevinTemp to 210
TCL: Running for 100000 steps
ETITLE: TS BOND ANGLE DIHED IMPRP ELECT VDW BOUNDARY MISC KINETIC TOTAL TEMP POTENTIAL TOTAL3 TEMPAVG PRESSURE GPRESSURE VOLUME PRESSAVG GPRESSAVG
ENERGY: 600000 15.5797 219.8303 22.9662 0.0000 -13271.0503 2204.0939 0.0000 0.0000 1104.6474 -9703.9328 186.1946 -10808.5803 -9701.4240 186.1946 205.3189 259.2312 29624.7958 205.3189 259.2312
ENERGY: 700000 16.8398 223.6447 22.0450 0.0000 -12489.0712 1928.3647 0.0000 0.0000 1229.5364 -9068.6406 207.2453 -10298.1770 -9066.0967 209.7153 -44.0307 48.9093 28952.9106 4.8562 4.7968
TCL: Running 100000 steps at 240 kelvin.
TCL: Setting parameter langevinTemp to 240
TCL: Running for 100000 steps
ETITLE: TS BOND ANGLE DIHED IMPRP ELECT VDW BOUNDARY MISC KINETIC TOTAL TEMP POTENTIAL TOTAL3 TEMPAVG PRESSURE GPRESSURE VOLUME PRESSAVG GPRESSAVG
ENERGY: 700000 16.8398 223.6447 22.0450 0.0000 -12489.0712 1928.3647 0.0000 0.0000 1228.9338 -9069.2433 207.1437 -10298.1770 -9066.6561 207.1437 -42.1088 47.7419 28952.9106 -42.1088 47.7419
ENERGY: 800000 13.4908 228.0770 22.4317 0.0000 -11884.6652 1755.7163 0.0000 0.0000 1429.3484 -8435.6010 240.9248 -9864.9494 -8433.2353 239.5695 370.6051 393.5105 29094.3910 3.3018 3.3655
TCL: Running 100000 steps at 270 kelvin.
TCL: Setting parameter langevinTemp to 270
TCL: Running for 100000 steps
ETITLE: TS BOND ANGLE DIHED IMPRP ELECT VDW BOUNDARY MISC KINETIC TOTAL TEMP POTENTIAL TOTAL3 TEMPAVG PRESSURE GPRESSURE VOLUME PRESSAVG GPRESSAVG
ENERGY: 800000 13.4908 228.0770 22.4317 0.0000 -11884.6652 1755.7163 0.0000 0.0000 1428.6090 -8436.3404 240.8001 -9864.9494 -8434.2174 240.8001 314.8591 392.3078 29094.3910 314.8591 392.3078
ENERGY: 900000 17.9399 227.1991 22.0128 0.0000 -11260.5580 1572.6049 0.0000 0.0000 1547.6016 -7873.1998 260.8570 -9420.8013 -7870.6663 270.1584 37.6646 66.7852 30044.1640 3.0069 3.3678
TCL: Running 1000000 steps at 300 kelvin.
TCL: Setting parameter langevinTemp to 300
TCL: Running for 1000000 steps
ETITLE: TS BOND ANGLE DIHED IMPRP ELECT VDW BOUNDARY MISC KINETIC TOTAL TEMP POTENTIAL TOTAL3 TEMPAVG PRESSURE GPRESSURE VOLUME PRESSAVG GPRESSAVG
ENERGY: 900000 17.9399 227.1991 22.0128 0.0000 -11260.5579 1572.6049 0.0000 0.0000 1546.8090 -7873.9924 260.7234 -9420.8013 -7872.2810 260.7234 -18.0515 65.0463 30044.1640 -18.0515 65.0463
ENERGY: 1100000 16.6810 224.7186 23.3278 0.0000 -10747.1048 1456.8550 0.0000 0.0000 1805.7445 -7219.7778 304.3684 -9025.5223 -7216.1498 299.7965 -53.8697 -1.5442 31327.6124 3.0925 3.0573
ENERGY: 1300000 20.8494 227.2478 22.5407 0.0000 -10798.5110 1454.7987 0.0000 0.0000 1768.9944 -7304.0799 298.1740 -9073.0744 -7300.8595 299.2845 -226.0117 -54.9087 30177.9706 3.5295 3.4121
ENERGY: 1500000 16.5794 226.4350 22.5201 0.0000 -10669.4268 1389.5552 0.0000 0.0000 1762.2354 -7252.1016 297.0347 -9014.3371 -7248.5891 300.7190 -448.4706 -313.4913 31004.1497 2.1832 2.0555
ENERGY: 1700000 19.0288 225.4956 24.0205 0.0000 -10873.7748 1512.8036 0.0000 0.0000 1735.4667 -7356.9596 292.5227 -9092.4263 -7352.3377 300.3887 196.6797 246.1872 30785.3024 1.2916 1.3608
ENERGY: 1900000 19.0286 227.1923 21.5142 0.0000 -10825.3997 1429.7523 0.0000 0.0000 1848.5683 -7279.3440 311.5866 -9127.9123 -7275.8547 300.3514 -427.2280 -416.6415 30704.3304 2.8665 3.1354
TCL: Exiting due to exit command.
