Info: SIMULATION PARAMETERS:
Info: TIMESTEP               2
Info: NUMBER OF STEPS        0
Info: STEPS PER CYCLE        10
Info: PERIODIC CELL BASIS 1  34.986 0 0
Info: PERIODIC CELL BASIS 2  0 34.1 0
Info: PERIODIC CELL BASIS 3  0 0 36.199
Info: PERIODIC CELL CENTER   0 0 0
Info: WRAPPING WATERS AROUND PERIODIC BOUNDARIES ON OUTPUT.
Info: WRAPPING ALL CLUSTERS AROUND PERIODIC BOUNDARIES ON OUTPUT.
Info: FIRST LDB TIMESTEP     50
Info: LAST LDB TIMESTEP     -1
Info: HOM BACKGROUND SCALING 1
Info: PME BACKGROUND SCALING 1
Info: MIN ATOMS PER PATCH    40
Info: EMPTY PATCH LOAD       40 ATOMS
Info: INITIAL TEMPERATURE    300
Info: CENTER OF MASS MOVING INITIALLY? NO
Info: DIELECTRIC             1
Info: EXCLUDE                SCALED ONE-FOUR
Info: 1-4 ELECTROSTATICS SCALED BY 0.833333
Info: MODIFIED 1-4 VDW PARAMETERS WILL BE USED
Info: DCD FILENAME           mobley_2789243_equil.dcd
Info: DCD FREQUENCY          100000
Info: DCD FIRST STEP         100000
Info: DCD FILE WILL CONTAIN UNIT CELL DATA
Info: XST FILENAME           mobley_2789243_equil.xst
Info: XST FREQUENCY          100000
Info: NO VELOCITY DCD OUTPUT
Info: NO FORCE DCD OUTPUT
Info: OUTPUT FILENAME        mobley_2789243_equil
Info: BINARY OUTPUT FILES WILL BE USED
Info: RESTART FILENAME       mobley_2789243_equil.restart
Info: RESTART FREQUENCY      100000
Info: BINARY RESTART FILES WILL BE USED
Info: CUTOFF                 9
Info: PAIRLIST DISTANCE      11
Info: PAIRLIST SHRINK RATE   0.01
Info: PAIRLIST GROW RATE     0.01
Info: PAIRLIST TRIGGER       0.3
Info: PAIRLISTS PER CYCLE    2
Info: PAIRLISTS ENABLED
Info: MARGIN                 8
Info: HYDROGEN GROUP CUTOFF  2.5
Info: PATCH DIMENSION        21.5
Info: ENERGY OUTPUT STEPS    100000
Info: ENERGY EVALUATION STEPS    100000
Info: OUTPUT ENERGY PRECISION 4
Info: CROSSTERM ENERGY INCLUDED IN DIHEDRAL
Info: TIMING OUTPUT STEPS    1000000
Info: PRESSURE OUTPUT STEPS  100000
Info: LANGEVIN DYNAMICS ACTIVE
Info: LANGEVIN TEMPERATURE   30
Info: LANGEVIN USING BBK INTEGRATOR
Info: LANGEVIN DAMPING COEFFICIENT IS 1 INVERSE PS
Info: LANGEVIN DYNAMICS APPLIED TO HYDROGENS
Info: LANGEVIN PISTON PRESSURE CONTROL ACTIVE
Info:        TARGET PRESSURE IS 1.01325 BAR
Info:     OSCILLATION PERIOD IS 50 FS
Info:             DECAY TIME IS 25 FS
Info:     PISTON TEMPERATURE IS 300 K
Info:       PRESSURE CONTROL IS GROUP-BASED
Info:    INITIAL STRAIN RATE IS 0 0 0
Info:       CELL FLUCTUATION IS ISOTROPIC
Info: PARTICLE MESH EWALD (PME) ACTIVE
Info: PME TOLERANCE               1e-06
Info: PME EWALD COEFFICIENT       0.348832
Info: PME INTERPOLATION ORDER     4
Info: PME GRID DIMENSIONS         36 36 40
Info: PME MAXIMUM GRID SPACING    1
Info: FULL ELECTROSTATIC EVALUATION FREQUENCY      2
Info: USING VERLET I (r-RESPA) MTS SCHEME.
Info: C1 SPLITTING OF LONG RANGE ELECTROSTATICS
Info: PLACING ATOMS IN PATCHES BY HYDROGEN GROUPS
Info: RIGID BONDS TO HYDROGEN : ALL
Info:         ERROR TOLERANCE : 1e-08
Info:          MAX ITERATIONS : 100
Info: RIGID WATER USING SETTLE ALGORITHM
Info: RANDOM NUMBER SEED     1743161218
Info: USE HYDROGEN BONDS?    NO
Info: Using AMBER format force field!
Info: AMBER PARM FILE        mobley_2789243.prmtop
Info: COORDINATE PDB         mobley_2789243.pdb
Info: Exclusions will be read from PARM file!
Info: SCNB (VDW SCALING)     2
Info: USING ARITHMETIC MEAN TO COMBINE L-J SIGMA PARAMETERS
Info: BINARY COORDINATES     mobley_2789243_min.coor
Info: SUMMARY OF PARAMETERS:
Info: 7 BONDS
Info: 7 ANGLES
Info:   7 HARMONIC
Info:   0 COSINE-BASED
Info: 3 DIHEDRAL
Info: 0 IMPROPER
Info: 0 CROSSTERM
Info: 0 VDW
Info: 28 VDW_PAIRS
Info: 0 NBTHOLE_PAIRS
Info: STRUCTURE SUMMARY:
Info: 2915 ATOMS
Info: 2915 BONDS
Info: 16 ANGLES
Info: 25 DIHEDRALS
Info: 0 IMPROPERS
Info: 0 CROSSTERMS
Info: 2948 EXCLUSIONS
Info: 2908 RIGID BONDS
Info: 5837 DEGREES OF FREEDOM
Info: 975 HYDROGEN GROUPS
Info: 3 ATOMS IN LARGEST HYDROGEN GROUP
Info: 975 MIGRATION GROUPS
Info: 3 ATOMS IN LARGEST MIGRATION GROUP
Info: TOTAL MASS = 17553 amu
Info: TOTAL CHARGE = 0.000200003 e
Info: MASS DENSITY = 0.674941 g/cm^3
Info: ATOM DENSITY = 0.0674984 atoms/A^3
Info: ADDED 0 IMPLICIT EXCLUSIONS
Info: NONBONDED TABLE R-SQUARED SPACING: 0.0625
Info: NONBONDED TABLE SIZE: 705 POINTS
Info: REMOVING COM VELOCITY -0.0895246 -0.162718 -0.108825
TCL: Running for 100000 steps
ETITLE: TS BOND ANGLE DIHED IMPRP ELECT VDW BOUNDARY MISC KINETIC TOTAL TEMP POTENTIAL TOTAL3 TEMPAVG PRESSURE GPRESSURE VOLUME PRESSAVG GPRESSAVG
ENERGY: 0 0.2482 0.2215 0.0222 0.0000 -13525.2338 2390.5086 0.0000 0.0000 1740.4447 -9393.7886 300.0965 -11134.2333 -9393.4325 300.0965 477.1815 509.7122 43186.2251 477.1815 509.7122
ENERGY: 100000 0.5533 0.3303 0.1687 0.0000 -14153.4122 2534.6913 0.0000 0.0000 171.6439 -11446.0246 29.5957 -11617.6686 -11445.5953 30.9570 577.5408 662.3468 28533.5772 4.9779 4.9927
TCL: Running 100000 steps at 60 kelvin.
TCL: Setting parameter langevinTemp to 60
TCL: Running for 100000 steps
ETITLE: TS BOND ANGLE DIHED IMPRP ELECT VDW BOUNDARY MISC KINETIC TOTAL TEMP POTENTIAL TOTAL3 TEMPAVG PRESSURE GPRESSURE VOLUME PRESSAVG GPRESSAVG
ENERGY: 100000 0.5533 0.3303 0.1687 0.0000 -14153.4122 2534.6913 0.0000 0.0000 171.5584 -11446.1101 29.5810 -11617.6686 -11445.7423 29.5810 598.3488 662.3241 28533.5772 598.3488 662.3241
ENERGY: 200000 0.6507 0.6648 0.2955 0.0000 -13885.8969 2336.2929 0.0000 0.0000 350.9824 -11197.0105 60.5182 -11547.9929 -11196.3384 59.9560 -831.0967 -766.7384 28872.5246 6.5171 6.5969
TCL: Running 100000 steps at 90 kelvin.
TCL: Setting parameter langevinTemp to 90
TCL: Running for 100000 steps
ETITLE: TS BOND ANGLE DIHED IMPRP ELECT VDW BOUNDARY MISC KINETIC TOTAL TEMP POTENTIAL TOTAL3 TEMPAVG PRESSURE GPRESSURE VOLUME PRESSAVG GPRESSAVG
ENERGY: 200000 0.6507 0.6648 0.2955 0.0000 -13885.8969 2336.2929 0.0000 0.0000 350.8103 -11197.1826 60.4885 -11547.9929 -11196.4003 60.4885 -820.6092 -767.0273 28872.5246 -820.6092 -767.0273
ENERGY: 300000 1.0012 0.6371 0.2693 0.0000 -13749.1156 2275.6197 0.0000 0.0000 504.4948 -10967.0934 86.9876 -11471.5883 -10965.8921 90.0031 -960.7570 -877.8338 28619.6755 4.4692 4.3328
TCL: Running 100000 steps at 120 kelvin.
TCL: Setting parameter langevinTemp to 120
TCL: Running for 100000 steps
ETITLE: TS BOND ANGLE DIHED IMPRP ELECT VDW BOUNDARY MISC KINETIC TOTAL TEMP POTENTIAL TOTAL3 TEMPAVG PRESSURE GPRESSURE VOLUME PRESSAVG GPRESSAVG
ENERGY: 300000 1.0012 0.6371 0.2693 0.0000 -13749.1156 2275.6197 0.0000 0.0000 504.2272 -10967.3611 86.9415 -11471.5883 -10966.1149 86.9415 -931.8836 -877.8994 28619.6755 -931.8836 -877.8994
ENERGY: 400000 1.3105 0.6464 1.3525 0.0000 -13491.0260 2162.3132 0.0000 0.0000 708.4096 -10616.9939 122.1476 -11325.4034 -10615.4074 120.0534 -1343.6934 -1277.3967 28762.2420 4.2319 4.1501
TCL: Running 100000 steps at 150 kelvin.
TCL: Setting parameter langevinTemp to 150
TCL: Running for 100000 steps
ETITLE: TS BOND ANGLE DIHED IMPRP ELECT VDW BOUNDARY MISC KINETIC TOTAL TEMP POTENTIAL TOTAL3 TEMPAVG PRESSURE GPRESSURE VOLUME PRESSAVG GPRESSAVG
ENERGY: 400000 1.3105 0.6464 1.3525 0.0000 -13491.0260 2162.3132 0.0000 0.0000 708.0608 -10617.3426 122.0875 -11325.4034 -10615.9337 122.0875 -1322.7608 -1277.1284 28762.2420 -1322.7608 -1277.1284
ENERGY: 500000 1.0048 0.8275 0.9213 0.0000 -13500.7730 2342.7590 0.0000 0.0000 881.5570 -10273.7035 152.0026 -11155.2605 -10272.4547 150.1813 801.5560 823.8907 28805.9162 4.8084 4.7632
TCL: Running 100000 steps at 180 kelvin.
TCL: Setting parameter langevinTemp to 180
TCL: Running for 100000 steps
ETITLE: TS BOND ANGLE DIHED IMPRP ELECT VDW BOUNDARY MISC KINETIC TOTAL TEMP POTENTIAL TOTAL3 TEMPAVG PRESSURE GPRESSURE VOLUME PRESSAVG GPRESSAVG
ENERGY: 500000 1.0048 0.8275 0.9213 0.0000 -13500.7730 2342.7590 0.0000 0.0000 881.1192 -10274.1413 151.9271 -11155.2605 -10272.7627 151.9271 772.8203 822.5512 28805.9162 772.8203 822.5512
ENERGY: 600000 1.1578 1.5523 2.3231 0.0000 -13048.6857 2161.1284 0.0000 0.0000 1025.1869 -9857.3373 176.7680 -10882.5241 -9854.9170 180.1008 469.7372 497.6655 28648.1980 4.6880 4.8596
TCL: Running 100000 steps at 210 kelvin.
TCL: Setting parameter langevinTemp to 210
TCL: Running for 100000 steps
ETITLE: TS BOND ANGLE DIHED IMPRP ELECT VDW BOUNDARY MISC KINETIC TOTAL TEMP POTENTIAL TOTAL3 TEMPAVG PRESSURE GPRESSURE VOLUME PRESSAVG GPRESSAVG
ENERGY: 600000 1.1578 1.5523 2.3231 0.0000 -13048.6857 2161.1284 0.0000 0.0000 1024.6762 -9857.8479 176.6800 -10882.5241 -9856.0804 176.6800 451.9887 497.4686 28648.1980 451.9887 497.4686
ENERGY: 700000 1.0848 1.8777 0.8035 0.0000 -12289.2728 1842.7440 0.0000 0.0000 1214.1132 -9228.6496 209.3437 -10442.7628 -9226.4462 210.1589 -832.1530 -680.6232 28856.6654 1.5696 1.5097
TCL: Running 100000 steps at 240 kelvin.
TCL: Setting parameter langevinTemp to 240
TCL: Running for 100000 steps
ETITLE: TS BOND ANGLE DIHED IMPRP ELECT VDW BOUNDARY MISC KINETIC TOTAL TEMP POTENTIAL TOTAL3 TEMPAVG PRESSURE GPRESSURE VOLUME PRESSAVG GPRESSAVG
ENERGY: 700000 1.0848 1.8777 0.8035 0.0000 -12289.2728 1842.7440 0.0000 0.0000 1213.5244 -9229.2385 209.2422 -10442.7628 -9226.7918 209.2422 -770.5822 -680.5417 28856.6654 -770.5822 -680.5417
ENERGY: 800000 4.8977 3.3799 2.8080 0.0000 -11601.6965 1637.7449 0.0000 0.0000 1353.9938 -8598.8722 233.4626 -9952.8660 -8594.6125 239.8599 -625.7441 -594.0103 28705.6263 3.5533 3.6019
TCL: Running 100000 steps at 270 kelvin.
TCL: Setting parameter langevinTemp to 270
TCL: Running for 100000 steps
ETITLE: TS BOND ANGLE DIHED IMPRP ELECT VDW BOUNDARY MISC KINETIC TOTAL TEMP POTENTIAL TOTAL3 TEMPAVG PRESSURE GPRESSURE VOLUME PRESSAVG GPRESSAVG
ENERGY: 800000 4.8977 3.3799 2.8080 0.0000 -11601.6965 1637.7449 0.0000 0.0000 1353.2442 -8599.6218 233.3334 -9952.8660 -8597.0218 233.3334 -657.8911 -594.3312 28705.6263 -657.8911 -594.3312
ENERGY: 900000 1.8498 1.7511 2.2402 0.0000 -11061.2482 1463.9006 0.0000 0.0000 1614.9802 -7976.5263 278.4633 -9591.5065 -7972.5951 270.3273 -765.4366 -723.4616 29170.5610 3.8578 4.0723
TCL: Running 1000000 steps at 300 kelvin.
TCL: Setting parameter langevinTemp to 300
TCL: Running for 1000000 steps
ETITLE: TS BOND ANGLE DIHED IMPRP ELECT VDW BOUNDARY MISC KINETIC TOTAL TEMP POTENTIAL TOTAL3 TEMPAVG PRESSURE GPRESSURE VOLUME PRESSAVG GPRESSAVG
ENERGY: 900000 1.8498 1.7511 2.2402 0.0000 -11061.2481 1463.9006 0.0000 0.0000 1614.2124 -7977.2940 278.3309 -9591.5065 -7974.7888 278.3309 -805.8886 -724.4613 29170.5610 -805.8886 -724.4613
ENERGY: 1100000 3.5099 1.4097 3.2002 0.0000 -10520.2354 1388.8032 0.0000 0.0000 1706.4934 -7416.8190 294.2424 -9123.3123 -7413.2837 300.3381 -488.7975 -419.8585 30587.1713 4.3994 4.3370
ENERGY: 1300000 3.9350 2.6122 3.5641 0.0000 -10566.3926 1398.9989 0.0000 0.0000 1743.0986 -7414.1838 300.5541 -9157.2824 -7409.7456 298.8378 -368.0514 -226.1906 30591.2664 2.6131 2.6552
ENERGY: 1500000 1.0808 0.9789 1.9096 0.0000 -10435.8932 1351.0316 0.0000 0.0000 1781.8914 -7299.0009 307.2430 -9080.8923 -7297.0020 300.4295 -499.2430 -432.2387 30591.0294 3.0203 2.9875
ENERGY: 1700000 4.2212 2.8027 1.8677 0.0000 -10624.7027 1457.6500 0.0000 0.0000 1695.0230 -7463.1381 292.2647 -9158.1611 -7459.1146 300.6040 232.9871 297.6119 29910.4726 3.6824 3.7884
ENERGY: 1900000 2.1674 2.4038 2.0461 0.0000 -10544.1791 1338.3100 0.0000 0.0000 1760.8056 -7438.4461 303.6072 -9199.2517 -7433.4719 300.6362 -721.5233 -641.7727 29901.8431 2.7648 2.5984
TCL: Exiting due to exit command.
