Info: SIMULATION PARAMETERS:
Info: TIMESTEP               2
Info: NUMBER OF STEPS        0
Info: STEPS PER CYCLE        10
Info: PERIODIC CELL BASIS 1  37.435 0 0
Info: PERIODIC CELL BASIS 2  0 35.779 0
Info: PERIODIC CELL BASIS 3  0 0 33.27
Info: PERIODIC CELL CENTER   0 0 0
Info: WRAPPING WATERS AROUND PERIODIC BOUNDARIES ON OUTPUT.
Info: WRAPPING ALL CLUSTERS AROUND PERIODIC BOUNDARIES ON OUTPUT.
Info: FIRST LDB TIMESTEP     50
Info: LAST LDB TIMESTEP     -1
Info: HOM BACKGROUND SCALING 1
Info: PME BACKGROUND SCALING 1
Info: MIN ATOMS PER PATCH    40
Info: EMPTY PATCH LOAD       40 ATOMS
Info: INITIAL TEMPERATURE    300
Info: CENTER OF MASS MOVING INITIALLY? NO
Info: DIELECTRIC             1
Info: EXCLUDE                SCALED ONE-FOUR
Info: 1-4 ELECTROSTATICS SCALED BY 0.833333
Info: MODIFIED 1-4 VDW PARAMETERS WILL BE USED
Info: DCD FILENAME           mobley_52782_equil.dcd
Info: DCD FREQUENCY          100000
Info: DCD FIRST STEP         100000
Info: DCD FILE WILL CONTAIN UNIT CELL DATA
Info: XST FILENAME           mobley_52782_equil.xst
Info: XST FREQUENCY          100000
Info: NO VELOCITY DCD OUTPUT
Info: NO FORCE DCD OUTPUT
Info: OUTPUT FILENAME        mobley_52782_equil
Info: BINARY OUTPUT FILES WILL BE USED
Info: RESTART FILENAME       mobley_52782_equil.restart
Info: RESTART FREQUENCY      100000
Info: BINARY RESTART FILES WILL BE USED
Info: CUTOFF                 9
Info: PAIRLIST DISTANCE      11
Info: PAIRLIST SHRINK RATE   0.01
Info: PAIRLIST GROW RATE     0.01
Info: PAIRLIST TRIGGER       0.3
Info: PAIRLISTS PER CYCLE    2
Info: PAIRLISTS ENABLED
Info: MARGIN                 8
Info: HYDROGEN GROUP CUTOFF  2.5
Info: PATCH DIMENSION        21.5
Info: ENERGY OUTPUT STEPS    100000
Info: ENERGY EVALUATION STEPS    100000
Info: OUTPUT ENERGY PRECISION 4
Info: CROSSTERM ENERGY INCLUDED IN DIHEDRAL
Info: TIMING OUTPUT STEPS    1000000
Info: PRESSURE OUTPUT STEPS  100000
Info: LANGEVIN DYNAMICS ACTIVE
Info: LANGEVIN TEMPERATURE   30
Info: LANGEVIN USING BBK INTEGRATOR
Info: LANGEVIN DAMPING COEFFICIENT IS 1 INVERSE PS
Info: LANGEVIN DYNAMICS APPLIED TO HYDROGENS
Info: LANGEVIN PISTON PRESSURE CONTROL ACTIVE
Info:        TARGET PRESSURE IS 1.01325 BAR
Info:     OSCILLATION PERIOD IS 50 FS
Info:             DECAY TIME IS 25 FS
Info:     PISTON TEMPERATURE IS 300 K
Info:       PRESSURE CONTROL IS GROUP-BASED
Info:    INITIAL STRAIN RATE IS 0 0 0
Info:       CELL FLUCTUATION IS ISOTROPIC
Info: PARTICLE MESH EWALD (PME) ACTIVE
Info: PME TOLERANCE               1e-06
Info: PME EWALD COEFFICIENT       0.348832
Info: PME INTERPOLATION ORDER     4
Info: PME GRID DIMENSIONS         40 36 36
Info: PME MAXIMUM GRID SPACING    1
Info: FULL ELECTROSTATIC EVALUATION FREQUENCY      2
Info: USING VERLET I (r-RESPA) MTS SCHEME.
Info: C1 SPLITTING OF LONG RANGE ELECTROSTATICS
Info: PLACING ATOMS IN PATCHES BY HYDROGEN GROUPS
Info: RIGID BONDS TO HYDROGEN : ALL
Info:         ERROR TOLERANCE : 1e-08
Info:          MAX ITERATIONS : 100
Info: RIGID WATER USING SETTLE ALGORITHM
Info: RANDOM NUMBER SEED     1743258800
Info: USE HYDROGEN BONDS?    NO
Info: Using AMBER format force field!
Info: AMBER PARM FILE        mobley_52782.prmtop
Info: COORDINATE PDB         mobley_52782.pdb
Info: Exclusions will be read from PARM file!
Info: SCNB (VDW SCALING)     2
Info: USING ARITHMETIC MEAN TO COMBINE L-J SIGMA PARAMETERS
Info: BINARY COORDINATES     mobley_52782_min.coor
Info: SUMMARY OF PARAMETERS:
Info: 7 BONDS
Info: 7 ANGLES
Info: 7 DIHEDRAL
Info: 0 IMPROPER
Info: 0 CROSSTERM
Info: 0 VDW
Info: 28 VDW_PAIRS
Info: 0 NBTHOLE_PAIRS
Info: STRUCTURE SUMMARY:
Info: 2999 ATOMS
Info: 2998 BONDS
Info: 20 ANGLES
Info: 24 DIHEDRALS
Info: 0 IMPROPERS
Info: 0 CROSSTERMS
Info: 3037 EXCLUSIONS
Info: 2989 RIGID BONDS
Info: 6008 DEGREES OF FREEDOM
Info: 1005 HYDROGEN GROUPS
Info: 3 ATOMS IN LARGEST HYDROGEN GROUP
Info: 1005 MIGRATION GROUPS
Info: 3 ATOMS IN LARGEST MIGRATION GROUP
Info: TOTAL MASS = 18078 amu
Info: TOTAL CHARGE = -9.99719e-05 e
Info: MASS DENSITY = 0.673675 g/cm^3
Info: ATOM DENSITY = 0.0673004 atoms/A^3
Info: ADDED 0 IMPLICIT EXCLUSIONS
Info: NONBONDED TABLE R-SQUARED SPACING: 0.0625
Info: NONBONDED TABLE SIZE: 705 POINTS
Info: REMOVING COM VELOCITY -0.0354636 -0.000375033 -0.157908
TCL: Running for 100000 steps
ETITLE: TS BOND ANGLE DIHED IMPRP ELECT VDW BOUNDARY MISC KINETIC TOTAL TEMP POTENTIAL TOTAL3 TEMPAVG PRESSURE GPRESSURE VOLUME PRESSAVG GPRESSAVG
ENERGY: 0 0.2283 1.6404 1.2822 0.0000 -13889.6216 2433.4122 0.0000 0.0000 1811.0958 -9641.9627 303.3904 -11453.0585 -9641.5842 303.3904 413.4605 441.4680 44561.4010 413.4605 441.4680
ENERGY: 100000 0.0944 1.9817 1.4810 0.0000 -14560.8034 2625.3748 0.0000 0.0000 177.8263 -11754.0453 29.7890 -11931.8716 -11753.7380 30.9055 765.9039 854.5144 29892.3941 4.0349 4.0068
TCL: Running 100000 steps at 60 kelvin.
TCL: Setting parameter langevinTemp to 60
TCL: Running for 100000 steps
ETITLE: TS BOND ANGLE DIHED IMPRP ELECT VDW BOUNDARY MISC KINETIC TOTAL TEMP POTENTIAL TOTAL3 TEMPAVG PRESSURE GPRESSURE VOLUME PRESSAVG GPRESSAVG
ENERGY: 100000 0.0944 1.9817 1.4810 0.0000 -14560.8034 2625.3748 0.0000 0.0000 177.7398 -11754.1318 29.7745 -11931.8716 -11753.7361 29.7745 802.1737 854.2633 29892.3941 802.1737 854.2633
ENERGY: 200000 0.3064 1.9821 1.6395 0.0000 -14227.7015 2380.7943 0.0000 0.0000 345.7709 -11497.2083 57.9227 -11842.9792 -11495.8770 59.9806 -946.5029 -917.8914 30167.2212 4.5524 4.6525
TCL: Running 100000 steps at 90 kelvin.
TCL: Setting parameter langevinTemp to 90
TCL: Running for 100000 steps
ETITLE: TS BOND ANGLE DIHED IMPRP ELECT VDW BOUNDARY MISC KINETIC TOTAL TEMP POTENTIAL TOTAL3 TEMPAVG PRESSURE GPRESSURE VOLUME PRESSAVG GPRESSAVG
ENERGY: 200000 0.3064 1.9821 1.6395 0.0000 -14227.7015 2380.7943 0.0000 0.0000 345.5902 -11497.3891 57.8924 -11842.9792 -11496.7774 57.8924 -964.5925 -917.5748 30167.2212 -964.5925 -917.5748
ENERGY: 300000 1.2953 2.1524 1.5764 0.0000 -14237.8667 2457.3573 0.0000 0.0000 545.7283 -11229.7570 91.4191 -11775.4853 -11227.9685 90.1098 209.4595 253.9225 29394.5307 3.5728 3.5130
TCL: Running 100000 steps at 120 kelvin.
TCL: Setting parameter langevinTemp to 120
TCL: Running for 100000 steps
ETITLE: TS BOND ANGLE DIHED IMPRP ELECT VDW BOUNDARY MISC KINETIC TOTAL TEMP POTENTIAL TOTAL3 TEMPAVG PRESSURE GPRESSURE VOLUME PRESSAVG GPRESSAVG
ENERGY: 300000 1.2953 2.1524 1.5764 0.0000 -14237.8667 2457.3573 0.0000 0.0000 545.4594 -11230.0259 91.3741 -11775.4853 -11228.6530 91.3741 198.8428 254.0338 29394.5307 198.8428 254.0338
ENERGY: 400000 2.0266 3.6568 2.3606 0.0000 -14102.4984 2468.5607 0.0000 0.0000 722.8947 -10902.9989 121.0976 -11625.8936 -10901.7173 119.8948 876.3938 911.2614 29484.7004 2.8660 2.9941
TCL: Running 100000 steps at 150 kelvin.
TCL: Setting parameter langevinTemp to 150
TCL: Running for 100000 steps
ETITLE: TS BOND ANGLE DIHED IMPRP ELECT VDW BOUNDARY MISC KINETIC TOTAL TEMP POTENTIAL TOTAL3 TEMPAVG PRESSURE GPRESSURE VOLUME PRESSAVG GPRESSAVG
ENERGY: 400000 2.0266 3.6568 2.3606 0.0000 -14102.4984 2468.5607 0.0000 0.0000 722.5358 -10903.3579 121.0375 -11625.8936 -10901.9822 121.0375 870.3041 910.6807 29484.7004 870.3041 910.6807
ENERGY: 500000 1.0202 2.8956 2.9059 0.0000 -13769.4998 2313.4389 0.0000 0.0000 909.6363 -10539.6028 152.3801 -11449.2391 -10536.8194 150.3109 341.5826 444.8698 29233.4086 2.5884 2.5137
TCL: Running 100000 steps at 180 kelvin.
TCL: Setting parameter langevinTemp to 180
TCL: Running for 100000 steps
ETITLE: TS BOND ANGLE DIHED IMPRP ELECT VDW BOUNDARY MISC KINETIC TOTAL TEMP POTENTIAL TOTAL3 TEMPAVG PRESSURE GPRESSURE VOLUME PRESSAVG GPRESSAVG
ENERGY: 500000 1.0202 2.8956 2.9059 0.0000 -13769.4998 2313.4389 0.0000 0.0000 909.1875 -10540.0516 152.3049 -11449.2391 -10538.1427 152.3049 401.0275 445.2223 29233.4086 401.0275 445.2223
ENERGY: 600000 1.5785 4.2780 4.1365 0.0000 -13348.7789 2188.5655 0.0000 0.0000 1087.9225 -10062.2978 182.2462 -11150.2203 -10059.2097 179.9398 547.2980 578.5894 29247.3567 5.2048 5.1542
TCL: Running 100000 steps at 210 kelvin.
TCL: Setting parameter langevinTemp to 210
TCL: Running for 100000 steps
ETITLE: TS BOND ANGLE DIHED IMPRP ELECT VDW BOUNDARY MISC KINETIC TOTAL TEMP POTENTIAL TOTAL3 TEMPAVG PRESSURE GPRESSURE VOLUME PRESSAVG GPRESSAVG
ENERGY: 600000 1.5785 4.2780 4.1365 0.0000 -13348.7789 2188.5655 0.0000 0.0000 1087.3910 -10062.8293 182.1571 -11150.2203 -10060.8731 182.1571 527.1221 580.5424 29247.3567 527.1221 580.5424
ENERGY: 700000 2.9241 2.6239 1.8953 0.0000 -12758.0494 2043.1709 0.0000 0.0000 1222.5839 -9484.8512 204.8043 -10707.4351 -9481.5389 210.2766 834.9073 943.2050 29340.9709 3.8573 3.9692
TCL: Running 100000 steps at 240 kelvin.
TCL: Setting parameter langevinTemp to 240
TCL: Running for 100000 steps
ETITLE: TS BOND ANGLE DIHED IMPRP ELECT VDW BOUNDARY MISC KINETIC TOTAL TEMP POTENTIAL TOTAL3 TEMPAVG PRESSURE GPRESSURE VOLUME PRESSAVG GPRESSAVG
ENERGY: 700000 2.9241 2.6239 1.8953 0.0000 -12758.0494 2043.1709 0.0000 0.0000 1221.9379 -9485.4972 204.6961 -10707.4351 -9483.6898 204.6961 875.5183 944.4830 29340.9709 875.5183 944.4830
ENERGY: 800000 2.7586 2.9325 3.3103 0.0000 -11967.4853 1715.7183 0.0000 0.0000 1400.9940 -8841.7716 234.6912 -10242.7656 -8837.3899 239.9431 -409.0969 -323.6582 29720.9317 3.5524 3.5756
TCL: Running 100000 steps at 270 kelvin.
TCL: Setting parameter langevinTemp to 270
TCL: Running for 100000 steps
ETITLE: TS BOND ANGLE DIHED IMPRP ELECT VDW BOUNDARY MISC KINETIC TOTAL TEMP POTENTIAL TOTAL3 TEMPAVG PRESSURE GPRESSURE VOLUME PRESSAVG GPRESSAVG
ENERGY: 800000 2.7586 2.9325 3.3103 0.0000 -11967.4853 1715.7183 0.0000 0.0000 1400.2872 -8842.4784 234.5728 -10242.7656 -8839.8949 234.5728 -404.5011 -323.1944 29720.9317 -404.5011 -323.1944
ENERGY: 900000 1.4852 7.5780 5.0619 0.0000 -11305.4148 1525.5924 0.0000 0.0000 1625.9707 -8139.7266 272.3787 -9765.6973 -8138.2055 269.8416 -248.1169 -149.2333 29829.5543 2.6049 2.6179
TCL: Running 1000000 steps at 300 kelvin.
TCL: Setting parameter langevinTemp to 300
TCL: Running for 1000000 steps
ETITLE: TS BOND ANGLE DIHED IMPRP ELECT VDW BOUNDARY MISC KINETIC TOTAL TEMP POTENTIAL TOTAL3 TEMPAVG PRESSURE GPRESSURE VOLUME PRESSAVG GPRESSAVG
ENERGY: 900000 1.4852 7.5780 5.0619 0.0000 -11305.4148 1525.5924 0.0000 0.0000 1625.2199 -8140.4774 272.2530 -9765.6973 -8137.9451 272.2530 -240.6949 -149.8420 29829.5543 -240.6949 -149.8420
ENERGY: 1100000 4.6802 9.6316 4.5544 0.0000 -10768.2491 1439.3801 0.0000 0.0000 1830.6963 -7479.3064 306.6739 -9310.0027 -7475.3706 300.4973 220.0105 263.4625 30985.0870 2.5266 2.4562
ENERGY: 1300000 3.0417 5.1207 4.6956 0.0000 -10869.5822 1495.2438 0.0000 0.0000 1805.8297 -7555.6507 302.5083 -9361.4804 -7549.9799 300.6683 188.1832 301.6981 31061.7169 0.9589 0.7063
ENERGY: 1500000 2.7920 5.6178 4.2869 0.0000 -11014.1135 1547.7398 0.0000 0.0000 1821.1727 -7632.5043 305.0785 -9453.6770 -7629.3410 300.3641 976.8712 1069.9699 30385.3345 1.9649 2.2317
ENERGY: 1700000 4.0387 4.0229 1.5190 0.0000 -10798.3535 1404.2888 0.0000 0.0000 1806.5967 -7577.8873 302.6368 -9384.4840 -7573.3936 300.0977 -31.4045 18.9734 30623.9173 2.6561 2.7657
ENERGY: 1900000 0.2838 6.3258 4.3221 0.0000 -10775.2628 1448.4041 0.0000 0.0000 1814.1031 -7501.8239 303.8942 -9315.9270 -7498.6555 299.6702 434.8091 495.6800 30754.6115 3.7124 3.5316
TCL: Exiting due to exit command.
