Info: SIMULATION PARAMETERS:
Info: TIMESTEP               2
Info: NUMBER OF STEPS        0
Info: STEPS PER CYCLE        10
Info: PERIODIC CELL BASIS 1  37.38 0 0
Info: PERIODIC CELL BASIS 2  0 32.158 0
Info: PERIODIC CELL BASIS 3  0 0 36.199
Info: PERIODIC CELL CENTER   0 0 0
Info: WRAPPING WATERS AROUND PERIODIC BOUNDARIES ON OUTPUT.
Info: WRAPPING ALL CLUSTERS AROUND PERIODIC BOUNDARIES ON OUTPUT.
Info: FIRST LDB TIMESTEP     50
Info: LAST LDB TIMESTEP     -1
Info: HOM BACKGROUND SCALING 1
Info: PME BACKGROUND SCALING 1
Info: MIN ATOMS PER PATCH    40
Info: EMPTY PATCH LOAD       40 ATOMS
Info: INITIAL TEMPERATURE    300
Info: CENTER OF MASS MOVING INITIALLY? NO
Info: DIELECTRIC             1
Info: EXCLUDE                SCALED ONE-FOUR
Info: 1-4 ELECTROSTATICS SCALED BY 0.833333
Info: MODIFIED 1-4 VDW PARAMETERS WILL BE USED
Info: DCD FILENAME           mobley_2607611_equil.dcd
Info: DCD FREQUENCY          100000
Info: DCD FIRST STEP         100000
Info: DCD FILE WILL CONTAIN UNIT CELL DATA
Info: XST FILENAME           mobley_2607611_equil.xst
Info: XST FREQUENCY          100000
Info: NO VELOCITY DCD OUTPUT
Info: NO FORCE DCD OUTPUT
Info: OUTPUT FILENAME        mobley_2607611_equil
Info: BINARY OUTPUT FILES WILL BE USED
Info: RESTART FILENAME       mobley_2607611_equil.restart
Info: RESTART FREQUENCY      100000
Info: BINARY RESTART FILES WILL BE USED
Info: CUTOFF                 9
Info: PAIRLIST DISTANCE      11
Info: PAIRLIST SHRINK RATE   0.01
Info: PAIRLIST GROW RATE     0.01
Info: PAIRLIST TRIGGER       0.3
Info: PAIRLISTS PER CYCLE    2
Info: PAIRLISTS ENABLED
Info: MARGIN                 8
Info: HYDROGEN GROUP CUTOFF  2.5
Info: PATCH DIMENSION        21.5
Info: ENERGY OUTPUT STEPS    100000
Info: ENERGY EVALUATION STEPS    100000
Info: OUTPUT ENERGY PRECISION 4
Info: CROSSTERM ENERGY INCLUDED IN DIHEDRAL
Info: TIMING OUTPUT STEPS    1000000
Info: PRESSURE OUTPUT STEPS  100000
Info: LANGEVIN DYNAMICS ACTIVE
Info: LANGEVIN TEMPERATURE   30
Info: LANGEVIN USING BBK INTEGRATOR
Info: LANGEVIN DAMPING COEFFICIENT IS 1 INVERSE PS
Info: LANGEVIN DYNAMICS APPLIED TO HYDROGENS
Info: LANGEVIN PISTON PRESSURE CONTROL ACTIVE
Info:        TARGET PRESSURE IS 1.01325 BAR
Info:     OSCILLATION PERIOD IS 50 FS
Info:             DECAY TIME IS 25 FS
Info:     PISTON TEMPERATURE IS 300 K
Info:       PRESSURE CONTROL IS GROUP-BASED
Info:    INITIAL STRAIN RATE IS 0 0 0
Info:       CELL FLUCTUATION IS ISOTROPIC
Info: PARTICLE MESH EWALD (PME) ACTIVE
Info: PME TOLERANCE               1e-06
Info: PME EWALD COEFFICIENT       0.348832
Info: PME INTERPOLATION ORDER     4
Info: PME GRID DIMENSIONS         40 36 40
Info: PME MAXIMUM GRID SPACING    1
Info: FULL ELECTROSTATIC EVALUATION FREQUENCY      2
Info: USING VERLET I (r-RESPA) MTS SCHEME.
Info: C1 SPLITTING OF LONG RANGE ELECTROSTATICS
Info: PLACING ATOMS IN PATCHES BY HYDROGEN GROUPS
Info: RIGID BONDS TO HYDROGEN : ALL
Info:         ERROR TOLERANCE : 1e-08
Info:          MAX ITERATIONS : 100
Info: RIGID WATER USING SETTLE ALGORITHM
Info: RANDOM NUMBER SEED     1743259672
Info: USE HYDROGEN BONDS?    NO
Info: Using AMBER format force field!
Info: AMBER PARM FILE        mobley_2607611.prmtop
Info: COORDINATE PDB         mobley_2607611.pdb
Info: Exclusions will be read from PARM file!
Info: SCNB (VDW SCALING)     2
Info: USING ARITHMETIC MEAN TO COMBINE L-J SIGMA PARAMETERS
Info: BINARY COORDINATES     mobley_2607611_min.coor
Info: SUMMARY OF PARAMETERS:
Info: 9 BONDS
Info: 12 ANGLES
Info:   12 HARMONIC
Info:   0 COSINE-BASED
Info: 20 DIHEDRAL
Info: 0 IMPROPER
Info: 0 CROSSTERM
Info: 0 VDW
Info: 36 VDW_PAIRS
Info: 0 NBTHOLE_PAIRS
Info: STRUCTURE SUMMARY:
Info: 2939 ATOMS
Info: 2938 BONDS
Info: 46 ANGLES
Info: 75 DIHEDRALS
Info: 0 IMPROPERS
Info: 0 CROSSTERMS
Info: 3040 EXCLUSIONS
Info: 2929 RIGID BONDS
Info: 5888 DEGREES OF FREEDOM
Info: 981 HYDROGEN GROUPS
Info: 4 ATOMS IN LARGEST HYDROGEN GROUP
Info: 981 MIGRATION GROUPS
Info: 4 ATOMS IN LARGEST MIGRATION GROUP
Info: TOTAL MASS = 17637.7 amu
Info: TOTAL CHARGE = -0.000200011 e
Info: MASS DENSITY = 0.673097 g/cm^3
Info: ATOM DENSITY = 0.0675421 atoms/A^3
Info: ADDED 0 IMPLICIT EXCLUSIONS
Info: NONBONDED TABLE R-SQUARED SPACING: 0.0625
Info: NONBONDED TABLE SIZE: 705 POINTS
Info: REMOVING COM VELOCITY -0.0370296 0.0422761 -0.108111
TCL: Running for 100000 steps
ETITLE: TS BOND ANGLE DIHED IMPRP ELECT VDW BOUNDARY MISC KINETIC TOTAL TEMP POTENTIAL TOTAL3 TEMPAVG PRESSURE GPRESSURE VOLUME PRESSAVG GPRESSAVG
ENERGY: 0 0.1246 0.4906 6.2089 0.0000 -13496.7910 2363.2789 0.0000 0.0000 1780.8233 -9345.8646 304.3991 -11126.6879 -9345.5014 304.3991 438.2377 472.0368 43513.5886 438.2377 472.0368
ENERGY: 100000 0.9096 1.4357 6.4168 0.0000 -14049.4458 2392.0519 0.0000 0.0000 179.0580 -11469.5738 30.6067 -11648.6318 -11468.7146 30.9628 -554.5083 -476.9329 28571.3654 4.2824 4.2505
TCL: Running 100000 steps at 60 kelvin.
TCL: Setting parameter langevinTemp to 60
TCL: Running for 100000 steps
ETITLE: TS BOND ANGLE DIHED IMPRP ELECT VDW BOUNDARY MISC KINETIC TOTAL TEMP POTENTIAL TOTAL3 TEMPAVG PRESSURE GPRESSURE VOLUME PRESSAVG GPRESSAVG
ENERGY: 100000 0.9096 1.4357 6.4168 0.0000 -14049.4458 2392.0519 0.0000 0.0000 178.9694 -11469.6624 30.5915 -11648.6318 -11469.2773 30.5915 -540.7632 -476.6204 28571.3654 -540.7632 -476.6204
ENERGY: 200000 0.3478 2.7274 7.1601 0.0000 -13919.4012 2295.3993 0.0000 0.0000 350.0547 -11263.7119 59.8354 -11613.7667 -11262.4361 59.9990 -1132.3644 -1078.4418 28611.2006 4.2469 4.2236
TCL: Running 100000 steps at 90 kelvin.
TCL: Setting parameter langevinTemp to 90
TCL: Running for 100000 steps
ETITLE: TS BOND ANGLE DIHED IMPRP ELECT VDW BOUNDARY MISC KINETIC TOTAL TEMP POTENTIAL TOTAL3 TEMPAVG PRESSURE GPRESSURE VOLUME PRESSAVG GPRESSAVG
ENERGY: 200000 0.3478 2.7274 7.1601 0.0000 -13919.4012 2295.3993 0.0000 0.0000 349.8781 -11263.8886 59.8052 -11613.7667 -11263.0403 59.8052 -1127.3472 -1078.6344 28611.2006 -1127.3472 -1078.6344
ENERGY: 300000 0.8906 3.7244 8.0218 0.0000 -13858.9010 2319.7565 0.0000 0.0000 525.7128 -11000.7948 89.8610 -11526.5077 -10999.3651 89.8031 -290.7783 -242.6721 28185.0031 3.1016 3.1077
TCL: Running 100000 steps at 120 kelvin.
TCL: Setting parameter langevinTemp to 120
TCL: Running for 100000 steps
ETITLE: TS BOND ANGLE DIHED IMPRP ELECT VDW BOUNDARY MISC KINETIC TOTAL TEMP POTENTIAL TOTAL3 TEMPAVG PRESSURE GPRESSURE VOLUME PRESSAVG GPRESSAVG
ENERGY: 300000 0.8906 3.7244 8.0218 0.0000 -13858.9010 2319.7565 0.0000 0.0000 525.4504 -11001.0573 89.8161 -11526.5077 -10999.9809 89.8161 -301.9793 -242.3983 28185.0031 -301.9793 -242.3983
ENERGY: 400000 0.8153 7.2366 7.6715 0.0000 -13812.3973 2397.1946 0.0000 0.0000 684.3915 -10715.0877 116.9842 -11399.4792 -10713.9821 120.1385 732.4741 737.4874 28322.4665 4.2287 4.0908
TCL: Running 100000 steps at 150 kelvin.
TCL: Setting parameter langevinTemp to 150
TCL: Running for 100000 steps
ETITLE: TS BOND ANGLE DIHED IMPRP ELECT VDW BOUNDARY MISC KINETIC TOTAL TEMP POTENTIAL TOTAL3 TEMPAVG PRESSURE GPRESSURE VOLUME PRESSAVG GPRESSAVG
ENERGY: 400000 0.8153 7.2366 7.6715 0.0000 -13812.3973 2397.1946 0.0000 0.0000 684.0474 -10715.4319 116.9254 -11399.4792 -10714.0255 116.9254 687.9927 737.7652 28322.4665 687.9927 737.7652
ENERGY: 500000 2.3921 6.6841 7.0954 0.0000 -13363.4564 2187.9183 0.0000 0.0000 876.8463 -10282.5202 149.8808 -11159.3665 -10280.3980 150.1328 -187.8950 -160.7890 28644.9620 3.9334 3.9566
TCL: Running 100000 steps at 180 kelvin.
TCL: Setting parameter langevinTemp to 180
TCL: Running for 100000 steps
ETITLE: TS BOND ANGLE DIHED IMPRP ELECT VDW BOUNDARY MISC KINETIC TOTAL TEMP POTENTIAL TOTAL3 TEMPAVG PRESSURE GPRESSURE VOLUME PRESSAVG GPRESSAVG
ENERGY: 500000 2.3921 6.6841 7.0954 0.0000 -13363.4564 2187.9183 0.0000 0.0000 876.4241 -10282.9424 149.8086 -11159.3665 -10281.2084 149.8086 -222.1442 -162.3003 28644.9620 -222.1442 -162.3003
ENERGY: 600000 2.3999 6.3319 6.0400 0.0000 -12908.4995 2010.3589 0.0000 0.0000 1041.3774 -9841.9914 178.0044 -10883.3688 -9837.0938 179.9194 -826.0780 -722.2730 28952.3264 2.9253 2.9345
TCL: Running 100000 steps at 210 kelvin.
TCL: Setting parameter langevinTemp to 210
TCL: Running for 100000 steps
ETITLE: TS BOND ANGLE DIHED IMPRP ELECT VDW BOUNDARY MISC KINETIC TOTAL TEMP POTENTIAL TOTAL3 TEMPAVG PRESSURE GPRESSURE VOLUME PRESSAVG GPRESSAVG
ENERGY: 600000 2.3999 6.3319 6.0400 0.0000 -12908.4995 2010.3589 0.0000 0.0000 1040.8340 -9842.5349 177.9115 -10883.3688 -9840.7197 177.9115 -796.5846 -719.9274 28952.3264 -796.5846 -719.9274
ENERGY: 700000 1.0335 7.7844 8.6733 0.0000 -12381.1172 1828.8971 0.0000 0.0000 1211.6584 -9323.0705 207.1108 -10534.7289 -9319.7795 209.7736 -828.9111 -706.6521 28759.6777 2.3383 2.5673
TCL: Running 100000 steps at 240 kelvin.
TCL: Setting parameter langevinTemp to 240
TCL: Running for 100000 steps
ETITLE: TS BOND ANGLE DIHED IMPRP ELECT VDW BOUNDARY MISC KINETIC TOTAL TEMP POTENTIAL TOTAL3 TEMPAVG PRESSURE GPRESSURE VOLUME PRESSAVG GPRESSAVG
ENERGY: 700000 1.0335 7.7844 8.6733 0.0000 -12381.1172 1828.8971 0.0000 0.0000 1211.0267 -9323.7022 207.0028 -10534.7289 -9321.4180 207.0028 -794.7466 -707.2880 28759.6777 -794.7466 -707.2880
ENERGY: 800000 2.2791 7.7561 5.9937 0.0000 -11784.9912 1708.9753 0.0000 0.0000 1411.0114 -8648.9757 241.1866 -10059.9871 -8645.4598 240.4244 -122.1906 -54.2688 28962.4353 4.2024 4.2015
TCL: Running 100000 steps at 270 kelvin.
TCL: Setting parameter langevinTemp to 270
TCL: Running for 100000 steps
ETITLE: TS BOND ANGLE DIHED IMPRP ELECT VDW BOUNDARY MISC KINETIC TOTAL TEMP POTENTIAL TOTAL3 TEMPAVG PRESSURE GPRESSURE VOLUME PRESSAVG GPRESSAVG
ENERGY: 800000 2.2791 7.7561 5.9937 0.0000 -11784.9912 1708.9753 0.0000 0.0000 1410.2980 -8649.6891 241.0646 -10059.9871 -8647.0137 241.0646 -135.1956 -52.5046 28962.4353 -135.1956 -52.5046
ENERGY: 900000 0.5899 16.9134 8.5544 0.0000 -11226.9811 1610.9160 0.0000 0.0000 1570.3326 -8019.6748 268.4196 -9590.0074 -8017.1754 270.0373 548.5157 664.3924 29350.3373 3.1217 3.1540
TCL: Running 1000000 steps at 300 kelvin.
TCL: Setting parameter langevinTemp to 300
TCL: Running for 1000000 steps
ETITLE: TS BOND ANGLE DIHED IMPRP ELECT VDW BOUNDARY MISC KINETIC TOTAL TEMP POTENTIAL TOTAL3 TEMPAVG PRESSURE GPRESSURE VOLUME PRESSAVG GPRESSAVG
ENERGY: 900000 0.5899 16.9134 8.5544 0.0000 -11226.9811 1610.9160 0.0000 0.0000 1569.5416 -8020.4658 268.2844 -9590.0074 -8018.7690 268.2844 587.4804 665.3447 29350.3373 587.4804 665.3447
ENERGY: 1100000 1.7203 9.1899 8.5803 0.0000 -10780.2318 1507.7951 0.0000 0.0000 1757.1343 -7495.8120 300.3499 -9252.9463 -7492.0036 301.1601 383.0719 478.3019 30219.0914 2.5948 2.5334
ENERGY: 1300000 2.8568 13.0605 7.9040 0.0000 -10542.3024 1321.8334 0.0000 0.0000 1750.0017 -7446.6459 299.1307 -9196.6476 -7441.8509 299.5938 -919.1090 -794.4802 30094.7659 3.2324 3.3407
ENERGY: 1500000 1.2626 12.4026 6.5723 0.0000 -10589.5351 1340.6993 0.0000 0.0000 1755.9003 -7472.6980 300.1390 -9228.5983 -7469.9929 299.9250 -705.7854 -589.2773 30340.6280 3.7564 3.6250
ENERGY: 1700000 3.1391 14.4208 7.8098 0.0000 -10588.0399 1407.7694 0.0000 0.0000 1711.6157 -7443.2851 292.5694 -9154.9008 -7440.1639 300.5183 -60.7187 85.6354 30315.5761 2.7533 2.7067
ENERGY: 1900000 1.7294 14.8499 8.7280 0.0000 -10715.7941 1493.5174 0.0000 0.0000 1735.6298 -7461.3397 296.6741 -9196.9694 -7459.0004 300.3451 481.8750 539.9472 30320.8494 2.1770 2.0993
TCL: Exiting due to exit command.
