Info: SIMULATION PARAMETERS:
Info: TIMESTEP               2
Info: NUMBER OF STEPS        0
Info: STEPS PER CYCLE        10
Info: PERIODIC CELL BASIS 1  34.986 0 0
Info: PERIODIC CELL BASIS 2  0 33.542 0
Info: PERIODIC CELL BASIS 3  0 0 37.451
Info: PERIODIC CELL CENTER   0 0 0
Info: WRAPPING WATERS AROUND PERIODIC BOUNDARIES ON OUTPUT.
Info: WRAPPING ALL CLUSTERS AROUND PERIODIC BOUNDARIES ON OUTPUT.
Info: FIRST LDB TIMESTEP     50
Info: LAST LDB TIMESTEP     -1
Info: HOM BACKGROUND SCALING 1
Info: PME BACKGROUND SCALING 1
Info: MIN ATOMS PER PATCH    40
Info: EMPTY PATCH LOAD       40 ATOMS
Info: INITIAL TEMPERATURE    300
Info: CENTER OF MASS MOVING INITIALLY? NO
Info: DIELECTRIC             1
Info: EXCLUDE                SCALED ONE-FOUR
Info: 1-4 ELECTROSTATICS SCALED BY 0.833333
Info: MODIFIED 1-4 VDW PARAMETERS WILL BE USED
Info: DCD FILENAME           mobley_2126135_equil.dcd
Info: DCD FREQUENCY          100000
Info: DCD FIRST STEP         100000
Info: DCD FILE WILL CONTAIN UNIT CELL DATA
Info: XST FILENAME           mobley_2126135_equil.xst
Info: XST FREQUENCY          100000
Info: NO VELOCITY DCD OUTPUT
Info: NO FORCE DCD OUTPUT
Info: OUTPUT FILENAME        mobley_2126135_equil
Info: BINARY OUTPUT FILES WILL BE USED
Info: RESTART FILENAME       mobley_2126135_equil.restart
Info: RESTART FREQUENCY      100000
Info: BINARY RESTART FILES WILL BE USED
Info: CUTOFF                 9
Info: PAIRLIST DISTANCE      11
Info: PAIRLIST SHRINK RATE   0.01
Info: PAIRLIST GROW RATE     0.01
Info: PAIRLIST TRIGGER       0.3
Info: PAIRLISTS PER CYCLE    2
Info: PAIRLISTS ENABLED
Info: MARGIN                 8
Info: HYDROGEN GROUP CUTOFF  2.5
Info: PATCH DIMENSION        21.5
Info: ENERGY OUTPUT STEPS    100000
Info: ENERGY EVALUATION STEPS    100000
Info: OUTPUT ENERGY PRECISION 4
Info: CROSSTERM ENERGY INCLUDED IN DIHEDRAL
Info: TIMING OUTPUT STEPS    1000000
Info: PRESSURE OUTPUT STEPS  100000
Info: LANGEVIN DYNAMICS ACTIVE
Info: LANGEVIN TEMPERATURE   30
Info: LANGEVIN USING BBK INTEGRATOR
Info: LANGEVIN DAMPING COEFFICIENT IS 1 INVERSE PS
Info: LANGEVIN DYNAMICS APPLIED TO HYDROGENS
Info: LANGEVIN PISTON PRESSURE CONTROL ACTIVE
Info:        TARGET PRESSURE IS 1.01325 BAR
Info:     OSCILLATION PERIOD IS 50 FS
Info:             DECAY TIME IS 25 FS
Info:     PISTON TEMPERATURE IS 300 K
Info:       PRESSURE CONTROL IS GROUP-BASED
Info:    INITIAL STRAIN RATE IS 0 0 0
Info:       CELL FLUCTUATION IS ISOTROPIC
Info: PARTICLE MESH EWALD (PME) ACTIVE
Info: PME TOLERANCE               1e-06
Info: PME EWALD COEFFICIENT       0.348832
Info: PME INTERPOLATION ORDER     4
Info: PME GRID DIMENSIONS         36 36 40
Info: PME MAXIMUM GRID SPACING    1
Info: FULL ELECTROSTATIC EVALUATION FREQUENCY      2
Info: USING VERLET I (r-RESPA) MTS SCHEME.
Info: C1 SPLITTING OF LONG RANGE ELECTROSTATICS
Info: PLACING ATOMS IN PATCHES BY HYDROGEN GROUPS
Info: RIGID BONDS TO HYDROGEN : ALL
Info:         ERROR TOLERANCE : 1e-08
Info:          MAX ITERATIONS : 100
Info: RIGID WATER USING SETTLE ALGORITHM
Info: RANDOM NUMBER SEED     1743232744
Info: USE HYDROGEN BONDS?    NO
Info: Using AMBER format force field!
Info: AMBER PARM FILE        mobley_2126135.prmtop
Info: COORDINATE PDB         mobley_2126135.pdb
Info: Exclusions will be read from PARM file!
Info: SCNB (VDW SCALING)     2
Info: USING ARITHMETIC MEAN TO COMBINE L-J SIGMA PARAMETERS
Info: BINARY COORDINATES     mobley_2126135_min.coor
Info: SUMMARY OF PARAMETERS:
Info: 9 BONDS
Info: 9 ANGLES
Info:   9 HARMONIC
Info:   0 COSINE-BASED
Info: 6 DIHEDRAL
Info: 0 IMPROPER
Info: 0 CROSSTERM
Info: 0 VDW
Info: 28 VDW_PAIRS
Info: 0 NBTHOLE_PAIRS
Info: STRUCTURE SUMMARY:
Info: 2989 ATOMS
Info: 2989 BONDS
Info: 31 ANGLES
Info: 47 DIHEDRALS
Info: 0 IMPROPERS
Info: 0 CROSSTERMS
Info: 3058 EXCLUSIONS
Info: 2980 RIGID BONDS
Info: 5987 DEGREES OF FREEDOM
Info: 999 HYDROGEN GROUPS
Info: 4 ATOMS IN LARGEST HYDROGEN GROUP
Info: 999 MIGRATION GROUPS
Info: 4 ATOMS IN LARGEST MIGRATION GROUP
Info: TOTAL MASS = 17958 amu
Info: TOTAL CHARGE = -0.000100028 e
Info: MASS DENSITY = 0.678532 g/cm^3
Info: ATOM DENSITY = 0.068011 atoms/A^3
Info: ADDED 0 IMPLICIT EXCLUSIONS
Info: NONBONDED TABLE R-SQUARED SPACING: 0.0625
Info: NONBONDED TABLE SIZE: 705 POINTS
Info: REMOVING COM VELOCITY 0.059541 -0.288401 0.0478677
TCL: Running for 100000 steps
ETITLE: TS BOND ANGLE DIHED IMPRP ELECT VDW BOUNDARY MISC KINETIC TOTAL TEMP POTENTIAL TOTAL3 TEMPAVG PRESSURE GPRESSURE VOLUME PRESSAVG GPRESSAVG
ENERGY: 0 0.2131 0.3473 0.5105 0.0000 -13774.0498 2440.6336 0.0000 0.0000 1765.1602 -9567.1851 296.7326 -11332.3453 -9566.8499 296.7326 501.7731 541.6926 43948.7639 501.7731 541.6926
ENERGY: 100000 0.5046 0.6886 1.3771 0.0000 -14314.6247 2419.4617 0.0000 0.0000 173.2390 -11719.3537 29.1224 -11892.5928 -11719.2321 30.9586 -595.4468 -542.3822 29001.5715 5.1632 5.2038
TCL: Running 100000 steps at 60 kelvin.
TCL: Setting parameter langevinTemp to 60
TCL: Running for 100000 steps
ETITLE: TS BOND ANGLE DIHED IMPRP ELECT VDW BOUNDARY MISC KINETIC TOTAL TEMP POTENTIAL TOTAL3 TEMPAVG PRESSURE GPRESSURE VOLUME PRESSAVG GPRESSAVG
ENERGY: 100000 0.5046 0.6886 1.3771 0.0000 -14314.6247 2419.4617 0.0000 0.0000 173.1496 -11719.4432 29.1074 -11892.5928 -11719.1058 29.1074 -608.0680 -542.6870 29001.5715 -608.0680 -542.6870
ENERGY: 200000 0.8509 1.6301 0.9913 0.0000 -14230.0897 2407.0855 0.0000 0.0000 348.5049 -11471.0270 58.5855 -11819.5318 -11470.1917 59.9176 -188.5235 -147.8946 28533.5332 4.4178 4.4991
TCL: Running 100000 steps at 90 kelvin.
TCL: Setting parameter langevinTemp to 90
TCL: Running for 100000 steps
ETITLE: TS BOND ANGLE DIHED IMPRP ELECT VDW BOUNDARY MISC KINETIC TOTAL TEMP POTENTIAL TOTAL3 TEMPAVG PRESSURE GPRESSURE VOLUME PRESSAVG GPRESSAVG
ENERGY: 200000 0.8509 1.6301 0.9913 0.0000 -14230.0897 2407.0855 0.0000 0.0000 348.3182 -11471.2137 58.5541 -11819.5318 -11470.3993 58.5541 -205.5233 -148.2169 28533.5332 -205.5233 -148.2169
ENERGY: 300000 0.8992 2.3086 1.5423 0.0000 -14141.4303 2415.0445 0.0000 0.0000 510.5610 -11211.0747 85.8280 -11721.6358 -11209.8544 90.1119 323.7849 369.8825 28447.8754 3.6239 3.7141
TCL: Running 100000 steps at 120 kelvin.
TCL: Setting parameter langevinTemp to 120
TCL: Running for 100000 steps
ETITLE: TS BOND ANGLE DIHED IMPRP ELECT VDW BOUNDARY MISC KINETIC TOTAL TEMP POTENTIAL TOTAL3 TEMPAVG PRESSURE GPRESSURE VOLUME PRESSAVG GPRESSAVG
ENERGY: 300000 0.8992 2.3086 1.5423 0.0000 -14141.4303 2415.0445 0.0000 0.0000 510.2822 -11211.3536 85.7811 -11721.6358 -11210.3902 85.7811 334.3216 370.1343 28447.8754 334.3216 370.1343
ENERGY: 400000 1.8804 2.3953 1.9403 0.0000 -14078.1244 2455.9245 0.0000 0.0000 711.6716 -10904.3123 119.6357 -11615.9839 -10902.5748 119.9903 830.5674 918.3556 28507.4503 3.5498 3.5267
TCL: Running 100000 steps at 150 kelvin.
TCL: Setting parameter langevinTemp to 150
TCL: Running for 100000 steps
ETITLE: TS BOND ANGLE DIHED IMPRP ELECT VDW BOUNDARY MISC KINETIC TOTAL TEMP POTENTIAL TOTAL3 TEMPAVG PRESSURE GPRESSURE VOLUME PRESSAVG GPRESSAVG
ENERGY: 400000 1.8804 2.3953 1.9403 0.0000 -14078.1244 2455.9245 0.0000 0.0000 711.3199 -10904.6640 119.5766 -11615.9839 -10903.3695 119.5766 848.0576 918.1205 28507.4503 848.0576 918.1205
ENERGY: 500000 1.9873 2.5011 2.6146 0.0000 -13771.9093 2344.6070 0.0000 0.0000 876.7680 -10543.4313 147.3893 -11420.1993 -10543.1287 149.8041 520.9163 617.3575 28992.3106 6.4858 6.3528
TCL: Running 100000 steps at 180 kelvin.
TCL: Setting parameter langevinTemp to 180
TCL: Running for 100000 steps
ETITLE: TS BOND ANGLE DIHED IMPRP ELECT VDW BOUNDARY MISC KINETIC TOTAL TEMP POTENTIAL TOTAL3 TEMPAVG PRESSURE GPRESSURE VOLUME PRESSAVG GPRESSAVG
ENERGY: 500000 1.9873 2.5011 2.6146 0.0000 -13771.9093 2344.6070 0.0000 0.0000 876.3105 -10543.8888 147.3123 -11420.1993 -10542.1437 147.3123 572.7380 616.0171 28992.3106 572.7380 616.0171
ENERGY: 600000 1.3400 5.3369 2.3646 0.0000 -13251.0718 2146.6705 0.0000 0.0000 1048.6125 -10046.7472 176.2772 -11095.3598 -10044.9380 179.9534 -44.3282 20.4222 29308.1744 3.4230 3.3712
TCL: Running 100000 steps at 210 kelvin.
TCL: Setting parameter langevinTemp to 210
TCL: Running for 100000 steps
ETITLE: TS BOND ANGLE DIHED IMPRP ELECT VDW BOUNDARY MISC KINETIC TOTAL TEMP POTENTIAL TOTAL3 TEMPAVG PRESSURE GPRESSURE VOLUME PRESSAVG GPRESSAVG
ENERGY: 600000 1.3400 5.3369 2.3646 0.0000 -13251.0718 2146.6705 0.0000 0.0000 1048.0974 -10047.2624 176.1906 -11095.3598 -10045.0048 176.1906 -25.6116 19.0272 29308.1744 -25.6116 19.0272
ENERGY: 700000 2.2771 3.4783 4.2610 0.0000 -12562.0532 1900.0182 0.0000 0.0000 1267.4395 -9384.5791 213.0632 -10652.0185 -9380.8226 209.8168 -139.9049 -53.7573 29154.2261 2.8013 2.5201
TCL: Running 100000 steps at 240 kelvin.
TCL: Setting parameter langevinTemp to 240
TCL: Running for 100000 steps
ETITLE: TS BOND ANGLE DIHED IMPRP ELECT VDW BOUNDARY MISC KINETIC TOTAL TEMP POTENTIAL TOTAL3 TEMPAVG PRESSURE GPRESSURE VOLUME PRESSAVG GPRESSAVG
ENERGY: 700000 2.2771 3.4783 4.2610 0.0000 -12562.0532 1900.0182 0.0000 0.0000 1266.7938 -9385.2248 212.9546 -10652.0185 -9383.0664 212.9546 -118.6453 -51.5542 29154.2261 -118.6453 -51.5542
ENERGY: 800000 1.4407 3.7953 2.5715 0.0000 -11803.6649 1657.1206 0.0000 0.0000 1400.1298 -8738.6070 235.3691 -10138.7368 -8735.7585 240.2465 -645.8135 -628.8588 29820.9095 3.5501 3.7251
TCL: Running 100000 steps at 270 kelvin.
TCL: Setting parameter langevinTemp to 270
TCL: Running for 100000 steps
ETITLE: TS BOND ANGLE DIHED IMPRP ELECT VDW BOUNDARY MISC KINETIC TOTAL TEMP POTENTIAL TOTAL3 TEMPAVG PRESSURE GPRESSURE VOLUME PRESSAVG GPRESSAVG
ENERGY: 800000 1.4407 3.7953 2.5715 0.0000 -11803.6649 1657.1206 0.0000 0.0000 1399.4080 -8739.3288 235.2477 -10138.7368 -8736.7313 235.2477 -698.5443 -630.1372 29820.9095 -698.5443 -630.1372
ENERGY: 900000 0.9571 5.9169 4.8991 0.0000 -11335.8490 1515.9186 0.0000 0.0000 1619.8225 -8188.3348 272.3006 -9808.1573 -8184.6439 269.7732 -453.4599 -331.0402 29782.1952 2.7245 2.7609
TCL: Running 1000000 steps at 300 kelvin.
TCL: Setting parameter langevinTemp to 300
TCL: Running for 1000000 steps
ETITLE: TS BOND ANGLE DIHED IMPRP ELECT VDW BOUNDARY MISC KINETIC TOTAL TEMP POTENTIAL TOTAL3 TEMPAVG PRESSURE GPRESSURE VOLUME PRESSAVG GPRESSAVG
ENERGY: 900000 0.9571 5.9169 4.8991 0.0000 -11335.8490 1515.9186 0.0000 0.0000 1619.0358 -8189.1215 272.1683 -9808.1573 -8187.1397 272.1683 -428.6762 -331.6015 29782.1952 -428.6762 -331.6015
ENERGY: 1100000 2.5560 5.1185 1.7497 0.0000 -10764.1191 1414.8399 0.0000 0.0000 1805.3332 -7534.5219 303.4859 -9339.8551 -7529.9417 300.1307 -321.5418 -279.9672 30843.8392 3.3590 3.5296
ENERGY: 1300000 4.2779 6.3289 3.4382 0.0000 -10877.5031 1450.1304 0.0000 0.0000 1790.0986 -7623.2293 300.9249 -9413.3279 -7620.6088 299.4792 -83.5568 -32.6746 30700.7807 3.5822 3.6307
ENERGY: 1500000 0.9648 5.7648 3.9572 0.0000 -10877.2362 1473.9131 0.0000 0.0000 1822.6895 -7569.9468 306.4036 -9392.6362 -7564.9163 300.3263 36.6915 69.0731 30900.6026 3.3732 3.3724
ENERGY: 1700000 3.6277 3.6702 2.8850 0.0000 -10902.6779 1439.9202 0.0000 0.0000 1787.4002 -7665.1745 300.4713 -9452.5747 -7659.7508 300.3467 -513.2247 -401.2586 30811.9023 2.5552 2.4540
ENERGY: 1900000 2.1508 7.0815 6.6053 0.0000 -10883.3255 1490.5359 0.0000 0.0000 1785.2873 -7591.6647 300.1161 -9376.9520 -7588.0137 300.1775 242.5929 339.8441 30710.7841 2.8434 3.0315
TCL: Exiting due to exit command.
