Info: SIMULATION PARAMETERS:
Info: TIMESTEP               2
Info: NUMBER OF STEPS        0
Info: STEPS PER CYCLE        10
Info: PERIODIC CELL BASIS 1  35.89 0 0
Info: PERIODIC CELL BASIS 2  0 35.411 0
Info: PERIODIC CELL BASIS 3  0 0 35.516
Info: PERIODIC CELL CENTER   0 0 0
Info: WRAPPING WATERS AROUND PERIODIC BOUNDARIES ON OUTPUT.
Info: WRAPPING ALL CLUSTERS AROUND PERIODIC BOUNDARIES ON OUTPUT.
Info: FIRST LDB TIMESTEP     50
Info: LAST LDB TIMESTEP     -1
Info: HOM BACKGROUND SCALING 1
Info: PME BACKGROUND SCALING 1
Info: MIN ATOMS PER PATCH    40
Info: EMPTY PATCH LOAD       40 ATOMS
Info: INITIAL TEMPERATURE    300
Info: CENTER OF MASS MOVING INITIALLY? NO
Info: DIELECTRIC             1
Info: EXCLUDE                SCALED ONE-FOUR
Info: 1-4 ELECTROSTATICS SCALED BY 0.833333
Info: MODIFIED 1-4 VDW PARAMETERS WILL BE USED
Info: DCD FILENAME           mobley_4630641_equil.dcd
Info: DCD FREQUENCY          100000
Info: DCD FIRST STEP         100000
Info: DCD FILE WILL CONTAIN UNIT CELL DATA
Info: XST FILENAME           mobley_4630641_equil.xst
Info: XST FREQUENCY          100000
Info: NO VELOCITY DCD OUTPUT
Info: NO FORCE DCD OUTPUT
Info: OUTPUT FILENAME        mobley_4630641_equil
Info: BINARY OUTPUT FILES WILL BE USED
Info: RESTART FILENAME       mobley_4630641_equil.restart
Info: RESTART FREQUENCY      100000
Info: BINARY RESTART FILES WILL BE USED
Info: CUTOFF                 9
Info: PAIRLIST DISTANCE      11
Info: PAIRLIST SHRINK RATE   0.01
Info: PAIRLIST GROW RATE     0.01
Info: PAIRLIST TRIGGER       0.3
Info: PAIRLISTS PER CYCLE    2
Info: PAIRLISTS ENABLED
Info: MARGIN                 8
Info: HYDROGEN GROUP CUTOFF  2.5
Info: PATCH DIMENSION        21.5
Info: ENERGY OUTPUT STEPS    100000
Info: ENERGY EVALUATION STEPS    100000
Info: OUTPUT ENERGY PRECISION 4
Info: CROSSTERM ENERGY INCLUDED IN DIHEDRAL
Info: TIMING OUTPUT STEPS    1000000
Info: PRESSURE OUTPUT STEPS  100000
Info: LANGEVIN DYNAMICS ACTIVE
Info: LANGEVIN TEMPERATURE   30
Info: LANGEVIN USING BBK INTEGRATOR
Info: LANGEVIN DAMPING COEFFICIENT IS 1 INVERSE PS
Info: LANGEVIN DYNAMICS APPLIED TO HYDROGENS
Info: LANGEVIN PISTON PRESSURE CONTROL ACTIVE
Info:        TARGET PRESSURE IS 1.01325 BAR
Info:     OSCILLATION PERIOD IS 50 FS
Info:             DECAY TIME IS 25 FS
Info:     PISTON TEMPERATURE IS 300 K
Info:       PRESSURE CONTROL IS GROUP-BASED
Info:    INITIAL STRAIN RATE IS 0 0 0
Info:       CELL FLUCTUATION IS ISOTROPIC
Info: PARTICLE MESH EWALD (PME) ACTIVE
Info: PME TOLERANCE               1e-06
Info: PME EWALD COEFFICIENT       0.348832
Info: PME INTERPOLATION ORDER     4
Info: PME GRID DIMENSIONS         36 36 36
Info: PME MAXIMUM GRID SPACING    1
Info: FULL ELECTROSTATIC EVALUATION FREQUENCY      2
Info: USING VERLET I (r-RESPA) MTS SCHEME.
Info: C1 SPLITTING OF LONG RANGE ELECTROSTATICS
Info: PLACING ATOMS IN PATCHES BY HYDROGEN GROUPS
Info: RIGID BONDS TO HYDROGEN : ALL
Info:         ERROR TOLERANCE : 1e-08
Info:          MAX ITERATIONS : 100
Info: RIGID WATER USING SETTLE ALGORITHM
Info: RANDOM NUMBER SEED     1743247702
Info: USE HYDROGEN BONDS?    NO
Info: Using AMBER format force field!
Info: AMBER PARM FILE        mobley_4630641.prmtop
Info: COORDINATE PDB         mobley_4630641.pdb
Info: Exclusions will be read from PARM file!
Info: SCNB (VDW SCALING)     2
Info: USING ARITHMETIC MEAN TO COMBINE L-J SIGMA PARAMETERS
Info: BINARY COORDINATES     mobley_4630641_min.coor
Info: SUMMARY OF PARAMETERS:
Info: 5 BONDS
Info: 5 ANGLES
Info:   5 HARMONIC
Info:   0 COSINE-BASED
Info: 8 DIHEDRAL
Info: 0 IMPROPER
Info: 0 CROSSTERM
Info: 0 VDW
Info: 15 VDW_PAIRS
Info: 0 NBTHOLE_PAIRS
Info: STRUCTURE SUMMARY:
Info: 2956 ATOMS
Info: 2955 BONDS
Info: 26 ANGLES
Info: 28 DIHEDRALS
Info: 0 IMPROPERS
Info: 0 CROSSTERMS
Info: 3002 EXCLUSIONS
Info: 2950 RIGID BONDS
Info: 5918 DEGREES OF FREEDOM
Info: 986 HYDROGEN GROUPS
Info: 4 ATOMS IN LARGEST HYDROGEN GROUP
Info: 986 MIGRATION GROUPS
Info: 4 ATOMS IN LARGEST MIGRATION GROUP
Info: TOTAL MASS = 17745.8 amu
Info: TOTAL CHARGE = -0.000399992 e
Info: MASS DENSITY = 0.652859 g/cm^3
Info: ATOM DENSITY = 0.0654891 atoms/A^3
Info: ADDED 0 IMPLICIT EXCLUSIONS
Info: NONBONDED TABLE R-SQUARED SPACING: 0.0625
Info: NONBONDED TABLE SIZE: 705 POINTS
Info: REMOVING COM VELOCITY -0.0266085 0.109572 0.0394
TCL: Running for 100000 steps
ETITLE: TS BOND ANGLE DIHED IMPRP ELECT VDW BOUNDARY MISC KINETIC TOTAL TEMP POTENTIAL TOTAL3 TEMPAVG PRESSURE GPRESSURE VOLUME PRESSAVG GPRESSAVG
ENERGY: 0 0.0989 0.1775 1.2153 0.0000 -13635.3672 2442.1905 0.0000 0.0000 1756.3451 -9435.3400 298.6932 -11191.6851 -9435.0127 298.6932 704.7632 741.3381 45137.3125 704.7632 741.3381
ENERGY: 100000 0.1785 1.0443 1.5134 0.0000 -14309.4880 2551.5955 0.0000 0.0000 173.7835 -11581.3728 29.5545 -11755.1563 -11581.1618 30.8646 964.1625 1006.7724 28020.8362 4.3000 4.3096
TCL: Running 100000 steps at 60 kelvin.
TCL: Setting parameter langevinTemp to 60
TCL: Running for 100000 steps
ETITLE: TS BOND ANGLE DIHED IMPRP ELECT VDW BOUNDARY MISC KINETIC TOTAL TEMP POTENTIAL TOTAL3 TEMPAVG PRESSURE GPRESSURE VOLUME PRESSAVG GPRESSAVG
ENERGY: 100000 0.1785 1.0443 1.5134 0.0000 -14309.4880 2551.5955 0.0000 0.0000 173.6965 -11581.4598 29.5397 -11755.1563 -11581.1407 29.5397 955.0468 1006.5164 28020.8362 955.0468 1006.5164
ENERGY: 200000 0.2450 1.1564 1.5178 0.0000 -14088.5500 2412.1481 0.0000 0.0000 349.8710 -11323.6117 59.5009 -11673.4827 -11322.9482 60.0077 89.9624 131.7080 28202.5812 5.1441 5.1578
TCL: Running 100000 steps at 90 kelvin.
TCL: Setting parameter langevinTemp to 90
TCL: Running for 100000 steps
ETITLE: TS BOND ANGLE DIHED IMPRP ELECT VDW BOUNDARY MISC KINETIC TOTAL TEMP POTENTIAL TOTAL3 TEMPAVG PRESSURE GPRESSURE VOLUME PRESSAVG GPRESSAVG
ENERGY: 200000 0.2450 1.1564 1.5178 0.0000 -14088.5500 2412.1481 0.0000 0.0000 349.6974 -11323.7853 59.4713 -11673.4827 -11322.9488 59.4713 67.0305 131.1922 28202.5812 67.0305 131.1922
ENERGY: 300000 0.4405 1.4687 1.4097 0.0000 -13906.8269 2331.4341 0.0000 0.0000 527.4672 -11044.6067 89.7038 -11572.0739 -11043.1420 89.8770 -334.9994 -274.2700 28501.6209 5.3972 5.4278
TCL: Running 100000 steps at 120 kelvin.
TCL: Setting parameter langevinTemp to 120
TCL: Running for 100000 steps
ETITLE: TS BOND ANGLE DIHED IMPRP ELECT VDW BOUNDARY MISC KINETIC TOTAL TEMP POTENTIAL TOTAL3 TEMPAVG PRESSURE GPRESSURE VOLUME PRESSAVG GPRESSAVG
ENERGY: 300000 0.4405 1.4687 1.4097 0.0000 -13906.8269 2331.4341 0.0000 0.0000 527.2106 -11044.8633 89.6602 -11572.0739 -11043.8143 89.6602 -336.3869 -274.1899 28501.6209 -336.3869 -274.1899
ENERGY: 400000 0.5950 2.0582 2.0368 0.0000 -13801.9106 2367.1933 0.0000 0.0000 700.4267 -10729.6007 119.1182 -11430.0274 -10728.4245 120.2211 526.4271 582.7807 28446.9835 2.8877 2.8420
TCL: Running 100000 steps at 150 kelvin.
TCL: Setting parameter langevinTemp to 150
TCL: Running for 100000 steps
ETITLE: TS BOND ANGLE DIHED IMPRP ELECT VDW BOUNDARY MISC KINETIC TOTAL TEMP POTENTIAL TOTAL3 TEMPAVG PRESSURE GPRESSURE VOLUME PRESSAVG GPRESSAVG
ENERGY: 400000 0.5950 2.0582 2.0368 0.0000 -13801.9106 2367.1933 0.0000 0.0000 700.0854 -10729.9420 119.0602 -11430.0274 -10728.5993 119.0602 523.1188 581.8403 28446.9835 523.1188 581.8403
ENERGY: 500000 0.6339 5.7401 1.8285 0.0000 -13724.0422 2409.5513 0.0000 0.0000 906.0021 -10400.2862 154.0794 -11306.2884 -10398.6344 150.3411 1291.3160 1318.6977 28568.6498 4.5365 4.4886
TCL: Running 100000 steps at 180 kelvin.
TCL: Setting parameter langevinTemp to 180
TCL: Running for 100000 steps
ETITLE: TS BOND ANGLE DIHED IMPRP ELECT VDW BOUNDARY MISC KINETIC TOTAL TEMP POTENTIAL TOTAL3 TEMPAVG PRESSURE GPRESSURE VOLUME PRESSAVG GPRESSAVG
ENERGY: 500000 0.6339 5.7401 1.8285 0.0000 -13724.0422 2409.5513 0.0000 0.0000 905.5741 -10400.7142 154.0066 -11306.2884 -10399.2696 154.0066 1266.2891 1318.5806 28568.6498 1266.2891 1318.5806
ENERGY: 600000 0.4201 2.4516 2.0078 0.0000 -13151.2877 2137.0913 0.0000 0.0000 1065.9060 -9943.4110 181.2735 -11009.3170 -9940.3621 179.9835 342.1380 398.6599 28578.3251 3.9484 4.0111
TCL: Running 100000 steps at 210 kelvin.
TCL: Setting parameter langevinTemp to 210
TCL: Running for 100000 steps
ETITLE: TS BOND ANGLE DIHED IMPRP ELECT VDW BOUNDARY MISC KINETIC TOTAL TEMP POTENTIAL TOTAL3 TEMPAVG PRESSURE GPRESSURE VOLUME PRESSAVG GPRESSAVG
ENERGY: 600000 0.4201 2.4516 2.0078 0.0000 -13151.2877 2137.0913 0.0000 0.0000 1065.3880 -9943.9290 181.1854 -11009.3170 -9941.7957 181.1854 343.8178 398.9957 28578.3251 343.8178 398.9957
ENERGY: 700000 5.0644 3.5522 3.7115 0.0000 -12346.6470 1834.2328 0.0000 0.0000 1218.6857 -9281.4004 207.2560 -10500.0861 -9278.8161 209.8570 -635.9856 -523.3821 28766.8278 3.6906 3.7515
TCL: Running 100000 steps at 240 kelvin.
TCL: Setting parameter langevinTemp to 240
TCL: Running for 100000 steps
ETITLE: TS BOND ANGLE DIHED IMPRP ELECT VDW BOUNDARY MISC KINETIC TOTAL TEMP POTENTIAL TOTAL3 TEMPAVG PRESSURE GPRESSURE VOLUME PRESSAVG GPRESSAVG
ENERGY: 700000 5.0644 3.5522 3.7115 0.0000 -12346.6470 1834.2328 0.0000 0.0000 1218.0637 -9282.0225 207.1502 -10500.0861 -9279.4314 207.1502 -618.7857 -523.1540 28766.8278 -618.7857 -523.1540
ENERGY: 800000 0.9842 8.2588 1.5532 0.0000 -11824.6461 1717.2345 0.0000 0.0000 1395.7963 -8700.8191 237.3764 -10096.6154 -8698.9900 239.5291 -383.7628 -296.9132 29465.4880 3.3753 3.4941
TCL: Running 100000 steps at 270 kelvin.
TCL: Setting parameter langevinTemp to 270
TCL: Running for 100000 steps
ETITLE: TS BOND ANGLE DIHED IMPRP ELECT VDW BOUNDARY MISC KINETIC TOTAL TEMP POTENTIAL TOTAL3 TEMPAVG PRESSURE GPRESSURE VOLUME PRESSAVG GPRESSAVG
ENERGY: 800000 0.9842 8.2588 1.5532 0.0000 -11824.6461 1717.2345 0.0000 0.0000 1395.0929 -8701.5225 237.2567 -10096.6154 -8699.3379 237.2567 -381.9052 -298.1196 29465.4880 -381.9052 -298.1196
ENERGY: 900000 0.8809 5.4228 1.8097 0.0000 -11222.4306 1546.8544 0.0000 0.0000 1621.1109 -8046.3519 275.6945 -9667.4627 -8045.6027 269.9243 -266.9532 -197.1127 29779.4254 3.3162 3.2715
TCL: Running 1000000 steps at 300 kelvin.
TCL: Setting parameter langevinTemp to 300
TCL: Running for 1000000 steps
ETITLE: TS BOND ANGLE DIHED IMPRP ELECT VDW BOUNDARY MISC KINETIC TOTAL TEMP POTENTIAL TOTAL3 TEMPAVG PRESSURE GPRESSURE VOLUME PRESSAVG GPRESSAVG
ENERGY: 900000 0.8809 5.4228 1.8097 0.0000 -11222.4306 1546.8544 0.0000 0.0000 1620.3307 -8047.1321 275.5618 -9667.4627 -8045.0286 275.5618 -279.4250 -198.7051 29779.4254 -279.4250 -198.7051
ENERGY: 1100000 1.7745 4.7900 1.8927 0.0000 -10564.4644 1350.7753 0.0000 0.0000 1792.6896 -7412.5423 304.8741 -9205.2319 -7411.2207 300.8097 -490.2755 -398.8227 30294.2243 3.6438 3.5765
ENERGY: 1300000 2.7202 5.6058 3.9937 0.0000 -10562.9125 1393.5695 0.0000 0.0000 1787.4184 -7369.6050 303.9776 -9157.0234 -7367.7147 300.5600 172.0930 255.5024 29936.6081 3.1826 3.1656
ENERGY: 1500000 2.1179 6.9848 3.1741 0.0000 -10689.4629 1398.2263 0.0000 0.0000 1753.1695 -7525.7904 298.1531 -9278.9599 -7520.2629 300.4163 -191.3892 -109.7053 30215.6339 2.1375 2.0891
ENERGY: 1700000 4.4780 10.1036 2.1373 0.0000 -10857.4852 1552.3970 0.0000 0.0000 1745.1898 -7543.1795 296.7960 -9288.3693 -7539.5047 299.9685 442.5963 555.7662 30721.8428 3.7837 3.5830
ENERGY: 1900000 1.3841 5.0124 6.1292 0.0000 -10629.6598 1397.6949 0.0000 0.0000 1770.0057 -7449.4335 301.0164 -9219.4392 -7446.1069 300.0133 -438.2942 -358.8006 30739.0612 2.0493 2.0634
TCL: Exiting due to exit command.
