Info: SIMULATION PARAMETERS:
Info: TIMESTEP               2
Info: NUMBER OF STEPS        0
Info: STEPS PER CYCLE        10
Info: PERIODIC CELL BASIS 1  34.986 0 0
Info: PERIODIC CELL BASIS 2  0 35.411 0
Info: PERIODIC CELL BASIS 3  0 0 36.199
Info: PERIODIC CELL CENTER   0 0 0
Info: WRAPPING WATERS AROUND PERIODIC BOUNDARIES ON OUTPUT.
Info: WRAPPING ALL CLUSTERS AROUND PERIODIC BOUNDARIES ON OUTPUT.
Info: FIRST LDB TIMESTEP     50
Info: LAST LDB TIMESTEP     -1
Info: HOM BACKGROUND SCALING 1
Info: PME BACKGROUND SCALING 1
Info: MIN ATOMS PER PATCH    40
Info: EMPTY PATCH LOAD       40 ATOMS
Info: INITIAL TEMPERATURE    300
Info: CENTER OF MASS MOVING INITIALLY? NO
Info: DIELECTRIC             1
Info: EXCLUDE                SCALED ONE-FOUR
Info: 1-4 ELECTROSTATICS SCALED BY 0.833333
Info: MODIFIED 1-4 VDW PARAMETERS WILL BE USED
Info: DCD FILENAME           mobley_4188615_equil.dcd
Info: DCD FREQUENCY          100000
Info: DCD FIRST STEP         100000
Info: DCD FILE WILL CONTAIN UNIT CELL DATA
Info: XST FILENAME           mobley_4188615_equil.xst
Info: XST FREQUENCY          100000
Info: NO VELOCITY DCD OUTPUT
Info: NO FORCE DCD OUTPUT
Info: OUTPUT FILENAME        mobley_4188615_equil
Info: BINARY OUTPUT FILES WILL BE USED
Info: RESTART FILENAME       mobley_4188615_equil.restart
Info: RESTART FREQUENCY      100000
Info: BINARY RESTART FILES WILL BE USED
Info: CUTOFF                 9
Info: PAIRLIST DISTANCE      11
Info: PAIRLIST SHRINK RATE   0.01
Info: PAIRLIST GROW RATE     0.01
Info: PAIRLIST TRIGGER       0.3
Info: PAIRLISTS PER CYCLE    2
Info: PAIRLISTS ENABLED
Info: MARGIN                 8
Info: HYDROGEN GROUP CUTOFF  2.5
Info: PATCH DIMENSION        21.5
Info: ENERGY OUTPUT STEPS    100000
Info: ENERGY EVALUATION STEPS    100000
Info: OUTPUT ENERGY PRECISION 4
Info: CROSSTERM ENERGY INCLUDED IN DIHEDRAL
Info: TIMING OUTPUT STEPS    1000000
Info: PRESSURE OUTPUT STEPS  100000
Info: LANGEVIN DYNAMICS ACTIVE
Info: LANGEVIN TEMPERATURE   30
Info: LANGEVIN USING BBK INTEGRATOR
Info: LANGEVIN DAMPING COEFFICIENT IS 1 INVERSE PS
Info: LANGEVIN DYNAMICS APPLIED TO HYDROGENS
Info: LANGEVIN PISTON PRESSURE CONTROL ACTIVE
Info:        TARGET PRESSURE IS 1.01325 BAR
Info:     OSCILLATION PERIOD IS 50 FS
Info:             DECAY TIME IS 25 FS
Info:     PISTON TEMPERATURE IS 300 K
Info:       PRESSURE CONTROL IS GROUP-BASED
Info:    INITIAL STRAIN RATE IS 0 0 0
Info:       CELL FLUCTUATION IS ISOTROPIC
Info: PARTICLE MESH EWALD (PME) ACTIVE
Info: PME TOLERANCE               1e-06
Info: PME EWALD COEFFICIENT       0.348832
Info: PME INTERPOLATION ORDER     4
Info: PME GRID DIMENSIONS         36 36 40
Info: PME MAXIMUM GRID SPACING    1
Info: FULL ELECTROSTATIC EVALUATION FREQUENCY      2
Info: USING VERLET I (r-RESPA) MTS SCHEME.
Info: C1 SPLITTING OF LONG RANGE ELECTROSTATICS
Info: PLACING ATOMS IN PATCHES BY HYDROGEN GROUPS
Info: RIGID BONDS TO HYDROGEN : ALL
Info:         ERROR TOLERANCE : 1e-08
Info:          MAX ITERATIONS : 100
Info: RIGID WATER USING SETTLE ALGORITHM
Info: RANDOM NUMBER SEED     1743235301
Info: USE HYDROGEN BONDS?    NO
Info: Using AMBER format force field!
Info: AMBER PARM FILE        mobley_4188615.prmtop
Info: COORDINATE PDB         mobley_4188615.pdb
Info: Exclusions will be read from PARM file!
Info: SCNB (VDW SCALING)     2
Info: USING ARITHMETIC MEAN TO COMBINE L-J SIGMA PARAMETERS
Info: BINARY COORDINATES     mobley_4188615_min.coor
Info: SUMMARY OF PARAMETERS:
Info: 9 BONDS
Info: 10 ANGLES
Info:   10 HARMONIC
Info:   0 COSINE-BASED
Info: 6 DIHEDRAL
Info: 0 IMPROPER
Info: 0 CROSSTERM
Info: 0 VDW
Info: 36 VDW_PAIRS
Info: 0 NBTHOLE_PAIRS
Info: STRUCTURE SUMMARY:
Info: 2995 ATOMS
Info: 2995 BONDS
Info: 36 ANGLES
Info: 52 DIHEDRALS
Info: 0 IMPROPERS
Info: 0 CROSSTERMS
Info: 3072 EXCLUSIONS
Info: 2984 RIGID BONDS
Info: 6001 DEGREES OF FREEDOM
Info: 1002 HYDROGEN GROUPS
Info: 4 ATOMS IN LARGEST HYDROGEN GROUP
Info: 1002 MIGRATION GROUPS
Info: 4 ATOMS IN LARGEST MIGRATION GROUP
Info: TOTAL MASS = 18003 amu
Info: TOTAL CHARGE = 0.000400066 e
Info: MASS DENSITY = 0.666617 g/cm^3
Info: ATOM DENSITY = 0.0667833 atoms/A^3
Info: ADDED 0 IMPLICIT EXCLUSIONS
Info: NONBONDED TABLE R-SQUARED SPACING: 0.0625
Info: NONBONDED TABLE SIZE: 705 POINTS
Info: REMOVING COM VELOCITY 0.0879937 -0.125997 -0.0507531
TCL: Running for 100000 steps
ETITLE: TS BOND ANGLE DIHED IMPRP ELECT VDW BOUNDARY MISC KINETIC TOTAL TEMP POTENTIAL TOTAL3 TEMPAVG PRESSURE GPRESSURE VOLUME PRESSAVG GPRESSAVG
ENERGY: 0 0.4362 0.9105 5.5770 0.0000 -13859.1380 2494.3728 0.0000 0.0000 1766.4057 -9591.4358 296.2492 -11357.8415 -9591.0802 296.2492 716.1847 748.8958 44846.5518 716.1847 748.8958
ENERGY: 100000 1.2220 1.8321 5.1067 0.0000 -14270.0307 2379.9036 0.0000 0.0000 178.5893 -11703.3770 29.9518 -11881.9663 -11702.9834 30.9619 -919.6151 -838.7414 28901.3172 4.0689 4.0977
TCL: Running 100000 steps at 60 kelvin.
TCL: Setting parameter langevinTemp to 60
TCL: Running for 100000 steps
ETITLE: TS BOND ANGLE DIHED IMPRP ELECT VDW BOUNDARY MISC KINETIC TOTAL TEMP POTENTIAL TOTAL3 TEMPAVG PRESSURE GPRESSURE VOLUME PRESSAVG GPRESSAVG
ENERGY: 100000 1.2220 1.8321 5.1067 0.0000 -14270.0307 2379.9036 0.0000 0.0000 178.5044 -11703.4619 29.9375 -11881.9663 -11703.0421 29.9375 -904.3628 -838.8756 28901.3172 -904.3628 -838.8756
ENERGY: 200000 1.1670 3.8885 4.3190 0.0000 -14267.7320 2455.7590 0.0000 0.0000 348.6623 -11453.9362 58.4752 -11802.5985 -11453.3657 59.9998 -72.0897 -28.7424 28933.8179 4.0217 4.0257
TCL: Running 100000 steps at 90 kelvin.
TCL: Setting parameter langevinTemp to 90
TCL: Running for 100000 steps
ETITLE: TS BOND ANGLE DIHED IMPRP ELECT VDW BOUNDARY MISC KINETIC TOTAL TEMP POTENTIAL TOTAL3 TEMPAVG PRESSURE GPRESSURE VOLUME PRESSAVG GPRESSAVG
ENERGY: 200000 1.1670 3.8885 4.3190 0.0000 -14267.7320 2455.7590 0.0000 0.0000 348.4833 -11454.1152 58.4452 -11802.5985 -11453.3525 58.4452 -94.9733 -29.1306 28933.8179 -94.9733 -29.1306
ENERGY: 300000 1.5255 2.5548 5.9954 0.0000 -14181.0032 2442.8949 0.0000 0.0000 544.5387 -11183.4939 91.3262 -11728.0326 -11182.0115 89.9099 321.6551 430.1445 28728.8292 3.9603 3.9869
TCL: Running 100000 steps at 120 kelvin.
TCL: Setting parameter langevinTemp to 120
TCL: Running for 100000 steps
ETITLE: TS BOND ANGLE DIHED IMPRP ELECT VDW BOUNDARY MISC KINETIC TOTAL TEMP POTENTIAL TOTAL3 TEMPAVG PRESSURE GPRESSURE VOLUME PRESSAVG GPRESSAVG
ENERGY: 300000 1.5255 2.5548 5.9954 0.0000 -14181.0032 2442.8949 0.0000 0.0000 544.2776 -11183.7550 91.2824 -11728.0326 -11182.2944 91.2824 366.1306 429.9008 28728.8292 366.1306 429.9008
ENERGY: 400000 1.3695 6.5213 6.1031 0.0000 -14033.6502 2434.2637 0.0000 0.0000 697.9936 -10887.3991 117.0626 -11585.3927 -10885.8934 120.0962 734.5289 791.5749 28851.9963 5.1574 5.1570
TCL: Running 100000 steps at 150 kelvin.
TCL: Setting parameter langevinTemp to 150
TCL: Running for 100000 steps
ETITLE: TS BOND ANGLE DIHED IMPRP ELECT VDW BOUNDARY MISC KINETIC TOTAL TEMP POTENTIAL TOTAL3 TEMPAVG PRESSURE GPRESSURE VOLUME PRESSAVG GPRESSAVG
ENERGY: 400000 1.3695 6.5213 6.1031 0.0000 -14033.6502 2434.2637 0.0000 0.0000 697.6398 -10887.7529 117.0033 -11585.3927 -10886.4265 117.0033 742.6501 791.5100 28851.9963 742.6501 791.5100
ENERGY: 500000 2.9194 3.0476 6.7365 0.0000 -13738.2479 2283.9563 0.0000 0.0000 886.2486 -10555.3394 148.6354 -11441.5880 -10553.7230 149.8817 -147.1015 -79.6526 29303.3546 2.6007 2.7491
TCL: Running 100000 steps at 180 kelvin.
TCL: Setting parameter langevinTemp to 180
TCL: Running for 100000 steps
ETITLE: TS BOND ANGLE DIHED IMPRP ELECT VDW BOUNDARY MISC KINETIC TOTAL TEMP POTENTIAL TOTAL3 TEMPAVG PRESSURE GPRESSURE VOLUME PRESSAVG GPRESSAVG
ENERGY: 500000 2.9194 3.0476 6.7365 0.0000 -13738.2479 2283.9563 0.0000 0.0000 885.8130 -10555.7750 148.5624 -11441.5880 -10554.0970 148.5624 -133.1779 -79.4832 29303.3546 -133.1779 -79.4832
ENERGY: 600000 2.9871 8.3092 8.3499 0.0000 -13116.7279 2008.7878 0.0000 0.0000 1043.3009 -10044.9930 174.9751 -11088.2939 -10042.4257 179.9937 -1408.7171 -1285.2304 29734.9305 5.9782 6.1432
TCL: Running 100000 steps at 210 kelvin.
TCL: Setting parameter langevinTemp to 210
TCL: Running for 100000 steps
ETITLE: TS BOND ANGLE DIHED IMPRP ELECT VDW BOUNDARY MISC KINETIC TOTAL TEMP POTENTIAL TOTAL3 TEMPAVG PRESSURE GPRESSURE VOLUME PRESSAVG GPRESSAVG
ENERGY: 600000 2.9871 8.3092 8.3499 0.0000 -13116.7279 2008.7878 0.0000 0.0000 1042.7737 -10045.5202 174.8867 -11088.2939 -10043.6901 174.8867 -1360.7500 -1286.1274 29734.9305 -1360.7500 -1286.1274
ENERGY: 700000 2.6109 7.1105 6.6898 0.0000 -12429.8937 1795.7790 0.0000 0.0000 1242.4078 -9375.2958 208.3679 -10617.7036 -9371.8786 210.2886 -1063.2321 -938.7902 29351.9739 2.9105 2.8401
TCL: Running 100000 steps at 240 kelvin.
TCL: Setting parameter langevinTemp to 240
TCL: Running for 100000 steps
ETITLE: TS BOND ANGLE DIHED IMPRP ELECT VDW BOUNDARY MISC KINETIC TOTAL TEMP POTENTIAL TOTAL3 TEMPAVG PRESSURE GPRESSURE VOLUME PRESSAVG GPRESSAVG
ENERGY: 700000 2.6109 7.1105 6.6898 0.0000 -12429.8937 1795.7790 0.0000 0.0000 1241.7949 -9375.9087 208.2652 -10617.7036 -9373.4155 208.2652 -1020.1415 -940.3653 29351.9739 -1020.1415 -940.3653
ENERGY: 800000 3.1822 7.6462 5.9372 0.0000 -11959.7797 1798.5861 0.0000 0.0000 1445.2806 -8699.1475 242.3924 -10144.4281 -8695.6299 240.2506 816.2359 872.9478 29407.0249 2.6936 2.6536
TCL: Running 100000 steps at 270 kelvin.
TCL: Setting parameter langevinTemp to 270
TCL: Running for 100000 steps
ETITLE: TS BOND ANGLE DIHED IMPRP ELECT VDW BOUNDARY MISC KINETIC TOTAL TEMP POTENTIAL TOTAL3 TEMPAVG PRESSURE GPRESSURE VOLUME PRESSAVG GPRESSAVG
ENERGY: 800000 3.1822 7.6462 5.9372 0.0000 -11959.7797 1798.5861 0.0000 0.0000 1444.5377 -8699.8904 242.2678 -10144.4281 -8697.3724 242.2678 798.6743 873.0997 29407.0249 798.6743 873.0997
ENERGY: 900000 2.9850 7.0975 10.3164 0.0000 -11336.4887 1540.0943 0.0000 0.0000 1621.7139 -8154.2814 271.9825 -9775.9954 -8152.7605 270.2299 -350.9799 -313.5330 29935.5109 4.8867 4.9131
TCL: Running 1000000 steps at 300 kelvin.
TCL: Setting parameter langevinTemp to 300
TCL: Running for 1000000 steps
ETITLE: TS BOND ANGLE DIHED IMPRP ELECT VDW BOUNDARY MISC KINETIC TOTAL TEMP POTENTIAL TOTAL3 TEMPAVG PRESSURE GPRESSURE VOLUME PRESSAVG GPRESSAVG
ENERGY: 900000 2.9850 7.0975 10.3164 0.0000 -11336.4887 1540.0943 0.0000 0.0000 1620.9009 -8155.0945 271.8462 -9775.9954 -8152.4785 271.8462 -402.6321 -314.5159 29935.5109 -402.6321 -314.5159
ENERGY: 1100000 1.7420 7.3509 6.0187 0.0000 -10752.2394 1339.4152 0.0000 0.0000 1761.9493 -7635.7633 295.5018 -9397.7126 -7632.0533 299.9421 -944.5041 -932.9475 31042.0783 2.1814 1.8785
ENERGY: 1300000 3.9999 5.9544 12.4719 0.0000 -10830.0227 1462.0272 0.0000 0.0000 1779.6880 -7565.8812 298.4768 -9345.5692 -7564.2716 300.7346 -76.1394 69.9856 30689.1930 3.2491 3.1680
ENERGY: 1500000 6.0904 5.9439 6.1344 0.0000 -10873.9024 1446.2446 0.0000 0.0000 1818.3803 -7591.1088 304.9660 -9409.4892 -7585.8637 299.8411 -535.9653 -441.8254 30898.9938 3.0568 3.0406
ENERGY: 1700000 7.3888 5.1742 10.6177 0.0000 -10778.0738 1415.2563 0.0000 0.0000 1833.8517 -7505.7851 307.5608 -9339.6368 -7498.4159 300.4340 -181.6153 -87.3127 30708.6840 3.8754 3.8149
ENERGY: 1900000 2.8119 5.8561 5.1942 0.0000 -10855.4882 1461.7964 0.0000 0.0000 1813.8932 -7565.9365 304.2135 -9379.8297 -7562.8099 300.7626 94.0430 203.3154 30439.7266 3.2078 3.0879
TCL: Exiting due to exit command.
