Info: SIMULATION PARAMETERS:
Info: TIMESTEP               2
Info: NUMBER OF STEPS        0
Info: STEPS PER CYCLE        10
Info: PERIODIC CELL BASIS 1  36.281 0 0
Info: PERIODIC CELL BASIS 2  0 35.411 0
Info: PERIODIC CELL BASIS 3  0 0 34.68
Info: PERIODIC CELL CENTER   0 0 0
Info: WRAPPING WATERS AROUND PERIODIC BOUNDARIES ON OUTPUT.
Info: WRAPPING ALL CLUSTERS AROUND PERIODIC BOUNDARIES ON OUTPUT.
Info: FIRST LDB TIMESTEP     50
Info: LAST LDB TIMESTEP     -1
Info: HOM BACKGROUND SCALING 1
Info: PME BACKGROUND SCALING 1
Info: MIN ATOMS PER PATCH    40
Info: EMPTY PATCH LOAD       40 ATOMS
Info: INITIAL TEMPERATURE    300
Info: CENTER OF MASS MOVING INITIALLY? NO
Info: DIELECTRIC             1
Info: EXCLUDE                SCALED ONE-FOUR
Info: 1-4 ELECTROSTATICS SCALED BY 0.833333
Info: MODIFIED 1-4 VDW PARAMETERS WILL BE USED
Info: DCD FILENAME           mobley_1967551_equil.dcd
Info: DCD FREQUENCY          100000
Info: DCD FIRST STEP         100000
Info: DCD FILE WILL CONTAIN UNIT CELL DATA
Info: XST FILENAME           mobley_1967551_equil.xst
Info: XST FREQUENCY          100000
Info: NO VELOCITY DCD OUTPUT
Info: NO FORCE DCD OUTPUT
Info: OUTPUT FILENAME        mobley_1967551_equil
Info: BINARY OUTPUT FILES WILL BE USED
Info: RESTART FILENAME       mobley_1967551_equil.restart
Info: RESTART FREQUENCY      100000
Info: BINARY RESTART FILES WILL BE USED
Info: CUTOFF                 9
Info: PAIRLIST DISTANCE      11
Info: PAIRLIST SHRINK RATE   0.01
Info: PAIRLIST GROW RATE     0.01
Info: PAIRLIST TRIGGER       0.3
Info: PAIRLISTS PER CYCLE    2
Info: PAIRLISTS ENABLED
Info: MARGIN                 8
Info: HYDROGEN GROUP CUTOFF  2.5
Info: PATCH DIMENSION        21.5
Info: ENERGY OUTPUT STEPS    100000
Info: ENERGY EVALUATION STEPS    100000
Info: OUTPUT ENERGY PRECISION 4
Info: CROSSTERM ENERGY INCLUDED IN DIHEDRAL
Info: TIMING OUTPUT STEPS    1000000
Info: PRESSURE OUTPUT STEPS  100000
Info: FIXED ATOMS ACTIVE
Info: LANGEVIN DYNAMICS ACTIVE
Info: LANGEVIN TEMPERATURE   30
Info: LANGEVIN USING BBK INTEGRATOR
Info: LANGEVIN DAMPING COEFFICIENT IS 1 INVERSE PS
Info: LANGEVIN DYNAMICS APPLIED TO HYDROGENS
Info: LANGEVIN PISTON PRESSURE CONTROL ACTIVE
Info:        TARGET PRESSURE IS 1.01325 BAR
Info:     OSCILLATION PERIOD IS 50 FS
Info:             DECAY TIME IS 25 FS
Info:     PISTON TEMPERATURE IS 300 K
Info:       PRESSURE CONTROL IS GROUP-BASED
Info:    INITIAL STRAIN RATE IS 0 0 0
Info:       CELL FLUCTUATION IS ISOTROPIC
Info: PARTICLE MESH EWALD (PME) ACTIVE
Info: PME TOLERANCE               1e-06
Info: PME EWALD COEFFICIENT       0.348832
Info: PME INTERPOLATION ORDER     4
Info: PME GRID DIMENSIONS         40 36 36
Info: PME MAXIMUM GRID SPACING    1
Info: FULL ELECTROSTATIC EVALUATION FREQUENCY      2
Info: USING VERLET I (r-RESPA) MTS SCHEME.
Info: C1 SPLITTING OF LONG RANGE ELECTROSTATICS
Info: PLACING ATOMS IN PATCHES BY HYDROGEN GROUPS
Info: RIGID BONDS TO HYDROGEN : ALL
Info:         ERROR TOLERANCE : 1e-08
Info:          MAX ITERATIONS : 100
Info: RIGID WATER USING SETTLE ALGORITHM
Info: RANDOM NUMBER SEED     1743673061
Info: USE HYDROGEN BONDS?    NO
Info: Using AMBER format force field!
Info: AMBER PARM FILE        mobley_1967551.prmtop
Info: COORDINATE PDB         mobley_1967551.pdb
Info: Exclusions will be read from PARM file!
Info: SCNB (VDW SCALING)     2
Info: USING ARITHMETIC MEAN TO COMBINE L-J SIGMA PARAMETERS
Info: BINARY COORDINATES     mobley_1967551_min.coor
Info: SUMMARY OF PARAMETERS:
Info: 6 BONDS
Info: 5 ANGLES
Info:   5 HARMONIC
Info:   0 COSINE-BASED
Info: 5 DIHEDRAL
Info: 0 IMPROPER
Info: 0 CROSSTERM
Info: 0 VDW
Info: 28 VDW_PAIRS
Info: 0 NBTHOLE_PAIRS
Info: STRUCTURE SUMMARY:
Info: 2938 ATOMS
Info: 2937 BONDS
Info: 9 ANGLES
Info: 13 DIHEDRALS
Info: 0 IMPROPERS
Info: 0 CROSSTERMS
Info: 2952 EXCLUSIONS
Info: 7 FIXED ATOMS
Info: 2935 RIGID BONDS
Info: 4 RIGID BONDS BETWEEN FIXED ATOMS
Info: 5862 DEGREES OF FREEDOM
Info: 980 HYDROGEN GROUPS
Info: 4 ATOMS IN LARGEST HYDROGEN GROUP
Info: 980 MIGRATION GROUPS
Info: 4 ATOMS IN LARGEST MIGRATION GROUP
Info: 3 HYDROGEN GROUPS WITH ALL ATOMS FIXED
Info: TOTAL MASS = 17645.7 amu
Info: TOTAL CHARGE = 1.76951e-08 e
Info: MASS DENSITY = 0.65766 g/cm^3
Info: ATOM DENSITY = 0.065941 atoms/A^3
Info: ADDED 0 IMPLICIT EXCLUSIONS
Info: NONBONDED TABLE R-SQUARED SPACING: 0.0625
Info: NONBONDED TABLE SIZE: 705 POINTS
Info: REMOVING COM VELOCITY -0.101845 0.0943132 -0.0887335
TCL: Running for 100000 steps
ETITLE: TS BOND ANGLE DIHED IMPRP ELECT VDW BOUNDARY MISC KINETIC TOTAL TEMP POTENTIAL TOTAL3 TEMPAVG PRESSURE GPRESSURE VOLUME PRESSAVG GPRESSAVG
ENERGY: 0 0.0000 0.0000 0.0000 0.0000 -13720.1112 2424.7861 0.0000 0.0000 1770.0906 -9525.2345 303.9066 -11295.3251 -9524.8859 303.9066 502.2812 532.1742 44555.0083 502.2812 532.1742
ENERGY: 100000 0.0000 0.0000 0.0000 0.0000 -14368.0096 2596.0864 0.0000 0.0000 177.7961 -11594.1271 30.5258 -11771.9232 -11593.5204 30.9278 867.2067 928.1831 28909.0557 2.6597 2.6466
TCL: Running 100000 steps at 60 kelvin.
TCL: Setting parameter langevinTemp to 60
TCL: Running for 100000 steps
ETITLE: TS BOND ANGLE DIHED IMPRP ELECT VDW BOUNDARY MISC KINETIC TOTAL TEMP POTENTIAL TOTAL3 TEMPAVG PRESSURE GPRESSURE VOLUME PRESSAVG GPRESSAVG
ENERGY: 100000 0.0000 0.0000 0.0000 0.0000 -14368.0096 2596.0864 0.0000 0.0000 177.7080 -11594.2152 30.5107 -11771.9232 -11593.8414 30.5107 857.9228 928.1086 28909.0557 857.9228 928.1086
ENERGY: 200000 0.0000 0.0000 0.0000 0.0000 -14099.8430 2400.2891 0.0000 0.0000 350.5203 -11349.0335 60.1808 -11699.5539 -11348.1196 59.7946 -430.0652 -373.6806 28869.1432 5.6911 5.6616
TCL: Running 100000 steps at 90 kelvin.
TCL: Setting parameter langevinTemp to 90
TCL: Running for 100000 steps
ETITLE: TS BOND ANGLE DIHED IMPRP ELECT VDW BOUNDARY MISC KINETIC TOTAL TEMP POTENTIAL TOTAL3 TEMPAVG PRESSURE GPRESSURE VOLUME PRESSAVG GPRESSAVG
ENERGY: 200000 0.0000 0.0000 0.0000 0.0000 -14099.8430 2400.2891 0.0000 0.0000 350.3420 -11349.2118 60.1502 -11699.5539 -11348.5145 60.1502 -427.6109 -373.4379 28869.1432 -427.6109 -373.4379
ENERGY: 300000 0.0000 0.0000 0.0000 0.0000 -13941.1930 2361.9064 0.0000 0.0000 540.9415 -11038.3450 92.8742 -11579.2866 -11036.7496 90.0863 -181.5441 -111.6120 28886.4943 4.8677 4.7673
TCL: Running 100000 steps at 120 kelvin.
TCL: Setting parameter langevinTemp to 120
TCL: Running for 100000 steps
ETITLE: TS BOND ANGLE DIHED IMPRP ELECT VDW BOUNDARY MISC KINETIC TOTAL TEMP POTENTIAL TOTAL3 TEMPAVG PRESSURE GPRESSURE VOLUME PRESSAVG GPRESSAVG
ENERGY: 300000 0.0000 0.0000 0.0000 0.0000 -13941.1930 2361.9064 0.0000 0.0000 540.6710 -11038.6156 92.8277 -11579.2866 -11037.2204 92.8277 -154.3990 -111.6061 28886.4943 -154.3990 -111.6061
ENERGY: 400000 0.0000 0.0000 0.0000 0.0000 -13832.1669 2361.7085 0.0000 0.0000 715.8958 -10754.5626 122.9120 -11470.4584 -10752.2343 119.8222 231.9103 258.0595 28859.3241 3.7951 3.8347
TCL: Running 100000 steps at 150 kelvin.
TCL: Setting parameter langevinTemp to 150
TCL: Running for 100000 steps
ETITLE: TS BOND ANGLE DIHED IMPRP ELECT VDW BOUNDARY MISC KINETIC TOTAL TEMP POTENTIAL TOTAL3 TEMPAVG PRESSURE GPRESSURE VOLUME PRESSAVG GPRESSAVG
ENERGY: 400000 0.0000 0.0000 0.0000 0.0000 -13832.1669 2361.7085 0.0000 0.0000 715.5557 -10754.9027 122.8536 -11470.4584 -10753.7084 122.8536 216.2132 259.2099 28859.3241 216.2132 259.2099
ENERGY: 500000 0.0000 0.0000 0.0000 0.0000 -13600.4989 2308.7147 0.0000 0.0000 873.6998 -10418.0844 150.0054 -11291.7842 -10415.8130 150.1227 443.4292 472.1966 28877.9709 4.5272 4.4390
TCL: Running 100000 steps at 180 kelvin.
TCL: Setting parameter langevinTemp to 180
TCL: Running for 100000 steps
ETITLE: TS BOND ANGLE DIHED IMPRP ELECT VDW BOUNDARY MISC KINETIC TOTAL TEMP POTENTIAL TOTAL3 TEMPAVG PRESSURE GPRESSURE VOLUME PRESSAVG GPRESSAVG
ENERGY: 500000 0.0000 0.0000 0.0000 0.0000 -13600.4989 2308.7147 0.0000 0.0000 873.2440 -10418.5402 149.9271 -11291.7842 -10417.0338 149.9271 406.3724 473.5056 28877.9709 406.3724 473.5056
ENERGY: 600000 0.0000 0.0000 0.0000 0.0000 -13225.5089 2198.1920 0.0000 0.0000 1075.0350 -9952.2819 184.5726 -11027.3169 -9949.5049 180.2037 711.9911 742.8584 28476.4926 3.8723 3.9586
TCL: Running 100000 steps at 210 kelvin.
TCL: Setting parameter langevinTemp to 210
TCL: Running for 100000 steps
ETITLE: TS BOND ANGLE DIHED IMPRP ELECT VDW BOUNDARY MISC KINETIC TOTAL TEMP POTENTIAL TOTAL3 TEMPAVG PRESSURE GPRESSURE VOLUME PRESSAVG GPRESSAVG
ENERGY: 600000 0.0000 0.0000 0.0000 0.0000 -13225.5089 2198.1920 0.0000 0.0000 1074.5176 -9952.7994 184.4837 -11027.3169 -9951.1550 184.4837 682.8482 743.0372 28476.4926 682.8482 743.0372
ENERGY: 700000 0.0000 0.0000 0.0000 0.0000 -12543.6843 2023.4444 0.0000 0.0000 1270.1778 -9250.0621 218.0766 -10520.2398 -9248.7969 209.7234 968.2722 1069.8960 28751.3003 2.8448 2.7600
TCL: Running 100000 steps at 240 kelvin.
TCL: Setting parameter langevinTemp to 240
TCL: Running for 100000 steps
ETITLE: TS BOND ANGLE DIHED IMPRP ELECT VDW BOUNDARY MISC KINETIC TOTAL TEMP POTENTIAL TOTAL3 TEMPAVG PRESSURE GPRESSURE VOLUME PRESSAVG GPRESSAVG
ENERGY: 700000 0.0000 0.0000 0.0000 0.0000 -12543.6843 2023.4444 0.0000 0.0000 1269.5398 -9250.7000 217.9671 -10520.2398 -9249.0203 217.9671 1000.2138 1069.5346 28751.3003 1000.2138 1069.5346
ENERGY: 800000 0.0000 0.0000 0.0000 0.0000 -11844.9447 1795.7870 0.0000 0.0000 1412.8266 -8636.3310 242.5680 -10049.1577 -8633.5769 240.4241 780.0970 872.8665 28945.9268 2.7833 2.7973
TCL: Running 100000 steps at 270 kelvin.
TCL: Setting parameter langevinTemp to 270
TCL: Running for 100000 steps
ETITLE: TS BOND ANGLE DIHED IMPRP ELECT VDW BOUNDARY MISC KINETIC TOTAL TEMP POTENTIAL TOTAL3 TEMPAVG PRESSURE GPRESSURE VOLUME PRESSAVG GPRESSAVG
ENERGY: 800000 0.0000 0.0000 0.0000 0.0000 -11844.9447 1795.7870 0.0000 0.0000 1412.1473 -8637.0103 242.4513 -10049.1577 -8634.6509 242.4513 779.0911 871.9868 28945.9268 779.0911 871.9868
ENERGY: 900000 0.0000 0.0000 0.0000 0.0000 -11269.1729 1587.4810 0.0000 0.0000 1587.6201 -8094.0718 272.5782 -9681.6919 -8089.4865 270.4867 382.8809 439.1875 29181.7695 3.7122 3.6757
TCL: Running 1000000 steps at 300 kelvin.
TCL: Setting parameter langevinTemp to 300
TCL: Running for 1000000 steps
ETITLE: TS BOND ANGLE DIHED IMPRP ELECT VDW BOUNDARY MISC KINETIC TOTAL TEMP POTENTIAL TOTAL3 TEMPAVG PRESSURE GPRESSURE VOLUME PRESSAVG GPRESSAVG
ENERGY: 900000 0.0000 0.0000 0.0000 0.0000 -11269.1729 1587.4810 0.0000 0.0000 1586.8459 -8094.8460 272.4453 -9681.6919 -8092.6759 272.4453 341.8691 439.7409 29181.7695 341.8691 439.7409
ENERGY: 1100000 0.0000 0.0000 0.0000 0.0000 -10768.5130 1420.1924 0.0000 0.0000 1725.5479 -7622.7726 296.2590 -9348.3206 -7617.9141 300.8609 -419.4174 -328.5271 30176.8517 3.2450 3.1803
ENERGY: 1300000 0.0000 0.0000 0.0000 0.0000 -10708.0308 1469.6854 0.0000 0.0000 1735.7917 -7502.5537 298.0178 -9238.3454 -7498.1508 299.7753 264.2093 248.5016 30561.1322 2.9831 2.7988
ENERGY: 1500000 0.0000 0.0000 0.0000 0.0000 -10770.9554 1384.7946 0.0000 0.0000 1734.0753 -7652.0854 297.7231 -9386.1607 -7647.5856 299.8438 -629.0231 -534.8417 30116.6942 2.4973 2.4137
ENERGY: 1700000 0.0000 0.0000 0.0000 0.0000 -10704.1688 1392.4642 0.0000 0.0000 1763.2338 -7548.4708 302.7293 -9311.7046 -7543.1542 300.1200 -595.1608 -543.3045 30432.2863 2.7286 2.7103
ENERGY: 1900000 0.0000 0.0000 0.0000 0.0000 -10833.3841 1456.9159 0.0000 0.0000 1744.9777 -7631.4906 299.5949 -9376.4683 -7627.7115 299.5112 -110.7164 -40.2847 30205.5785 3.3966 3.1328
TCL: Exiting due to exit command.
